REMARK  Name = 3194
REMARK  1 active torsions:
REMARK  status: ('A' for Active; 'I' for Inactive)
REMARK    1  A    between atoms: N_3  and  C_7
REMARK                            x       y       z     vdW  Elec       q    Type
REMARK                         _______ _______ _______ _____ _____    ______ ____
ROOT
ATOM      1 SE   UNL     1       4.678  -1.182   0.000  0.00  0.00    +0.000 Se
ATOM      2  C   UNL     1       3.732  -0.878   0.000  0.00  0.00    +0.000 A 
ATOM      3  C   UNL     1       2.866  -1.378   0.000  0.00  0.00    +0.000 A 
ATOM      4  C   UNL     1       2.000  -0.878   0.000  0.00  0.00    +0.000 A 
ATOM      5  C   UNL     1       2.000   0.122   0.000  0.00  0.00    +0.000 A 
ATOM      6  C   UNL     1       2.866   0.622   0.000  0.00  0.00    +0.000 A 
ATOM      7  C   UNL     1       3.732   0.122   0.000  0.00  0.00    +0.000 A 
ATOM      8  C   UNL     1       4.678   0.427   0.000  0.00  0.00    +0.000 A 
ATOM      9  O   UNL     1       4.989   1.378   0.000  0.00  0.00    +0.000 OA
ATOM     10  N   UNL     1       5.262  -0.378   0.000  0.00  0.00    +0.000 N 
ENDROOT
BRANCH  10  11
ATOM     11  C   UNL     1       6.262  -0.378   0.000  0.00  0.00    +0.000 A 
ATOM     12  C   UNL     1       6.762   0.488   0.000  0.00  0.00    +0.000 A 
ATOM     13  C   UNL     1       7.762   0.488   0.000  0.00  0.00    +0.000 A 
ATOM     14  C   UNL     1       8.262  -0.378   0.000  0.00  0.00    +0.000 A 
ATOM     15  C   UNL     1       7.762  -1.244   0.000  0.00  0.00    +0.000 A 
ATOM     16  C   UNL     1       6.762  -1.244   0.000  0.00  0.00    +0.000 A 
ENDBRANCH  10  11
TORSDOF 1
