REMARK  Name = 
REMARK  3 active torsions:
REMARK  status: ('A' for Active; 'I' for Inactive)
REMARK    1  A    between atoms: N_4  and  C_5
REMARK    2  A    between atoms: N_17  and  C_18
REMARK    3  A    between atoms: C_18  and  C_19
REMARK                            x       y       z     vdW  Elec       q    Type
REMARK                         _______ _______ _______ _____ _____    ______ ____
ROOT
ATOM      1  O   UNL     1       1.518  -3.374  -1.168  0.00  0.00    -0.258 OA
ATOM      2  C   UNL     1       0.933  -2.367  -0.662  0.00  0.00    +0.312 A 
ATOM      3  N   UNL     1       1.361  -1.079  -0.654  0.00  0.00    -0.237 N 
ATOM      4  C   UNL     1       0.725  -0.360   0.280  0.00  0.00    +0.344 A 
ATOM      5  O   UNL     1       1.289   0.557   0.952  0.00  0.00    -0.245 OA
ATOM      6  N   UNL     1      -0.620  -0.503   0.188  0.00  0.00    -0.226 N 
ATOM      7  S   UNL     1      -0.716  -2.147  -0.224  0.00  0.00    +0.060 S 
ENDROOT
BRANCH   6   8
ATOM      8  C   UNL     1      -1.645   0.430   0.552  0.00  0.00    +0.075 A 
ATOM      9  C   UNL     1      -2.955  -0.009   0.403  0.00  0.00    +0.017 A 
ATOM     10  C   UNL     1      -3.968   0.845  -0.019  0.00  0.00    +0.001 A 
ATOM     11  C   UNL     1      -5.289   0.420   0.044  0.00  0.00    +0.000 A 
ATOM     12  C   UNL     1      -5.564  -0.817   0.613  0.00  0.00    +0.000 A 
ATOM     13  C   UNL     1      -4.531  -1.738   0.626  0.00  0.00    +0.000 A 
ATOM     14  C   UNL     1      -3.697   2.149  -0.325  0.00  0.00    +0.000 A 
ATOM     15  C   UNL     1      -2.409   2.602  -0.230  0.00  0.00    +0.002 A 
ATOM     16  C   UNL     1      -3.241  -1.363   0.269  0.00  0.00    +0.001 A 
ATOM     17  C   UNL     1      -1.432   1.776   0.311  0.00  0.00    +0.018 A 
ENDBRANCH   6   8
BRANCH   3  18
ATOM     18  C   UNL     1       2.586  -0.698  -1.356  0.00  0.00    +0.141 C 
BRANCH  18  19
ATOM     19  C   UNL     1       3.450   0.182  -0.512  0.00  0.00    +0.001 A 
ATOM     20  C   UNL     1       4.647  -0.393  -0.100  0.00  0.00    -0.002 A 
ATOM     21  C   UNL     1       5.758   0.351   0.205  0.00  0.00    -0.000 A 
ATOM     22  C   UNL     1       5.695   1.724   0.187  0.00  0.00    -0.000 A 
ATOM     23  C   UNL     1       4.549   2.301  -0.344  0.00  0.00    -0.000 A 
ATOM     24  C   UNL     1       3.558   1.510  -0.911  0.00  0.00    -0.002 A 
ENDBRANCH  18  19
ENDBRANCH   3  18
TORSDOF 3
