
     RDKit          3D

 16 15  0  0  0  0  0  0  0  0999 V2000
    5.0481   -0.6717    0.2274 C   0  0  0  0  0  0  0  0  0  0  0  0
    4.0563    0.0518   -0.6434 C   0  0  0  0  0  0  0  0  0  0  0  0
    2.8591    0.2624    0.1523 N   0  0  0  0  0  0  0  0  0  0  0  0
    2.7984    1.4388    0.9739 C   0  0  0  0  0  0  0  0  0  0  0  0
    2.6595    2.6998    0.1309 C   0  0  0  0  0  0  0  0  0  0  0  0
    2.0310   -0.8789    0.3572 C   0  0  0  0  0  0  0  0  0  0  0  0
    2.6069   -2.4035    0.1396 S   0  0  0  0  0  0  0  0  0  0  0  0
    0.4882   -0.7877    1.2739 S   0  0  0  0  0  0  0  0  0  0  0  0
   -0.9839   -1.3048   -0.1905 S   0  0  0  0  0  0  0  0  0  0  0  0
   -1.9309    0.1787   -0.4604 C   0  0  0  0  0  0  0  0  0  0  0  0
   -1.4960    1.3464   -1.5034 S   0  0  0  0  0  0  0  0  0  0  0  0
   -3.3114    0.1143   -0.0695 N   0  0  0  0  0  0  0  0  0  0  0  0
   -3.9841   -1.1709    0.1200 C   0  0  0  0  0  0  0  0  0  0  0  0
   -4.5607   -1.7146   -1.1526 C   0  0  0  0  0  0  0  0  0  0  0  0
   -3.7312    1.1447    0.8779 C   0  0  0  0  0  0  0  0  0  0  0  0
   -2.5493    1.6953    1.6569 C   0  0  0  0  0  0  0  0  0  0  0  0
  1  2  1  0
  2  3  1  0
  3  4  1  0
  4  5  1  0
  3  6  1  0
  6  7  2  0
  6  8  1  0
  8  9  1  0
  9 10  1  0
 10 11  2  0
 10 12  1  0
 12 13  1  0
 13 14  1  0
 12 15  1  0
 15 16  1  0
M  END
>  <zinc_id>  (1) 
ZINC000001529266

>  <smiles>  (1) 
CCN(CC)C(=S)SSC(=S)N(CC)CC

$$$$
