
     RDKit          3D

 24 25  0  0  0  0  0  0  0  0999 V2000
    4.1318    1.8094   -1.8227 C   0  0  0  0  0  0  0  0  0  0  0  0
    5.4253    1.8763   -1.1459 N   0  0  0  0  0  0  0  0  0  0  0  0
    6.1235    3.0154   -1.7357 C   0  0  0  0  0  0  0  0  0  0  0  0
    5.2585    2.1610    0.2541 C   0  0  0  0  0  0  0  0  0  0  0  0
    4.7653    0.9835    1.0506 C   0  0  0  0  0  0  0  0  0  0  0  0
    3.7027    0.1897    0.3377 C   0  0  0  0  0  0  0  0  0  0  0  0
    2.0567    0.4761    1.0186 S   0  0  0  0  0  0  0  0  0  0  0  0
    1.4283   -1.0627    1.6914 C   0  0  0  0  0  0  0  0  0  0  0  0
    2.2006   -1.6908    2.6596 C   0  0  0  0  0  0  0  0  0  0  0  0
    1.8726   -2.9765    2.9965 C   0  0  0  0  0  0  0  0  0  0  0  0
    1.0410   -3.7042    2.1701 C   0  0  0  0  0  0  0  0  0  0  0  0
    0.2912   -3.0762    1.1982 C   0  0  0  0  0  0  0  0  0  0  0  0
    0.4229   -1.7199    1.0204 C   0  0  0  0  0  0  0  0  0  0  0  0
   -0.5782   -0.9346    0.4085 N   0  0  0  0  0  0  0  0  0  0  0  0
   -1.0211   -1.1555   -0.9294 C   0  0  0  0  0  0  0  0  0  0  0  0
   -0.2641   -1.7668   -1.7193 O   0  0  0  0  0  0  0  0  0  0  0  0
   -2.3155   -0.6967   -1.4019 C   0  0  0  0  0  0  0  0  0  0  0  0
   -2.6358    0.5820   -1.3853 C   0  0  0  0  0  0  0  0  0  0  0  0
   -4.0240    1.0149   -1.2235 C   0  0  0  0  0  0  0  0  0  0  0  0
   -5.0715    0.1659   -1.5481 C   0  0  0  0  0  0  0  0  0  0  0  0
   -6.3030    0.3593   -0.9796 C   0  0  0  0  0  0  0  0  0  0  0  0
   -6.5967    1.5308   -0.2981 C   0  0  0  0  0  0  0  0  0  0  0  0
   -5.6011    2.4675   -0.1311 C   0  0  0  0  0  0  0  0  0  0  0  0
   -4.3094    2.1521   -0.4854 C   0  0  0  0  0  0  0  0  0  0  0  0
  1  2  1  0
  2  3  1  0
  2  4  1  0
  4  5  1  0
  5  6  1  0
  6  7  1  0
  7  8  1  0
  8  9  2  0
  9 10  1  0
 10 11  2  0
 11 12  1  0
 12 13  2  0
 13 14  1  0
 14 15  1  0
 15 16  2  0
 15 17  1  0
 17 18  2  0
 18 19  1  0
 19 20  2  0
 20 21  1  0
 21 22  2  0
 22 23  1  0
 23 24  2  0
 13  8  1  0
 24 19  1  0
M  END
>  <zinc_id>  (1) 
ZINC000001714738

>  <smiles>  (1) 
CN(C)CCCSc1ccccc1NC(=O)/C=C/c1ccccc1

$$$$
