
     RDKit          3D

 24 27  0  0  0  0  0  0  0  0999 V2000
    1.5179   -3.3738   -1.1680 O   0  0  0  0  0  0  0  0  0  0  0  0
    0.9331   -2.3669   -0.6620 C   0  0  0  0  0  0  0  0  0  0  0  0
   -0.7163   -2.1468   -0.2244 S   0  0  0  0  0  0  0  0  0  0  0  0
   -0.6199   -0.5034    0.1883 N   0  0  0  0  0  0  0  0  0  0  0  0
   -1.6446    0.4305    0.5520 C   0  0  0  0  0  0  0  0  0  0  0  0
   -1.4324    1.7760    0.3113 C   0  0  0  0  0  0  0  0  0  0  0  0
   -2.4093    2.6019   -0.2299 C   0  0  0  0  0  0  0  0  0  0  0  0
   -3.6970    2.1492   -0.3251 C   0  0  0  0  0  0  0  0  0  0  0  0
   -3.9679    0.8445   -0.0193 C   0  0  0  0  0  0  0  0  0  0  0  0
   -5.2893    0.4202    0.0436 C   0  0  0  0  0  0  0  0  0  0  0  0
   -5.5642   -0.8165    0.6133 C   0  0  0  0  0  0  0  0  0  0  0  0
   -4.5310   -1.7378    0.6263 C   0  0  0  0  0  0  0  0  0  0  0  0
   -3.2415   -1.3629    0.2690 C   0  0  0  0  0  0  0  0  0  0  0  0
   -2.9548   -0.0093    0.4032 C   0  0  0  0  0  0  0  0  0  0  0  0
    0.7246   -0.3599    0.2796 C   0  0  0  0  0  0  0  0  0  0  0  0
    1.2890    0.5571    0.9520 O   0  0  0  0  0  0  0  0  0  0  0  0
    1.3607   -1.0788   -0.6539 N   0  0  0  0  0  0  0  0  0  0  0  0
    2.5858   -0.6983   -1.3560 C   0  0  0  0  0  0  0  0  0  0  0  0
    3.4495    0.1818   -0.5118 C   0  0  0  0  0  0  0  0  0  0  0  0
    3.5585    1.5103   -0.9109 C   0  0  0  0  0  0  0  0  0  0  0  0
    4.5488    2.3008   -0.3444 C   0  0  0  0  0  0  0  0  0  0  0  0
    5.6950    1.7243    0.1873 C   0  0  0  0  0  0  0  0  0  0  0  0
    5.7584    0.3509    0.2052 C   0  0  0  0  0  0  0  0  0  0  0  0
    4.6471   -0.3930   -0.0997 C   0  0  0  0  0  0  0  0  0  0  0  0
  1  2  2  0
  2  3  1  0
  3  4  1  0
  4  5  1  0
  5  6  2  0
  6  7  1  0
  7  8  2  0
  8  9  1  0
  9 10  2  0
 10 11  1  0
 11 12  2  0
 12 13  1  0
 13 14  2  0
  4 15  1  0
 15 16  2  0
 15 17  1  0
 17 18  1  0
 18 19  1  0
 19 20  2  0
 20 21  1  0
 21 22  2  0
 22 23  1  0
 23 24  2  0
 17  2  1  0
 24 19  1  0
 14  5  1  0
 14  9  1  0
M  END
>  <zinc_id>  (1) 
ZINC000013985228

>  <smiles>  (1) 
O=c1sn(-c2cccc3ccccc23)c(=O)n1Cc1ccccc1

$$$$
