REMARK  Name = 
REMARK  9 active torsions:
REMARK  status: ('A' for Active; 'I' for Inactive)
REMARK    1  A    between atoms: C_2  and  N_3
REMARK    2  A    between atoms: N_3  and  C_4
REMARK    3  A    between atoms: N_3  and  C_6
REMARK    4  A    between atoms: C_6  and  S_8
REMARK    5  A    between atoms: S_8  and  S_9
REMARK    6  A    between atoms: S_9  and  C_10
REMARK    7  A    between atoms: C_10  and  N_12
REMARK    8  A    between atoms: N_12  and  C_13
REMARK    9  A    between atoms: N_12  and  C_15
REMARK                            x       y       z     vdW  Elec       q    Type
REMARK                         _______ _______ _______ _____ _____    ______ ____
ROOT
ATOM      1  S   UNL     1       0.488  -0.788   1.274  0.00  0.00    -0.027 S 
ENDROOT
BRANCH   1   2
ATOM      2  C   UNL     1       2.031  -0.879   0.357  0.00  0.00    +0.121 C 
ATOM      3  S   UNL     1       2.607  -2.404   0.140  0.00  0.00    -0.027 S 
BRANCH   2   4
ATOM      4  N   UNL     1       2.859   0.262   0.152  0.00  0.00    -0.297 N 
BRANCH   4   6
ATOM      5  C   UNL     1       5.048  -0.672   0.227  0.00  0.00    +0.023 C 
ATOM      6  C   UNL     1       4.056   0.052  -0.643  0.00  0.00    +0.092 C 
ENDBRANCH   4   6
BRANCH   4   7
ATOM      7  C   UNL     1       2.798   1.439   0.974  0.00  0.00    +0.092 C 
ATOM      8  C   UNL     1       2.659   2.700   0.131  0.00  0.00    +0.023 C 
ENDBRANCH   4   7
ENDBRANCH   2   4
ENDBRANCH   1   2
BRANCH   1   9
ATOM      9  S   UNL     1      -0.984  -1.305  -0.191  0.00  0.00    -0.027 S 
BRANCH   9  10
ATOM     10  C   UNL     1      -1.931   0.179  -0.460  0.00  0.00    +0.121 C 
ATOM     11  S   UNL     1      -1.496   1.346  -1.503  0.00  0.00    -0.027 S 
BRANCH  10  12
ATOM     12  N   UNL     1      -3.311   0.114  -0.070  0.00  0.00    -0.297 N 
BRANCH  12  13
ATOM     13  C   UNL     1      -3.984  -1.171   0.120  0.00  0.00    +0.092 C 
ATOM     14  C   UNL     1      -4.561  -1.715  -1.153  0.00  0.00    +0.023 C 
ENDBRANCH  12  13
BRANCH  12  15
ATOM     15  C   UNL     1      -3.731   1.145   0.878  0.00  0.00    +0.092 C 
ATOM     16  C   UNL     1      -2.549   1.695   1.657  0.00  0.00    +0.023 C 
ENDBRANCH  12  15
ENDBRANCH  10  12
ENDBRANCH   9  10
ENDBRANCH   1   9
TORSDOF 9
