REMARK  Name = 
REMARK  8 active torsions:
REMARK  status: ('A' for Active; 'I' for Inactive)
REMARK    1  A    between atoms: N_2  and  C_4
REMARK    2  A    between atoms: C_4  and  C_5
REMARK    3  A    between atoms: C_5  and  C_6
REMARK    4  A    between atoms: C_6  and  S_7
REMARK    5  A    between atoms: S_7  and  C_8
REMARK    6  A    between atoms: C_13  and  N_14
REMARK    7  A    between atoms: C_15  and  C_17
REMARK    8  A    between atoms: C_18  and  C_19
REMARK                            x       y       z     vdW  Elec       q    Type
REMARK                         _______ _______ _______ _____ _____    ______ ____
ROOT
ATOM      1  C   UNL     1       1.428  -1.063   1.691  0.00  0.00    +0.041 A 
ATOM      2  C   UNL     1       0.423  -1.720   1.020  0.00  0.00    +0.079 A 
ATOM      3  C   UNL     1       0.291  -3.076   1.198  0.00  0.00    +0.017 A 
ATOM      4  C   UNL     1       1.041  -3.704   2.170  0.00  0.00    +0.001 A 
ATOM      5  C   UNL     1       1.873  -2.977   2.997  0.00  0.00    +0.001 A 
ATOM      6  C   UNL     1       2.201  -1.691   2.660  0.00  0.00    +0.007 A 
ENDROOT
BRANCH   2   7
ATOM      7  N   UNL     1      -0.578  -0.935   0.408  0.00  0.00    -0.175 NA
ATOM      8  C   UNL     1      -1.021  -1.155  -0.929  0.00  0.00    +0.269 C 
ATOM      9  O   UNL     1      -0.264  -1.767  -1.719  0.00  0.00    -0.268 OA
BRANCH   8  10
ATOM     10  C   UNL     1      -2.316  -0.697  -1.402  0.00  0.00    +0.060 C 
ATOM     11  C   UNL     1      -2.636   0.582  -1.385  0.00  0.00    +0.005 C 
BRANCH  11  12
ATOM     12  C   UNL     1      -4.024   1.015  -1.224  0.00  0.00    +0.000 A 
ATOM     13  C   UNL     1      -4.309   2.152  -0.485  0.00  0.00    +0.000 A 
ATOM     14  C   UNL     1      -5.601   2.467  -0.131  0.00  0.00    +0.000 A 
ATOM     15  C   UNL     1      -6.597   1.531  -0.298  0.00  0.00    +0.000 A 
ATOM     16  C   UNL     1      -6.303   0.359  -0.980  0.00  0.00    +0.000 A 
ATOM     17  C   UNL     1      -5.072   0.166  -1.548  0.00  0.00    +0.000 A 
ENDBRANCH  11  12
ENDBRANCH   8  10
ENDBRANCH   2   7
BRANCH   1  18
ATOM     18  S   UNL     1       2.057   0.476   1.019  0.00  0.00    -0.112 S 
BRANCH  18  19
ATOM     19  C   UNL     1       3.703   0.190   0.338  0.00  0.00    +0.064 C 
BRANCH  19  20
ATOM     20  C   UNL     1       4.765   0.984   1.051  0.00  0.00    +0.029 C 
BRANCH  20  21
ATOM     21  C   UNL     1       5.258   2.161   0.254  0.00  0.00    +0.073 C 
BRANCH  21  23
ATOM     22  C   UNL     1       4.132   1.809  -1.823  0.00  0.00    +0.090 C 
ATOM     23  N   UNL     1       5.425   1.876  -1.146  0.00  0.00    -0.270 NA
ATOM     24  C   UNL     1       6.123   3.015  -1.736  0.00  0.00    +0.090 C 
ENDBRANCH  21  23
ENDBRANCH  20  21
ENDBRANCH  19  20
ENDBRANCH  18  19
ENDBRANCH   1  18
TORSDOF 8
