
     RDKit          3D

 11 11  0  0  0  0  0  0  0  0999 V2000
   -2.7466    1.4492   -2.1091 C   0  0  0  0  0  0  0  0  0  0  0  0
   -3.0457    0.8221   -1.3278 C   0  0  0  0  0  0  0  0  0  0  0  0
   -1.9792    0.6473   -0.1627 C   0  0  1  0  0  0  0  0  0  0  0  0
   -3.0314    0.1454    0.9168 C   0  0  0  0  0  0  0  0  0  0  0  0
   -1.4269   -1.0927   -0.7072 S   0  0  0  0  0  0  0  0  0  0  0  0
    0.1579   -1.7387    0.5104 S   0  0  0  0  0  0  0  0  0  0  0  0
    1.6967   -0.8739    0.1736 C   0  0  0  0  0  0  0  0  0  0  0  0
    2.2733   -0.7901   -1.0506 N   0  0  0  0  0  0  0  0  0  0  0  0
    3.2215    0.1643   -0.9961 C   0  0  0  0  0  0  0  0  0  0  0  0
    2.9801    0.9095    0.1390 C   0  0  0  0  0  0  0  0  0  0  0  0
    1.9003    0.3576    0.7038 N   0  0  0  0  0  0  0  0  0  0  0  0
  1  2  1  0
  3  2  1  6
  3  4  1  0
  3  5  1  0
  5  6  1  0
  6  7  1  0
  7  8  2  0
  8  9  1  0
  9 10  2  0
 10 11  1  0
 11  7  1  0
M  END
>  <zinc_id>  (1) 
ZINC000000008687

>  <smiles>  (1) 
CC[C@@H](C)SSc1ncc[nH]1

$$$$
