REMARK  Name = 
REMARK  5 active torsions:
REMARK  status: ('A' for Active; 'I' for Inactive)
REMARK    1  A    between atoms: C_2  and  C_3
REMARK    2  A    between atoms: C_3  and  C_4
REMARK    3  A    between atoms: C_4  and  C_5
REMARK    4  A    between atoms: C_5  and  C_6
REMARK    5  A    between atoms: C_6  and  N_7
REMARK                            x       y       z     vdW  Elec       q    Type
REMARK                         _______ _______ _______ _____ _____    ______ ____
ROOT
ATOM      1  N   UNL     1       0.925   0.747  -1.116  0.00  0.00    -0.186 NA
ATOM      2  C   UNL     1       0.120  -0.219  -0.478  0.00  0.00    +0.343 C 
ATOM      3  N   UNL     1      -1.298  -0.110  -0.345  0.00  0.00    -0.208 N 
ATOM      4  C   UNL     1      -1.795  -0.343   0.890  0.00  0.00    +0.360 A 
ATOM      5  O   UNL     1      -1.155  -0.055   1.944  0.00  0.00    -0.244 OA
ATOM      6  N   UNL     1      -3.109  -0.588   1.006  0.00  0.00    -0.151 NA
ATOM      7  C   UNL     1      -3.978  -0.394  -0.016  0.00  0.00    +0.312 A 
ATOM      8  O   UNL     1      -5.178  -1.106  -0.109  0.00  0.00    -0.263 OA
ATOM      9  C   UNL     1      -3.467   0.163  -1.181  0.00  0.00    +0.215 A 
ATOM     10  F   UNL     1      -4.355   0.819  -1.983  0.00  0.00    -0.197 F 
ATOM     11  C   UNL     1      -2.097   0.264  -1.367  0.00  0.00    +0.123 A 
ATOM     12  O   UNL     1       0.677  -1.292  -0.124  0.00  0.00    -0.247 OA
ENDROOT
BRANCH   1  13
ATOM     13  C   UNL     1       2.286   0.932  -0.667  0.00  0.00    +0.117 C 
BRANCH  13  14
ATOM     14  C   UNL     1       2.422   0.766   0.831  0.00  0.00    +0.023 C 
BRANCH  14  15
ATOM     15  C   UNL     1       3.722   0.121   1.231  0.00  0.00    +0.002 C 
BRANCH  15  16
ATOM     16  C   UNL     1       4.324  -0.551   0.006  0.00  0.00    +0.000 C 
BRANCH  16  18
ATOM     17  C   UNL     1       6.128   1.161  -0.005  0.00  0.00    +0.000 C 
ATOM     18  C   UNL     1       5.827  -0.314   0.010  0.00  0.00    +0.000 C 
ENDBRANCH  16  18
ENDBRANCH  15  16
ENDBRANCH  14  15
ENDBRANCH  13  14
ENDBRANCH   1  13
TORSDOF 5
