
     RDKit          3D

 21 22  0  0  0  0  0  0  0  0999 V2000
    3.3978    1.6363   -1.3271 C   0  0  0  0  0  0  0  0  0  0  0  0
    3.5286    1.0530   -0.0108 C   0  0  0  0  0  0  0  0  0  0  0  0
    4.1815    1.9455    1.0064 C   0  0  0  0  0  0  0  0  0  0  0  0
    3.6144   -0.2258    0.2549 C   0  0  0  0  0  0  0  0  0  0  0  0
    2.5424   -1.1842    0.4982 C   0  0  0  0  0  0  0  0  0  0  0  0
    1.9293   -1.4731   -1.0104 C   0  0  1  0  0  0  0  0  0  0  0  0
    2.1242   -2.9746   -0.8408 O   0  0  0  0  0  0  0  0  0  0  0  0
    0.3710   -1.5727   -0.5601 C   0  0  0  0  0  0  0  0  0  0  0  0
   -0.4457   -1.4591   -1.6151 C   0  0  0  0  0  0  0  0  0  0  0  0
   -1.5111   -0.4498   -1.6748 C   0  0  0  0  0  0  0  0  0  0  0  0
   -2.0864   -0.1192   -2.7507 O   0  0  0  0  0  0  0  0  0  0  0  0
   -1.8918    0.2949   -0.4872 C   0  0  0  0  0  0  0  0  0  0  0  0
   -2.8624    1.2737   -0.4674 C   0  0  0  0  0  0  0  0  0  0  0  0
   -3.8288    1.2198   -1.4772 O   0  0  0  0  0  0  0  0  0  0  0  0
   -3.1304    1.9029    0.7338 C   0  0  0  0  0  0  0  0  0  0  0  0
   -2.4453    1.6056    1.9050 C   0  0  0  0  0  0  0  0  0  0  0  0
   -1.6063    0.5034    1.9075 C   0  0  0  0  0  0  0  0  0  0  0  0
   -1.2631   -0.1977    3.0432 O   0  0  0  0  0  0  0  0  0  0  0  0
   -1.2778   -0.0457    0.6918 C   0  0  0  0  0  0  0  0  0  0  0  0
   -0.0485   -0.8326    0.5917 C   0  0  0  0  0  0  0  0  0  0  0  0
    0.7086   -0.9005    1.5890 O   0  0  0  0  0  0  0  0  0  0  0  0
  1  2  1  0
  2  3  1  0
  2  4  2  3
  4  5  1  0
  6  5  1  1
  6  7  1  0
  6  8  1  0
  8  9  2  0
  9 10  1  0
 10 11  2  0
 10 12  1  0
 12 13  2  0
 13 14  1  0
 13 15  1  0
 15 16  2  0
 16 17  1  0
 17 18  1  0
 17 19  2  0
 19 20  1  0
 20 21  2  0
 20  8  1  0
 19 12  1  0
M  END
>  <zinc_id>  (1) 
ZINC000002015152

>  <smiles>  (1) 
CC(C)=CC[C@@H](O)C1=CC(=O)c2c(O)ccc(O)c2C1=O

$$$$
