REMARK  Name = 
REMARK  3 active torsions:
REMARK  status: ('A' for Active; 'I' for Inactive)
REMARK    1  A    between atoms: C_4  and  C_5
REMARK    2  A    between atoms: C_5  and  C_6
REMARK    3  A    between atoms: C_6  and  C_8
REMARK                            x       y       z     vdW  Elec       q    Type
REMARK                         _______ _______ _______ _____ _____    ______ ____
ROOT
ATOM      1  C   UNL     1       0.371  -1.573  -0.560  0.00  0.00    +0.050 C 
ATOM      2  C   UNL     1      -0.049  -0.833   0.592  0.00  0.00    +0.197 C 
ATOM      3  O   UNL     1       0.709  -0.900   1.589  0.00  0.00    -0.287 OA
ATOM      4  C   UNL     1      -1.278  -0.046   0.692  0.00  0.00    +0.084 A 
ATOM      5  C   UNL     1      -1.892   0.295  -0.487  0.00  0.00    +0.084 A 
ATOM      6  C   UNL     1      -2.862   1.274  -0.467  0.00  0.00    +0.199 A 
ATOM      7  C   UNL     1      -3.130   1.903   0.734  0.00  0.00    +0.045 A 
ATOM      8  C   UNL     1      -2.445   1.606   1.905  0.00  0.00    +0.045 A 
ATOM      9  O   UNL     1      -3.829   1.220  -1.477  0.00  0.00    -0.286 OA
ATOM     10  C   UNL     1      -1.511  -0.450  -1.675  0.00  0.00    +0.199 C 
ATOM     11  O   UNL     1      -2.086  -0.119  -2.751  0.00  0.00    -0.286 OA
ATOM     12  C   UNL     1      -1.606   0.503   1.907  0.00  0.00    +0.199 A 
ATOM     13  O   UNL     1      -1.263  -0.198   3.043  0.00  0.00    -0.286 OA
ATOM     14  C   UNL     1      -0.446  -1.459  -1.615  0.00  0.00    +0.043 C 
ENDROOT
BRANCH   1  15
ATOM     15  C   UNL     1       1.929  -1.473  -1.010  0.00  0.00    +0.182 C 
ATOM     16  O   UNL     1       2.124  -2.975  -0.841  0.00  0.00    -0.218 OA
BRANCH  15  17
ATOM     17  C   UNL     1       2.542  -1.184   0.498  0.00  0.00    +0.063 C 
BRANCH  17  20
ATOM     18  C   UNL     1       3.398   1.636  -1.327  0.00  0.00    +0.026 C 
ATOM     19  C   UNL     1       3.529   1.053  -0.011  0.00  0.00    -0.048 C 
ATOM     20  C   UNL     1       3.614  -0.226   0.255  0.00  0.00    -0.032 C 
ATOM     21  C   UNL     1       4.181   1.946   1.006  0.00  0.00    +0.026 C 
ENDBRANCH  17  20
ENDBRANCH  15  17
ENDBRANCH   1  15
TORSDOF 3
