REMARK  Name = 
REMARK  4 active torsions:
REMARK  status: ('A' for Active; 'I' for Inactive)
REMARK    1  A    between atoms: C_2  and  C_3
REMARK    2  A    between atoms: C_3  and  S_5
REMARK    3  A    between atoms: S_5  and  S_6
REMARK    4  A    between atoms: S_6  and  C_7
REMARK                            x       y       z     vdW  Elec       q    Type
REMARK                         _______ _______ _______ _____ _____    ______ ____
ROOT
ATOM      1  S   UNL     1       0.158  -1.739   0.510  0.00  0.00    -0.017 S 
ENDROOT
BRANCH   1   2
ATOM      2  C   UNL     1       1.697  -0.874   0.174  0.00  0.00    +0.200 A 
ATOM      3  N   UNL     1       1.900   0.358   0.704  0.00  0.00    -0.217 NA
ATOM      4  C   UNL     1       2.980   0.909   0.139  0.00  0.00    +0.122 A 
ATOM      5  C   UNL     1       3.221   0.164  -0.996  0.00  0.00    +0.122 A 
ATOM      6  N   UNL     1       2.273  -0.790  -1.051  0.00  0.00    -0.217 NA
ENDBRANCH   1   2
BRANCH   1   7
ATOM      7  S   UNL     1      -1.427  -1.093  -0.707  0.00  0.00    -0.076 S 
BRANCH   7   8
ATOM      8  C   UNL     1      -1.979   0.647  -0.163  0.00  0.00    +0.058 C 
ATOM      9  C   UNL     1      -3.031   0.145   0.917  0.00  0.00    +0.013 C 
BRANCH   8  11
ATOM     10  C   UNL     1      -2.747   1.449  -2.109  0.00  0.00    +0.001 C 
ATOM     11  C   UNL     1      -3.046   0.822  -1.328  0.00  0.00    +0.012 C 
ENDBRANCH   8  11
ENDBRANCH   7   8
ENDBRANCH   1   7
TORSDOF 4
