
     RDKit          3D

 18 18  0  0  0  0  0  0  0  0999 V2000
    6.1284    1.1607   -0.0053 C   0  0  0  0  0  0  0  0  0  0  0  0
    5.8267   -0.3136    0.0099 C   0  0  0  0  0  0  0  0  0  0  0  0
    4.3242   -0.5510    0.0062 C   0  0  0  0  0  0  0  0  0  0  0  0
    3.7217    0.1214    1.2306 C   0  0  0  0  0  0  0  0  0  0  0  0
    2.4219    0.7656    0.8310 C   0  0  0  0  0  0  0  0  0  0  0  0
    2.2856    0.9319   -0.6667 C   0  0  0  0  0  0  0  0  0  0  0  0
    0.9253    0.7469   -1.1161 N   0  0  0  0  0  0  0  0  0  0  0  0
    0.1196   -0.2186   -0.4776 C   0  0  0  0  0  0  0  0  0  0  0  0
    0.6772   -1.2924   -0.1237 O   0  0  0  0  0  0  0  0  0  0  0  0
   -1.2975   -0.1102   -0.3452 N   0  0  0  0  0  0  0  0  0  0  0  0
   -2.0974    0.2637   -1.3669 C   0  0  0  0  0  0  0  0  0  0  0  0
   -3.4670    0.1630   -1.1811 C   0  0  0  0  0  0  0  0  0  0  0  0
   -4.3549    0.8189   -1.9832 F   0  0  0  0  0  0  0  0  0  0  0  0
   -3.9779   -0.3942   -0.0159 C   0  0  0  0  0  0  0  0  0  0  0  0
   -5.1777   -1.1062   -0.1089 O   0  0  0  0  0  0  0  0  0  0  0  0
   -3.1092   -0.5883    1.0056 N   0  0  0  0  0  0  0  0  0  0  0  0
   -1.7946   -0.3428    0.8903 C   0  0  0  0  0  0  0  0  0  0  0  0
   -1.1545   -0.0548    1.9439 O   0  0  0  0  0  0  0  0  0  0  0  0
  1  2  1  0
  2  3  1  0
  3  4  1  0
  4  5  1  0
  5  6  1  0
  6  7  1  0
  7  8  1  0
  8  9  2  0
  8 10  1  0
 10 11  1  0
 11 12  2  0
 12 13  1  0
 12 14  1  0
 14 15  1  0
 14 16  2  0
 16 17  1  0
 17 18  2  0
 17 10  1  0
M  END
>  <zinc_id>  (1) 
ZINC000001542916

>  <smiles>  (1) 
CCCCCCNC(=O)n1cc(F)c(O)nc1=O

$$$$
