@<TRIPOS>MOLECULE
UNL
41 42 1 0 1
SMALL
USER_CHARGES
@<TRIPOS>ATOM
       1 C          -10.7910    14.2630    68.3620 c3            1 UNL       -0.182738
       2 C1         -11.4490    15.0260    69.3800 c             1 UNL        0.603676
       3 O          -11.4530    16.2690    69.2120 o             1 UNL       -0.568124
       4 C2         -12.0790    14.4740    70.5790 ca            1 UNL       -0.194624
       5 C3         -12.3690    13.1330    70.5640 ca            1 UNL       -0.194624
       6 C4         -13.2230    12.6320    71.5230 ca            1 UNL        0.157076
       7 C5         -13.7880    13.5170    72.4210 ca            1 UNL       -0.108024
       8 C6         -13.5500    14.8840    72.3760 ca            1 UNL       -0.118024
       9 O1         -13.0740    11.2790    71.8500 oh            1 UNL       -0.500124
      10 C7         -11.7020    12.3200    69.5610 c             1 UNL        0.593676
      11 O2         -11.9850    11.0880    69.5620 o             1 UNL       -0.560124
      12 C8         -12.5570    15.3450    71.5260 ca            1 UNL        0.172076
      13 O3         -11.8780    16.5300    71.7120 oh            1 UNL       -0.502124
      14 C9         -10.8290    12.9390    68.5570 c3            1 UNL       -0.177424
      15 C10        -11.0890    14.6370    66.8090 c3            1 UNL        0.148076
      16 O4         -12.3670    13.8070    66.8040 oh            1 UNL       -0.589824
      17 C11        -10.2290    13.3900    66.1470 c3            1 UNL       -0.109424
      18 C12         -9.9660    11.6400    63.1670 c3            1 UNL       -0.088124
      19 C13        -10.9260    12.3380    63.9920 c3            1 UNL       -0.078724
      20 C14        -10.6710    13.3690    64.7570 c3            1 UNL       -0.071424
      21 C15        -12.3440    12.2600    63.5020 c3            1 UNL       -0.088124
      22 H           -9.7870    14.6010    68.5110 hc            1 UNL        0.091676
      23 H1         -14.4120    13.1470    73.1550 ha            1 UNL        0.163976
      24 H2         -14.0960    15.5380    72.9580 ha            1 UNL        0.163976
      25 H3         -12.6900    10.6880    71.2330 ho            1 UNL        0.454976
      26 H4         -11.2150    16.7910    71.1030 ho            1 UNL        0.461976
      27 H5          -9.8310    12.6460    68.8080 hc            1 UNL        0.081676
      28 H6         -11.2620    12.5920    67.6420 hc            1 UNL        0.081676
      29 H7         -11.0000    15.6400    66.4470 h1            1 UNL        0.098676
      30 H8         -12.1870    12.9330    67.1850 ho            1 UNL        0.406976
      31 H9          -9.1770    13.5750    66.2110 hc            1 UNL        0.047676
      32 H10        -10.3920    12.4600    66.6490 hc            1 UNL        0.047676
      33 H11        -10.4540    10.8390    62.6520 hc            1 UNL        0.033009
      34 H12         -9.1870    11.2440    63.7840 hc            1 UNL        0.033009
      35 H13         -9.5470    12.3200    62.4550 hc            1 UNL        0.033009
      36 H14        -10.7050    11.6790    64.8060 hc            1 UNL        0.070676
      37 H15        -11.5810    13.9320    64.7580 hc            1 UNL        0.043676
      38 H16         -9.7530    13.6750    64.3000 hc            1 UNL        0.043676
      39 H17        -12.4800    12.9460    62.6920 hc            1 UNL        0.033009
      40 H18        -13.0110    12.5120    64.2990 hc            1 UNL        0.033009
      41 H19        -12.5510    11.2660    63.1650 hc            1 UNL        0.033009
@<TRIPOS>BOND
       1       18       19 1
       2       21       19 1
       3       19       20 1
       4       20       17 1
       5       17       15 1
       6       16       15 1
       7       15        1 1
       8        1       14 1
       9        1        2 1
      10       14       10 1
      11        3        2 2
      12        2        4 1
      13       10       11 2
      14       10        5 1
      15        5        4 ar
      16        5        6 ar
      17        4       12 ar
      18        6        9 1
      19        6        7 ar
      20       12       13 1
      21       12        8 ar
      22        8        7 ar
      23        1       22 1
      24        7       23 1
      25        8       24 1
      26        9       25 1
      27       13       26 1
      28       14       27 1
      29       14       28 1
      30       15       29 1
      31       16       30 1
      32       17       31 1
      33       17       32 1
      34       18       33 1
      35       18       34 1
      36       18       35 1
      37       19       36 1
      38       20       37 1
      39       20       38 1
      40       21       39 1
      41       21       40 1
      42       21       41 1
@<TRIPOS>SUBSTRUCTURE
       1 UNL             1 RESIDUE    0 **** ROOT      0
