@<TRIPOS>MOLECULE
UNL
51 52 1 0 1
SMALL
USER_CHARGES
@<TRIPOS>ATOM
       1 C          -11.2910    15.0730    67.6110 ca            1 UNL       -0.107102
       2 C1         -11.6120    14.1300    66.6630 ca            1 UNL        0.132600
       3 C2         -11.3770    14.4200    65.3410 ca            1 UNL       -0.164000
       4 C3         -10.6680    15.5570    65.0160 ca            1 UNL       -0.054000
       5 C4         -10.1470    16.3680    66.0040 ca            1 UNL       -0.165000
       6 C5         -10.5910    16.2310    67.2920 ca            1 UNL       -0.050000
       7 N          -11.9050    12.8240    67.1120 n             1 UNL       -0.486100
       8 C6         -10.9020    11.9280    67.5850 c             1 UNL        0.663100
       9 O           -9.7130    12.1190    67.2360 o             1 UNL       -0.554100
      10 C7         -11.2120    10.8070    68.4560 c3            1 UNL       -0.157400
      11 C8         -11.9860    10.9570    69.5130 c3            1 UNL       -0.022100
      12 C9         -11.8180    10.1210    70.7020 ca            1 UNL       -0.108300
      13 C10        -10.6240     9.4500    70.9070 ca            1 UNL       -0.132000
      14 C11        -10.5040     8.4920    71.8880 ca            1 UNL       -0.122000
      15 C12        -11.6350     8.0180    72.5150 ca            1 UNL       -0.117000
      16 C13        -12.8480     8.6440    72.2630 ca            1 UNL       -0.122000
      17 C14        -12.9130     9.7600    71.4730 ca            1 UNL       -0.132000
      18 S          -12.1500    15.0490    69.1850 ss            1 UNL       -0.289000
      19 C15        -11.1200    15.8530    70.4290 c3            1 UNL       -0.051300
      20 C16        -11.8630    16.1040    71.7140 c3            1 UNL       -0.084400
      21 C17        -13.2790    15.5970    71.6870 c3            1 UNL        0.101800
      22 C18        -13.5580    13.3340    72.3990 c3            1 UNL        0.072600
      23 N1         -13.6030    14.7390    72.7950 n4            1 UNL       -0.672400
      24 C19        -12.5460    14.9050    73.7890 c3            1 UNL        0.072600
      25 H          -11.7270    13.7940    64.5990 ha            1 UNL        0.184000
      26 H1         -10.5250    15.8040    64.0240 ha            1 UNL        0.153000
      27 H2          -9.4280    17.0720    65.7740 ha            1 UNL        0.151000
      28 H3         -10.4130    16.9600    68.0000 ha            1 UNL        0.144000
      29 H4         -12.8410    12.5190    67.0980 hn            1 UNL        0.316500
      30 H5         -10.2760    10.4350    68.8160 hc            1 UNL        0.090200
      31 H6         -11.8010    10.1760    67.8230 hc            1 UNL        0.090200
      32 H7         -12.9910    10.8070    69.1770 hc            1 UNL        0.036200
      33 H8         -11.7070    11.9270    69.8690 hc            1 UNL        0.036200
      34 H9          -9.8090     9.6720    70.3140 ha            1 UNL        0.130000
      35 H10         -9.5740     8.1320    72.1520 ha            1 UNL        0.143000
      36 H11        -11.5820     7.2140    73.1590 ha            1 UNL        0.146000
      37 H12        -13.7130     8.2630    72.6770 ha            1 UNL        0.143000
      38 H13        -13.7730    10.3300    71.4510 ha            1 UNL        0.130000
      39 H14        -10.7800    16.7900    70.0400 h1            1 UNL        0.082700
      40 H15        -10.3020    15.1990    70.6470 h1            1 UNL        0.082700
      41 H16        -11.8820    17.1580    71.8950 hc            1 UNL        0.085700
      42 H17        -11.3490    15.5730    72.4880 hc            1 UNL        0.085700
      43 H18        -13.4250    15.0480    70.7800 hx            1 UNL        0.111700
      44 H19        -13.9200    16.4510    71.7530 hx            1 UNL        0.111700
      45 H20        -14.3140    13.1460    71.6660 hx            1 UNL        0.107367
      46 H21        -13.7300    12.7160    73.2560 hx            1 UNL        0.107367
      47 H22        -12.5970    13.1110    71.9850 hx            1 UNL        0.107367
      48 H23        -14.5340    14.9780    73.1380 hn            1 UNL        0.449800
      49 H24        -11.6050    14.6360    73.3570 hx            1 UNL        0.107367
      50 H25        -12.7450    14.2750    74.6300 hx            1 UNL        0.107367
      51 H26        -12.5130    15.9260    74.1080 hx            1 UNL        0.107367
@<TRIPOS>BOND
       1        4        3 ar
       2        4        5 ar
       3        3        2 ar
       4        5        6 ar
       5        2        7 1
       6        2        1 ar
       7        7        8 1
       8        9        8 2
       9        6        1 ar
      10        8       10 1
      11        1       18 1
      12       10       11 1
      13       18       19 1
      14       11       12 1
      15       19       20 1
      16       12       13 ar
      17       12       17 ar
      18       13       14 ar
      19       17       16 ar
      20       21       20 1
      21       21       23 1
      22       14       15 ar
      23       16       15 ar
      24       22       23 1
      25       23       24 1
      26        3       25 1
      27        4       26 1
      28        5       27 1
      29        6       28 1
      30        7       29 1
      31       10       30 1
      32       10       31 1
      33       11       32 1
      34       11       33 1
      35       13       34 1
      36       14       35 1
      37       15       36 1
      38       16       37 1
      39       17       38 1
      40       19       39 1
      41       19       40 1
      42       20       41 1
      43       20       42 1
      44       21       43 1
      45       21       44 1
      46       22       45 1
      47       22       46 1
      48       22       47 1
      49       23       48 1
      50       24       49 1
      51       24       50 1
      52       24       51 1
@<TRIPOS>SUBSTRUCTURE
       1 UNL             1 RESIDUE    0 **** ROOT      0
