=
 OpenBabel03202017443D

 46 49  0  0  1  0  0  0  0  0999 V2000
   -9.2290   10.0110   69.2980 C   0  0  2  0  0  0  0  0  0  0  0  0
   -8.7830    9.5050   67.9480 O   0  0  0  0  0  0  0  0  0  0  0  0
   -9.8290    8.4520   69.7050 C   0  0  1  0  0  0  0  0  0  0  0  0
   -8.3090    6.5090   69.9530 C   0  0  0  0  0  0  0  0  0  0  0  0
   -8.3750    7.9120   69.8710 N   0  0  0  0  0  0  0  0  0  0  0  0
   -9.0350    5.8410   69.1790 O   0  0  0  0  0  0  0  0  0  0  0  0
   -7.1300    5.8180   70.5530 C   0  0  0  0  0  0  0  0  0  0  0  0
   -7.5210    5.0410   71.6510 O   0  0  0  0  0  0  0  0  0  0  0  0
   -6.7450    6.8270   73.5940 C   0  0  0  0  0  0  0  0  0  0  0  0
   -7.9380    6.4110   73.5770 C   0  0  0  0  0  0  0  0  0  0  0  0
   -8.3930    5.4780   72.6510 C   0  0  0  0  0  0  0  0  0  0  0  0
   -9.6260    4.8520   72.7940 C   0  0  0  0  0  0  0  0  0  0  0  0
   -9.9960    3.6630   72.0240 C   0  0  0  0  0  0  0  0  0  0  0  0
  -10.4680    5.2210   73.8280 C   0  0  0  0  0  0  0  0  0  0  0  0
  -10.1460    6.3320   74.5850 C   0  0  0  0  0  0  0  0  0  0  0  0
   -8.9260    6.9530   74.3920 C   0  0  0  0  0  0  0  0  0  0  0  0
  -10.0140    8.7280   71.2930 C   0  0  0  0  0  0  0  0  0  0  0  0
  -11.3160    8.3390   71.7760 C   0  0  0  0  0  0  0  0  0  0  0  0
  -12.2680    9.3370   71.9890 C   0  0  0  0  0  0  0  0  0  0  0  0
  -13.5790    9.0110   72.3200 C   0  0  0  0  0  0  0  0  0  0  0  0
  -14.0450    7.7950   71.8480 C   0  0  0  0  0  0  0  0  0  0  0  0
  -13.2200    6.9970   71.0660 C   0  0  0  0  0  0  0  0  0  0  0  0
  -11.8560    7.1970   71.1890 C   0  0  0  0  0  0  0  0  0  0  0  0
  -10.7370   10.4690   68.8880 C   0  0  0  0  0  0  0  0  0  0  0  0
  -10.7770   12.0880   69.0620 C   0  0  1  0  0  0  0  0  0  0  0  0
  -11.5030   12.2720   67.6780 N   0  0  0  0  0  0  0  0  0  0  0  0
  -10.8000   13.0460   66.7670 C   0  0  0  0  0  0  0  0  0  0  0  0
   -9.6020   12.9150   66.5900 O   0  0  0  0  0  0  0  0  0  0  0  0
  -11.6600   13.9900   65.7880 C   0  0  1  0  0  0  0  0  0  0  0  0
  -10.6030   15.1480   65.8890 N   0  0  0  0  0  0  0  0  0  0  0  0
  -10.8040   16.3490   65.2370 C   0  0  0  0  0  0  0  0  0  0  0  0
  -11.2310   16.2560   64.0680 O   0  0  0  0  0  0  0  0  0  0  0  0
  -10.1820   17.5180   65.7780 N   0  0  0  0  0  0  0  0  0  0  0  0
  -10.3230   17.6760   67.2230 C   0  0  0  0  0  0  0  0  0  0  0  0
  -10.6750   16.3930   67.9180 C   0  0  0  0  0  0  0  0  0  0  0  0
  -10.0560   15.1780   67.2440 C   0  0  0  0  0  0  0  0  0  0  0  0
  -11.0620   13.2900   64.4230 C   0  0  0  0  0  0  0  0  0  0  0  0
  -12.2820   13.4490   63.5150 C   0  0  0  0  0  0  0  0  0  0  0  0
  -10.9510   11.8210   64.7160 C   0  0  0  0  0  0  0  0  0  0  0  0
  -12.1560   12.0250   69.9330 C   0  0  0  0  0  0  0  0  0  0  0  0
  -12.3690   13.2360   70.6800 C   0  0  0  0  0  0  0  0  0  0  0  0
  -13.1500   12.9980   71.8120 C   0  0  0  0  0  0  0  0  0  0  0  0
  -13.6590   14.0180   72.5670 C   0  0  0  0  0  0  0  0  0  0  0  0
  -13.3850   15.3400   72.2530 C   0  0  0  0  0  0  0  0  0  0  0  0
  -12.7520   15.6090   71.0470 C   0  0  0  0  0  0  0  0  0  0  0  0
  -12.4090   14.5390   70.2720 C   0  0  0  0  0  0  0  0  0  0  0  0
  1  2  1  6  0  0  0
  1  3  1  0  0  0  0
  3  5  1  0  0  0  0
  3 17  1  1  0  0  0
  4  7  1  0  0  0  0
  5  4  1  0  0  0  0
  6  4  2  0  0  0  0
  7  8  1  0  0  0  0
  8 11  1  0  0  0  0
 10  9  1  0  0  0  0
 10 16  2  0  0  0  0
 11 12  2  0  0  0  0
 11 10  1  0  0  0  0
 12 14  1  0  0  0  0
 13 12  1  0  0  0  0
 14 15  2  0  0  0  0
 16 15  1  0  0  0  0
 17 18  1  0  0  0  0
 18 19  2  0  0  0  0
 19 20  1  0  0  0  0
 21 20  2  0  0  0  0
 22 23  2  0  0  0  0
 22 21  1  0  0  0  0
 23 18  1  0  0  0  0
 24  1  1  0  0  0  0
 25 24  1  6  0  0  0
 25 40  1  0  0  0  0
 26 25  1  0  0  0  0
 27 26  1  0  0  0  0
 28 27  2  0  0  0  0
 29 37  1  6  0  0  0
 29 30  1  0  0  0  0
 29 27  1  0  0  0  0
 30 36  1  0  0  0  0
 31 33  1  0  0  0  0
 31 30  1  0  0  0  0
 32 31  2  0  0  0  0
 33 34  1  0  0  0  0
 34 35  1  0  0  0  0
 36 35  1  0  0  0  0
 37 39  1  0  0  0  0
 38 37  1  0  0  0  0
 40 41  1  0  0  0  0
 41 42  1  0  0  0  0
 42 43  2  0  0  0  0
 44 43  1  0  0  0  0
 45 44  2  0  0  0  0
 46 41  2  0  0  0  0
 46 45  1  0  0  0  0
M  END
>  <MODEL>
1

>  <REMARK>
 VINA RESULT:      -7.7      0.000      0.000
  Name = 
  15 active torsions:
  status: ('A' for Active; 'I' for Inactive)
    1  A    between atoms: C_8  and  O_9
    2  A    between atoms: O_9  and  C_10
    3  A    between atoms: C_10  and  C_11
    4  A    between atoms: N_13  and  C_14
    5  A    between atoms: C_14  and  C_15
    6  A    between atoms: C_14  and  C_22
    7  A    between atoms: C_15  and  C_16
    8  A    between atoms: C_22  and  C_24
    9  A    between atoms: C_24  and  C_25
   10  A    between atoms: C_25  and  C_26
   11  A    between atoms: C_25  and  N_33
   12  A    between atoms: C_26  and  C_27
   13  A    between atoms: C_34  and  C_36
   14  A    between atoms: C_36  and  C_37
   15  A    between atoms: C_36  and  N_40
                            x       y       z     vdW  Elec       q    Type
                         _______ _______ _______ _____ _____    ______ ____

>  <TORSDO>
F 15

$$$$
