=
 OpenBabel03202017443D

 21 22  0  0  1  0  0  0  0  0999 V2000
  -10.7910   14.2630   68.3620 C   0  0  1  0  0  0  0  0  0  0  0  0
  -11.4490   15.0260   69.3800 C   0  0  0  0  0  0  0  0  0  0  0  0
  -11.4530   16.2690   69.2120 O   0  0  0  0  0  0  0  0  0  0  0  0
  -12.0790   14.4740   70.5790 C   0  0  0  0  0  0  0  0  0  0  0  0
  -12.3690   13.1330   70.5640 C   0  0  0  0  0  0  0  0  0  0  0  0
  -13.2230   12.6320   71.5230 C   0  0  0  0  0  0  0  0  0  0  0  0
  -13.7880   13.5170   72.4210 C   0  0  0  0  0  0  0  0  0  0  0  0
  -13.5500   14.8840   72.3760 C   0  0  0  0  0  0  0  0  0  0  0  0
  -13.0740   11.2790   71.8500 O   0  0  0  0  0  0  0  0  0  0  0  0
  -11.7020   12.3200   69.5610 C   0  0  0  0  0  0  0  0  0  0  0  0
  -11.9850   11.0880   69.5620 O   0  0  0  0  0  0  0  0  0  0  0  0
  -12.5570   15.3450   71.5260 C   0  0  0  0  0  0  0  0  0  0  0  0
  -11.8780   16.5300   71.7120 O   0  0  0  0  0  0  0  0  0  0  0  0
  -10.8290   12.9390   68.5570 C   0  0  0  0  0  0  0  0  0  0  0  0
  -11.0890   14.6370   66.8090 C   0  0  2  0  0  0  0  0  0  0  0  0
  -12.3670   13.8070   66.8040 O   0  0  0  0  0  0  0  0  0  0  0  0
  -10.2290   13.3900   66.1470 C   0  0  0  0  0  0  0  0  0  0  0  0
   -9.9660   11.6400   63.1670 C   0  0  0  0  0  0  0  0  0  0  0  0
  -10.9260   12.3380   63.9920 C   0  0  0  0  0  0  0  0  0  0  0  0
  -10.6710   13.3690   64.7570 C   0  0  0  0  0  0  0  0  0  0  0  0
  -12.3440   12.2600   63.5020 C   0  0  0  0  0  0  0  0  0  0  0  0
  1 15  1  6  0  0  0
  1 14  1  0  0  0  0
  1  2  1  0  0  0  0
  2  4  1  0  0  0  0
  3  2  2  0  0  0  0
  4 12  1  0  0  0  0
  5  4  2  0  0  0  0
  5  6  1  0  0  0  0
  6  9  1  0  0  0  0
  6  7  2  0  0  0  0
  8  7  1  0  0  0  0
 10 11  2  0  0  0  0
 10  5  1  0  0  0  0
 12 13  1  0  0  0  0
 12  8  2  0  0  0  0
 14 10  1  0  0  0  0
 15 16  1  1  0  0  0
 17 15  1  0  0  0  0
 18 19  1  0  0  0  0
 19 20  1  0  0  0  0
 20 17  1  0  0  0  0
 21 19  1  0  0  0  0
M  END
>  <MODEL>
1

>  <REMARK>
 VINA RESULT:      -7.1      0.000      0.000
  Name = 
  3 active torsions:
  status: ('A' for Active; 'I' for Inactive)
    1  A    between atoms: C_4  and  C_5
    2  A    between atoms: C_5  and  C_6
    3  A    between atoms: C_6  and  C_8
                            x       y       z     vdW  Elec       q    Type
                         _______ _______ _______ _____ _____    ______ ____

>  <TORSDO>
F 3

$$$$
