=
 OpenBabel03202017443D

 18 18  0  0  0  0  0  0  0  0999 V2000
   -8.5630   15.9220   66.1250 N   0  0  0  0  0  0  0  0  0  0  0  0
   -9.9610   15.7700   66.0200 C   0  0  0  0  0  0  0  0  0  0  0  0
  -10.5960   14.8290   65.1530 N   0  0  0  0  0  0  0  0  0  0  0  0
  -11.6020   15.3130   64.3920 C   0  0  0  0  0  0  0  0  0  0  0  0
  -11.6130   16.5020   63.9580 O   0  0  0  0  0  0  0  0  0  0  0  0
  -12.4430   14.4340   63.8250 N   0  0  0  0  0  0  0  0  0  0  0  0
  -12.1960   13.1020   63.8010 C   0  0  0  0  0  0  0  0  0  0  0  0
  -13.2280   12.1620   63.7180 O   0  0  0  0  0  0  0  0  0  0  0  0
  -10.9770   12.6770   64.3140 C   0  0  0  0  0  0  0  0  0  0  0  0
  -10.5050   11.4830   63.8530 F   0  0  0  0  0  0  0  0  0  0  0  0
  -10.1830   13.5480   65.0450 C   0  0  0  0  0  0  0  0  0  0  0  0
  -10.6750   16.4140   66.8340 O   0  0  0  0  0  0  0  0  0  0  0  0
   -8.0230   17.2220   66.4530 C   0  0  0  0  0  0  0  0  0  0  0  0
   -7.7680   17.3780   67.9360 C   0  0  0  0  0  0  0  0  0  0  0  0
   -7.9580   18.7930   68.4150 C   0  0  0  0  0  0  0  0  0  0  0  0
   -9.4480   19.1000   68.4340 C   0  0  0  0  0  0  0  0  0  0  0  0
  -10.5230   19.8410   66.3160 C   0  0  0  0  0  0  0  0  0  0  0  0
   -9.7130   20.2790   67.5080 C   0  0  0  0  0  0  0  0  0  0  0  0
  1 13  1  0  0  0  0
  2  1  1  0  0  0  0
  2 12  2  0  0  0  0
  3  2  1  0  0  0  0
  4  3  1  0  0  0  0
  5  4  2  0  0  0  0
  6  4  1  0  0  0  0
  7  6  1  0  0  0  0
  7  9  1  0  0  0  0
  8  7  2  0  0  0  0
  9 11  2  0  0  0  0
 10  9  1  0  0  0  0
 11  3  1  0  0  0  0
 13 14  1  0  0  0  0
 14 15  1  0  0  0  0
 15 16  1  0  0  0  0
 17 18  1  0  0  0  0
 18 16  1  0  0  0  0
M  END
>  <MODEL>
1

>  <REMARK>
 VINA RESULT:      -6.3      0.000      0.000
  Name = 
  5 active torsions:
  status: ('A' for Active; 'I' for Inactive)
    1  A    between atoms: C_2  and  C_3
    2  A    between atoms: C_3  and  C_4
    3  A    between atoms: C_4  and  C_5
    4  A    between atoms: C_5  and  C_6
    5  A    between atoms: C_6  and  N_7
                            x       y       z     vdW  Elec       q    Type
                         _______ _______ _______ _____ _____    ______ ____

>  <TORSDO>
F 5

$$$$
