=
 OpenBabel03202017443D

 24 27  0  0  0  0  0  0  0  0999 V2000
  -10.9350   15.0200   64.6520 O   0  0  0  0  0  0  0  0  0  0  0  0
  -10.8380   14.8490   65.9060 C   0  0  0  0  0  0  0  0  0  0  0  0
   -9.8630   15.3070   66.7310 N   0  0  0  0  0  0  0  0  0  0  0  0
   -9.8470   14.6330   67.8880 C   0  0  0  0  0  0  0  0  0  0  0  0
   -8.7780   14.3510   68.5120 O   0  0  0  0  0  0  0  0  0  0  0  0
  -11.0790   14.5820   68.4520 N   0  0  0  0  0  0  0  0  0  0  0  0
  -12.0350   14.4040   67.0600 S   0  0  0  0  0  0  0  0  0  0  0  0
  -11.4250   14.4900   69.8390 C   0  0  0  0  0  0  0  0  0  0  0  0
  -11.9230   13.2650   70.2670 C   0  0  0  0  0  0  0  0  0  0  0  0
  -12.9300   13.1800   71.2230 C   0  0  0  0  0  0  0  0  0  0  0  0
  -13.2510   11.9430   71.7670 C   0  0  0  0  0  0  0  0  0  0  0  0
  -12.4910   10.8380   71.4030 C   0  0  0  0  0  0  0  0  0  0  0  0
  -11.8160   10.9180   70.1980 C   0  0  0  0  0  0  0  0  0  0  0  0
  -13.4800   14.3110   71.7570 C   0  0  0  0  0  0  0  0  0  0  0  0
  -13.0410   15.5330   71.3260 C   0  0  0  0  0  0  0  0  0  0  0  0
  -11.7500   12.1190   69.5000 C   0  0  0  0  0  0  0  0  0  0  0  0
  -11.9520   15.6050   70.4660 C   0  0  0  0  0  0  0  0  0  0  0  0
   -8.8040   16.1760   66.2200 C   0  0  0  0  0  0  0  0  0  0  0  0
   -8.9830   17.5870   66.6790 C   0  0  0  0  0  0  0  0  0  0  0  0
  -10.2430   18.1250   66.4410 C   0  0  0  0  0  0  0  0  0  0  0  0
  -10.7700   19.1370   67.2020 C   0  0  0  0  0  0  0  0  0  0  0  0
  -10.0180   19.7170   68.1950 C   0  0  0  0  0  0  0  0  0  0  0  0
   -8.8150   19.1040   68.5220 C   0  0  0  0  0  0  0  0  0  0  0  0
   -8.4470   17.9060   67.9220 C   0  0  0  0  0  0  0  0  0  0  0  0
  1  2  2  0  0  0  0
  2  3  1  0  0  0  0
  2  7  1  0  0  0  0
  3  4  1  0  0  0  0
  4  6  1  0  0  0  0
  4  5  2  0  0  0  0
  6  8  1  0  0  0  0
  7  6  1  0  0  0  0
  8  9  2  0  0  0  0
  8 17  1  0  0  0  0
  9 10  1  0  0  0  0
 10 14  2  0  0  0  0
 10 11  1  0  0  0  0
 12 11  2  0  0  0  0
 13 12  1  0  0  0  0
 15 14  1  0  0  0  0
 16 13  2  0  0  0  0
 16  9  1  0  0  0  0
 17 15  2  0  0  0  0
 18 19  1  0  0  0  0
 18  3  1  0  0  0  0
 19 24  1  0  0  0  0
 20 19  2  0  0  0  0
 20 21  1  0  0  0  0
 21 22  2  0  0  0  0
 22 23  1  0  0  0  0
 24 23  2  0  0  0  0
M  END
>  <MODEL>
1

>  <REMARK>
 VINA RESULT:      -7.4      0.000      0.000
  Name = 
  3 active torsions:
  status: ('A' for Active; 'I' for Inactive)
    1  A    between atoms: N_4  and  C_5
    2  A    between atoms: N_17  and  C_18
    3  A    between atoms: C_18  and  C_19
                            x       y       z     vdW  Elec       q    Type
                         _______ _______ _______ _____ _____    ______ ____

>  <TORSDO>
F 3

$$$$
