=
 OpenBabel03202017443D

 24 25  0  0  0  0  0  0  0  0999 V2000
  -11.2910   15.0730   67.6110 C   0  0  0  0  0  0  0  0  0  0  0  0
  -11.6120   14.1300   66.6630 C   0  0  0  0  0  0  0  0  0  0  0  0
  -11.3770   14.4200   65.3410 C   0  0  0  0  0  0  0  0  0  0  0  0
  -10.6680   15.5570   65.0160 C   0  0  0  0  0  0  0  0  0  0  0  0
  -10.1470   16.3680   66.0040 C   0  0  0  0  0  0  0  0  0  0  0  0
  -10.5910   16.2310   67.2920 C   0  0  0  0  0  0  0  0  0  0  0  0
  -11.9050   12.8240   67.1120 N   0  0  0  0  0  0  0  0  0  0  0  0
  -10.9020   11.9280   67.5850 C   0  0  0  0  0  0  0  0  0  0  0  0
   -9.7130   12.1190   67.2360 O   0  0  0  0  0  0  0  0  0  0  0  0
  -11.2120   10.8070   68.4560 C   0  0  0  0  0  0  0  0  0  0  0  0
  -11.9860   10.9570   69.5130 C   0  0  0  0  0  0  0  0  0  0  0  0
  -11.8180   10.1210   70.7020 C   0  0  0  0  0  0  0  0  0  0  0  0
  -10.6240    9.4500   70.9070 C   0  0  0  0  0  0  0  0  0  0  0  0
  -10.5040    8.4920   71.8880 C   0  0  0  0  0  0  0  0  0  0  0  0
  -11.6350    8.0180   72.5150 C   0  0  0  0  0  0  0  0  0  0  0  0
  -12.8480    8.6440   72.2630 C   0  0  0  0  0  0  0  0  0  0  0  0
  -12.9130    9.7600   71.4730 C   0  0  0  0  0  0  0  0  0  0  0  0
  -12.1500   15.0490   69.1850 S   0  0  0  0  0  0  0  0  0  0  0  0
  -11.1200   15.8530   70.4290 C   0  0  0  0  0  0  0  0  0  0  0  0
  -11.8630   16.1040   71.7140 C   0  0  0  0  0  0  0  0  0  0  0  0
  -13.2790   15.5970   71.6870 C   0  0  0  0  0  0  0  0  0  0  0  0
  -13.5580   13.3340   72.3990 C   0  0  0  0  0  0  0  0  0  0  0  0
  -13.6030   14.7390   72.7950 N   0  0  0  0  0  0  0  0  0  0  0  0
  -12.5460   14.9050   73.7890 C   0  0  0  0  0  0  0  0  0  0  0  0
  1 18  1  0  0  0  0
  2  7  1  0  0  0  0
  2  1  2  0  0  0  0
  3  2  1  0  0  0  0
  4  3  2  0  0  0  0
  4  5  1  0  0  0  0
  5  6  2  0  0  0  0
  6  1  1  0  0  0  0
  7  8  1  0  0  0  0
  8 10  1  0  0  0  0
  9  8  2  0  0  0  0
 10 11  1  0  0  0  0
 11 12  1  0  0  0  0
 12 13  2  0  0  0  0
 12 17  1  0  0  0  0
 13 14  1  0  0  0  0
 14 15  2  0  0  0  0
 16 15  1  0  0  0  0
 17 16  2  0  0  0  0
 18 19  1  0  0  0  0
 19 20  1  0  0  0  0
 21 20  1  0  0  0  0
 21 23  1  0  0  0  0
 22 23  1  0  0  0  0
 23 24  1  0  0  0  0
M  END
>  <MODEL>
1

>  <REMARK>
 VINA RESULT:      -6.5      0.000      0.000
  Name = 
  8 active torsions:
  status: ('A' for Active; 'I' for Inactive)
    1  A    between atoms: N_2  and  C_4
    2  A    between atoms: C_4  and  C_5
    3  A    between atoms: C_5  and  C_6
    4  A    between atoms: C_6  and  S_7
    5  A    between atoms: S_7  and  C_8
    6  A    between atoms: C_13  and  N_14
    7  A    between atoms: C_15  and  C_17
    8  A    between atoms: C_18  and  C_19
                            x       y       z     vdW  Elec       q    Type
                         _______ _______ _______ _____ _____    ______ ____

>  <TORSDO>
F 8

$$$$
