@<TRIPOS>MOLECULE
=
 41 42 0 0 0
SMALL
GASTEIGER

@<TRIPOS>ATOM
      1  C        -10.7910   14.2630   68.3620 C.3     1  UNL1        0.0551
      2  C        -11.4490   15.0260   69.3800 C.2     1  UNL1        0.1734
      3  O        -11.4530   16.2690   69.2120 O.2     1  UNL1       -0.2915
      4  C        -12.0790   14.4740   70.5790 C.ar    1  UNL1        0.0731
      5  C        -12.3690   13.1330   70.5640 C.ar    1  UNL1        0.0727
      6  C        -13.2230   12.6320   71.5230 C.ar    1  UNL1        0.1282
      7  C        -13.7880   13.5170   72.4210 C.ar    1  UNL1       -0.0160
      8  C        -13.5500   14.8840   72.3760 C.ar    1  UNL1       -0.0160
      9  O        -13.0740   11.2790   71.8500 O.3     1  UNL1       -0.5060
     10  C        -11.7020   12.3200   69.5610 C.2     1  UNL1        0.1682
     11  O        -11.9850   11.0880   69.5620 O.2     1  UNL1       -0.2919
     12  C        -12.5570   15.3450   71.5260 C.ar    1  UNL1        0.1282
     13  O        -11.8780   16.5300   71.7120 O.3     1  UNL1       -0.5060
     14  C        -10.8290   12.9390   68.5570 C.3     1  UNL1        0.0228
     15  C        -11.0890   14.6370   66.8090 C.3     1  UNL1        0.0655
     16  O        -12.3670   13.8070   66.8040 O.3     1  UNL1       -0.3911
     17  C        -10.2290   13.3900   66.1470 C.3     1  UNL1       -0.0259
     18  C         -9.9660   11.6400   63.1670 C.3     1  UNL1       -0.0627
     19  C        -10.9260   12.3380   63.9920 C.3     1  UNL1       -0.0466
     20  C        -10.6710   13.3690   64.7570 C.3     1  UNL1       -0.0484
     21  C        -12.3440   12.2600   63.5020 C.3     1  UNL1       -0.0627
     22 H          -9.7868   14.6012   68.5106 H       1  UNL1        0.0410
     23 H         -14.4121   13.1469   73.1548 H       1  UNL1        0.0655
     24 H         -14.0964   15.5377   72.9583 H       1  UNL1        0.0655
     25 H         -12.6895   10.6876   71.2333 H       1  UNL1        0.2922
     26 H         -11.2152   16.7907   71.1032 H       1  UNL1        0.2922
     27 H          -9.8311   12.6457   68.8079 H       1  UNL1        0.0353
     28 H         -11.2623   12.5923   67.6421 H       1  UNL1        0.0353
     29 H         -11.0004   15.6400   66.4469 H       1  UNL1        0.0600
     30 H         -12.1865   12.9332   67.1846 H       1  UNL1        0.2098
     31 H          -9.1771   13.5751   66.2107 H       1  UNL1        0.0290
     32 H         -10.3920   12.4595   66.6494 H       1  UNL1        0.0290
     33 H         -10.4541   10.8394   62.6516 H       1  UNL1        0.0232
     34 H          -9.1865   11.2443   63.7840 H       1  UNL1        0.0232
     35 H          -9.5468   12.3197   62.4548 H       1  UNL1        0.0232
     36 H         -10.7048   11.6794   64.8058 H       1  UNL1        0.0295
     37 H         -11.5810   13.9319   64.7580 H       1  UNL1        0.0269
     38 H          -9.7530   13.6748   64.3002 H       1  UNL1        0.0269
     39 H         -12.4799   12.9463   62.6924 H       1  UNL1        0.0232
     40 H         -13.0113   12.5124   64.2994 H       1  UNL1        0.0232
     41 H         -12.5508   11.2657   63.1652 H       1  UNL1        0.0232
@<TRIPOS>BOND
     1    18    19    1
     2    21    19    1
     3    19    20    1
     4    20    17    1
     5    17    15    1
     6    16    15    1
     7    15     1    1
     8     1    14    1
     9     1     2    1
    10    14    10    1
    11     3     2    2
    12     2     4    1
    13    10    11    2
    14    10     5    1
    15     5     4   ar
    16     5     6   ar
    17     4    12   ar
    18     6     9    1
    19     6     7   ar
    20    12    13    1
    21    12     8   ar
    22     8     7   ar
    23     1    22    1
    24     7    23    1
    25     8    24    1
    26     9    25    1
    27    13    26    1
    28    14    27    1
    29    14    28    1
    30    15    29    1
    31    16    30    1
    32    17    31    1
    33    17    32    1
    34    18    33    1
    35    18    34    1
    36    18    35    1
    37    19    36    1
    38    20    37    1
    39    20    38    1
    40    21    39    1
    41    21    40    1
    42    21    41    1
