@<TRIPOS>MOLECULE
=
 94 97 0 0 0
SMALL
GASTEIGER

@<TRIPOS>ATOM
      1  C         -9.2290   10.0110   69.2980 C.3     1  UNL1        0.0755
      2  O         -8.7830    9.5050   67.9480 O.3     1  UNL1       -0.3899
      3  C         -9.8290    8.4520   69.7050 C.3     1  UNL1        0.0531
      4  C         -8.3090    6.5090   69.9530 C.2     1  UNL1        0.2510
      5  N         -8.3750    7.9120   69.8710 N.am    1  UNL1       -0.3069
      6  O         -9.0350    5.8410   69.1790 O.2     1  UNL1       -0.2721
      7  C         -7.1300    5.8180   70.5530 C.3     1  UNL1        0.1652
      8  O         -7.5210    5.0410   71.6510 O.3     1  UNL1       -0.4822
      9  C         -6.7450    6.8270   73.5940 C.3     1  UNL1       -0.0362
     10  C         -7.9380    6.4110   73.5770 C.ar    1  UNL1       -0.0085
     11  C         -8.3930    5.4780   72.6510 C.ar    1  UNL1        0.1270
     12  C         -9.6260    4.8520   72.7940 C.ar    1  UNL1       -0.0085
     13  C         -9.9960    3.6630   72.0240 C.3     1  UNL1       -0.0362
     14  C        -10.4680    5.2210   73.8280 C.ar    1  UNL1       -0.0554
     15  C        -10.1460    6.3320   74.5850 C.ar    1  UNL1       -0.0610
     16  C         -8.9260    6.9530   74.3920 C.ar    1  UNL1       -0.0554
     17  C        -10.0140    8.7280   71.2930 C.3     1  UNL1       -0.0068
     18  C        -11.3160    8.3390   71.7760 C.ar    1  UNL1       -0.0455
     19  C        -12.2680    9.3370   71.9890 C.ar    1  UNL1       -0.0585
     20  C        -13.5790    9.0110   72.3200 C.ar    1  UNL1       -0.0615
     21  C        -14.0450    7.7950   71.8480 C.ar    1  UNL1       -0.0617
     22  C        -13.2200    6.9970   71.0660 C.ar    1  UNL1       -0.0615
     23  C        -11.8560    7.1970   71.1890 C.ar    1  UNL1       -0.0585
     24  C        -10.7370   10.4690   68.8880 C.3     1  UNL1       -0.0063
     25  C        -10.7770   12.0880   69.0620 C.3     1  UNL1        0.0295
     26  N        -11.5030   12.2720   67.6780 N.am    1  UNL1       -0.3105
     27  C        -10.8000   13.0460   66.7670 C.2     1  UNL1        0.2341
     28  O         -9.6020   12.9150   66.5900 O.2     1  UNL1       -0.2738
     29  C        -11.6600   13.9900   65.7880 C.3     1  UNL1        0.1059
     30  N        -10.6030   15.1480   65.8890 N.am    1  UNL1       -0.2738
     31  C        -10.8040   16.3490   65.2370 C.2     1  UNL1        0.3028
     32  O        -11.2310   16.2560   64.0680 O.2     1  UNL1       -0.2526
     33  N        -10.1820   17.5180   65.7780 N.am    1  UNL1       -0.2992
     34  C        -10.3230   17.6760   67.2230 C.3     1  UNL1        0.0145
     35  C        -10.6750   16.3930   67.9180 C.3     1  UNL1       -0.0214
     36  C        -10.0560   15.1780   67.2440 C.3     1  UNL1        0.0183
     37  C        -11.0620   13.2900   64.4230 C.3     1  UNL1       -0.0195
     38  C        -12.2820   13.4490   63.5150 C.3     1  UNL1       -0.0605
     39  C        -10.9510   11.8210   64.7160 C.3     1  UNL1       -0.0605
     40  C        -12.1560   12.0250   69.9330 C.3     1  UNL1       -0.0091
     41  C        -12.3690   13.2360   70.6800 C.ar    1  UNL1       -0.0456
     42  C        -13.1500   12.9980   71.8120 C.ar    1  UNL1       -0.0585
     43  C        -13.6590   14.0180   72.5670 C.ar    1  UNL1       -0.0615
     44  C        -13.3850   15.3400   72.2530 C.ar    1  UNL1       -0.0617
     45  C        -12.7520   15.6090   71.0470 C.ar    1  UNL1       -0.0615
     46  C        -12.4090   14.5390   70.2720 C.ar    1  UNL1       -0.0585
     47 H          -8.5924   10.6355   69.8892 H       1  UNL1        0.0612
     48 H          -9.4839    8.9581   67.5600 H       1  UNL1        0.2099
     49 H         -10.6011    7.9686   69.1437 H       1  UNL1        0.0527
     50 H          -7.5827    8.4947   69.9141 H       1  UNL1        0.1492
     51 H          -6.4196    6.5503   70.8754 H       1  UNL1        0.0795
     52 H          -6.6926    5.1781   69.8154 H       1  UNL1        0.0795
     53 H          -6.1627    6.2692   72.8907 H       1  UNL1        0.0279
     54 H          -6.3370    6.7002   74.5750 H       1  UNL1        0.0279
     55 H          -6.7251    7.8639   73.3307 H       1  UNL1        0.0279
     56 H          -9.2658    3.4907   71.2611 H       1  UNL1        0.0279
     57 H         -10.9544    3.8142   71.5728 H       1  UNL1        0.0279
     58 H         -10.0382    2.8151   72.6754 H       1  UNL1        0.0279
     59 H         -11.3211    4.6767   74.0305 H       1  UNL1        0.0621
     60 H         -10.8098    6.6943   75.2873 H       1  UNL1        0.0618
     61 H          -8.7422    7.8495   74.8690 H       1  UNL1        0.0621
     62 H          -9.8785    9.7733   71.4771 H       1  UNL1        0.0332
     63 H          -9.2869    8.1383   71.8111 H       1  UNL1        0.0332
     64 H         -11.9961   10.3285   71.8999 H       1  UNL1        0.0620
     65 H         -14.1710    9.6395   72.8853 H       1  UNL1        0.0618
     66 H         -15.0018    7.4831   72.0766 H       1  UNL1        0.0618
     67 H         -13.6060    6.2879   70.4232 H       1  UNL1        0.0618
     68 H         -11.2142    6.4720   70.8320 H       1  UNL1        0.0620
     69 H         -10.9449   10.1988   67.8738 H       1  UNL1        0.0309
     70 H         -11.4723    9.9906   69.5007 H       1  UNL1        0.0309
     71 H          -9.9402   12.6858   69.3576 H       1  UNL1        0.0502
     72 H         -12.3799   11.8724   67.4764 H       1  UNL1        0.1490
     73 H         -12.7090   14.1735   65.8924 H       1  UNL1        0.0600
     74 H          -9.6960   18.1665   65.2190 H       1  UNL1        0.1502
     75 H         -11.0952   18.3914   67.4147 H       1  UNL1        0.0463
     76 H          -9.3774   17.9998   67.6049 H       1  UNL1        0.0463
     77 H         -11.7392   16.2820   67.9156 H       1  UNL1        0.0295
     78 H         -10.2877   16.4454   68.9141 H       1  UNL1        0.0295
     79 H          -8.9906   15.2723   67.2130 H       1  UNL1        0.0466
     80 H         -10.2789   14.2775   67.7771 H       1  UNL1        0.0466
     81 H         -10.1332   13.6735   64.0554 H       1  UNL1        0.0318
     82 H         -13.1408   13.0279   63.9946 H       1  UNL1        0.0233
     83 H         -12.1061   12.9422   62.5892 H       1  UNL1        0.0233
     84 H         -12.4528   14.4882   63.3258 H       1  UNL1        0.0233
     85 H         -11.8889   11.4584   65.0817 H       1  UNL1        0.0233
     86 H         -10.1940   11.6609   65.4551 H       1  UNL1        0.0233
     87 H         -10.6910   11.2972   63.8199 H       1  UNL1        0.0233
     88 H         -12.0982   11.2025   70.6149 H       1  UNL1        0.0331
     89 H         -12.9741   11.9034   69.2542 H       1  UNL1        0.0331
     90 H         -13.3491   12.0235   72.0872 H       1  UNL1        0.0620
     91 H         -14.2549   13.8008   73.3811 H       1  UNL1        0.0618
     92 H         -13.6443   16.1030   72.8977 H       1  UNL1        0.0618
     93 H         -12.5495   16.5762   70.7493 H       1  UNL1        0.0618
     94 H         -12.1574   14.7317   69.2899 H       1  UNL1        0.0620
@<TRIPOS>BOND
     1    38    37    1
     2    32    31    2
     3    37    39    1
     4    37    29    1
     5    31    33   am
     6    31    30   am
     7    33    34    1
     8    29    30    1
     9    29    27    1
    10    30    36    1
    11    28    27    2
    12    27    26   am
    13    34    35    1
    14    36    35    1
    15    26    25    1
    16     2     1    1
    17    24    25    1
    18    24     1    1
    19    25    40    1
    20     6     4    2
    21     1     3    1
    22     3     5    1
    23     3    17    1
    24     5     4   am
    25    40    41    1
    26     4     7    1
    27    46    41   ar
    28    46    45   ar
    29     7     8    1
    30    41    42   ar
    31    45    44   ar
    32    22    23   ar
    33    22    21   ar
    34    23    18   ar
    35    17    18    1
    36     8    11    1
    37    18    19   ar
    38    42    43   ar
    39    21    20   ar
    40    19    20   ar
    41    13    12    1
    42    44    43   ar
    43    11    12   ar
    44    11    10   ar
    45    12    14   ar
    46    10     9    1
    47    10    16   ar
    48    14    15   ar
    49    16    15   ar
    50     1    47    1
    51     2    48    1
    52     3    49    1
    53     5    50    1
    54     7    51    1
    55     7    52    1
    56     9    53    1
    57     9    54    1
    58     9    55    1
    59    13    56    1
    60    13    57    1
    61    13    58    1
    62    14    59    1
    63    15    60    1
    64    16    61    1
    65    17    62    1
    66    17    63    1
    67    19    64    1
    68    20    65    1
    69    21    66    1
    70    22    67    1
    71    23    68    1
    72    24    69    1
    73    24    70    1
    74    25    71    1
    75    26    72    1
    76    29    73    1
    77    33    74    1
    78    34    75    1
    79    34    76    1
    80    35    77    1
    81    35    78    1
    82    36    79    1
    83    36    80    1
    84    37    81    1
    85    38    82    1
    86    38    83    1
    87    38    84    1
    88    39    85    1
    89    39    86    1
    90    39    87    1
    91    40    88    1
    92    40    89    1
    93    42    90    1
    94    43    91    1
    95    44    92    1
    96    45    93    1
    97    46    94    1
