@<TRIPOS>MOLECULE
=
 51 52 0 0 0
SMALL
GASTEIGER

@<TRIPOS>ATOM
      1  C        -11.2910   15.0730   67.6110 C.ar    1  UNL1        0.0291
      2  C        -11.6120   14.1300   66.6630 C.ar    1  UNL1        0.0469
      3  C        -11.3770   14.4200   65.3410 C.ar    1  UNL1       -0.0394
      4  C        -10.6680   15.5570   65.0160 C.ar    1  UNL1       -0.0599
      5  C        -10.1470   16.3680   66.0040 C.ar    1  UNL1       -0.0606
      6  C        -10.5910   16.2310   67.2920 C.ar    1  UNL1       -0.0465
      7  N        -11.9050   12.8240   67.1120 N.am    1  UNL1       -0.2846
      8  C        -10.9020   11.9280   67.5850 C.2     1  UNL1        0.2175
      9  O         -9.7130   12.1190   67.2360 O.2     1  UNL1       -0.2755
     10  C        -11.2120   10.8070   68.4560 C.3     1  UNL1        0.0282
     11  C        -11.9860   10.9570   69.5130 C.3     1  UNL1       -0.0194
     12  C        -11.8180   10.1210   70.7020 C.ar    1  UNL1       -0.0469
     13  C        -10.6240    9.4500   70.9070 C.ar    1  UNL1       -0.0586
     14  C        -10.5040    8.4920   71.8880 C.ar    1  UNL1       -0.0615
     15  C        -11.6350    8.0180   72.5150 C.ar    1  UNL1       -0.0617
     16  C        -12.8480    8.6440   72.2630 C.ar    1  UNL1       -0.0615
     17  C        -12.9130    9.7600   71.4730 C.ar    1  UNL1       -0.0586
     18  S        -12.1500   15.0490   69.1850 S.3     1  UNL1       -0.1232
     19  C        -11.1200   15.8530   70.4290 C.3     1  UNL1        0.0032
     20  C        -11.8630   16.1040   71.7140 C.3     1  UNL1       -0.0032
     21  C        -13.2790   15.5970   71.6870 C.3     1  UNL1       -0.0316
     22  C        -13.5580   13.3340   72.3990 C.3     1  UNL1       -0.0433
     23  N        -13.6030   14.7390   72.7950 N.4     1  UNL1        0.2309
     24  C        -12.5460   14.9050   73.7890 C.3     1  UNL1       -0.0433
     25 H         -11.7273   13.7938   64.5993 H       1  UNL1        0.0636
     26 H         -10.5254   15.8041   64.0242 H       1  UNL1        0.0618
     27 H          -9.4285   17.0721   65.7737 H       1  UNL1        0.0618
     28 H         -10.4126   16.9605   67.9999 H       1  UNL1        0.0629
     29 H         -12.8410   12.5193   67.0979 H       1  UNL1        0.1548
     30 H         -10.2757   10.4347   68.8161 H       1  UNL1        0.0362
     31 H         -11.8008   10.1761   67.8234 H       1  UNL1        0.0362
     32 H         -12.9906   10.8069   69.1766 H       1  UNL1        0.0318
     33 H         -11.7074   11.9267   69.8694 H       1  UNL1        0.0318
     34 H          -9.8095    9.6723   70.3135 H       1  UNL1        0.0620
     35 H          -9.5736    8.1316   72.1517 H       1  UNL1        0.0618
     36 H         -11.5817    7.2136   73.1592 H       1  UNL1        0.0618
     37 H         -13.7130    8.2627   72.6770 H       1  UNL1        0.0618
     38 H         -13.7729   10.3302   71.4512 H       1  UNL1        0.0620
     39 H         -10.7798   16.7900   70.0401 H       1  UNL1        0.0382
     40 H         -10.3018   15.1990   70.6475 H       1  UNL1        0.0382
     41 H         -11.8824   17.1583   71.8955 H       1  UNL1        0.0325
     42 H         -11.3492   15.5730   72.4879 H       1  UNL1        0.0325
     43 H         -13.4250   15.0484   70.7800 H       1  UNL1        0.0814
     44 H         -13.9202   16.4511   71.7527 H       1  UNL1        0.0814
     45 H         -14.3144   13.1456   71.6660 H       1  UNL1        0.0777
     46 H         -13.7297   12.7163   73.2557 H       1  UNL1        0.0777
     47 H         -12.5969   13.1107   71.9852 H       1  UNL1        0.0777
     48 H         -14.5335   14.9782   73.1377 H       1  UNL1        0.2028
     49 H         -11.6047   14.6361   73.3570 H       1  UNL1        0.0777
     50 H         -12.7454   14.2747   74.6303 H       1  UNL1        0.0777
     51 H         -12.5134   15.9259   74.1079 H       1  UNL1        0.0777
@<TRIPOS>BOND
     1     4     3   ar
     2     4     5   ar
     3     3     2   ar
     4     5     6   ar
     5     2     7    1
     6     2     1   ar
     7     7     8   am
     8     9     8    2
     9     6     1   ar
    10     8    10    1
    11     1    18    1
    12    10    11    1
    13    18    19    1
    14    11    12    1
    15    19    20    1
    16    12    13   ar
    17    12    17   ar
    18    13    14   ar
    19    17    16   ar
    20    21    20    1
    21    21    23    1
    22    14    15   ar
    23    16    15   ar
    24    22    23    1
    25    23    24    1
    26     3    25    1
    27     4    26    1
    28     5    27    1
    29     6    28    1
    30     7    29    1
    31    10    30    1
    32    10    31    1
    33    11    32    1
    34    11    33    1
    35    13    34    1
    36    14    35    1
    37    15    36    1
    38    16    37    1
    39    17    38    1
    40    19    39    1
    41    19    40    1
    42    20    41    1
    43    20    42    1
    44    21    43    1
    45    21    44    1
    46    22    45    1
    47    22    46    1
    48    22    47    1
    49    23    48    1
    50    24    49    1
    51    24    50    1
    52    24    51    1
