@<TRIPOS>MOLECULE
UNL
94 97 1 0 1
SMALL
USER_CHARGES
@<TRIPOS>ATOM
       1 C           -9.2290    10.0110    69.2980 c3            1 UNL        0.135075
       2 O           -8.7830     9.5050    67.9480 oh            1 UNL       -0.616789
       3 C1          -9.8290     8.4520    69.7050 c3            1 UNL        0.073711
       4 C2          -8.3090     6.5090    69.9530 c             1 UNL        0.638111
       5 N           -8.3750     7.9120    69.8710 n             1 UNL       -0.541889
       6 O1          -9.0350     5.8410    69.1790 o             1 UNL       -0.633089
       7 C3          -7.1300     5.8180    70.5530 c3            1 UNL        0.059411
       8 O2          -7.5210     5.0410    71.6510 os            1 UNL       -0.343889
       9 C4          -6.7450     6.8270    73.5940 c3            1 UNL       -0.060289
      10 C5          -7.9380     6.4110    73.5770 ca            1 UNL       -0.083289
      11 C6          -8.3930     5.4780    72.6510 ca            1 UNL        0.086111
      12 C7          -9.6260     4.8520    72.7940 ca            1 UNL       -0.083289
      13 C8          -9.9960     3.6630    72.0240 c3            1 UNL       -0.060289
      14 C9         -10.4680     5.2210    73.8280 ca            1 UNL       -0.124989
      15 C10        -10.1460     6.3320    74.5850 ca            1 UNL       -0.129989
      16 C11         -8.9260     6.9530    74.3920 ca            1 UNL       -0.124989
      17 C12        -10.0140     8.7280    71.2930 c3            1 UNL       -0.046089
      18 C13        -11.3160     8.3390    71.7760 ca            1 UNL       -0.087289
      19 C14        -12.2680     9.3370    71.9890 ca            1 UNL       -0.130489
      20 C15        -13.5790     9.0110    72.3200 ca            1 UNL       -0.130989
      21 C16        -14.0450     7.7950    71.8480 ca            1 UNL       -0.132989
      22 C17        -13.2200     6.9970    71.0660 ca            1 UNL       -0.130989
      23 C18        -11.8560     7.1970    71.1890 ca            1 UNL       -0.130489
      24 C19        -10.7370    10.4690    68.8880 c3            1 UNL       -0.129389
      25 C20        -10.7770    12.0880    69.0620 c3            1 UNL        0.106711
      26 N1         -11.5030    12.2720    67.6780 n             1 UNL       -0.559889
      27 C21        -10.8000    13.0460    66.7670 c             1 UNL        0.666111
      28 O3          -9.6020    12.9150    66.5900 o             1 UNL       -0.641089
      29 C22        -11.6600    13.9900    65.7880 c3            1 UNL        0.051711
      30 N2         -10.6030    15.1480    65.8890 n             1 UNL       -0.456789
      31 C23        -10.8040    16.3490    65.2370 c             1 UNL        0.800511
      32 O4         -11.2310    16.2560    64.0680 o             1 UNL       -0.689489
      33 N3         -10.1820    17.5180    65.7780 n             1 UNL       -0.561889
      34 C24        -10.3230    17.6760    67.2230 c3            1 UNL        0.092011
      35 C25        -10.6750    16.3930    67.9180 c3            1 UNL       -0.107389
      36 C26        -10.0560    15.1780    67.2440 c3            1 UNL        0.081011
      37 C27        -11.0620    13.2900    64.4230 c3            1 UNL       -0.080689
      38 C28        -12.2820    13.4490    63.5150 c3            1 UNL       -0.098089
      39 C29        -10.9510    11.8210    64.7160 c3            1 UNL       -0.098089
      40 C30        -12.1560    12.0250    69.9330 c3            1 UNL       -0.047089
      41 C31        -12.3690    13.2360    70.6800 ca            1 UNL       -0.092289
      42 C32        -13.1500    12.9980    71.8120 ca            1 UNL       -0.127489
      43 C33        -13.6590    14.0180    72.5670 ca            1 UNL       -0.122989
      44 C34        -13.3850    15.3400    72.2530 ca            1 UNL       -0.125989
      45 C35        -12.7520    15.6090    71.0470 ca            1 UNL       -0.122989
      46 C36        -12.4090    14.5390    70.2720 ca            1 UNL       -0.127489
      47 H           -8.5920    10.6360    69.8890 h1            1 UNL        0.064711
      48 H1          -9.4840     8.9580    67.5600 ho            1 UNL        0.436011
      49 H2         -10.6010     7.9690    69.1440 h1            1 UNL        0.083711
      50 H3          -7.5830     8.4950    69.9140 hn            1 UNL        0.332511
      51 H4          -6.4200     6.5500    70.8750 h1            1 UNL        0.082711
      52 H5          -6.6930     5.1780    69.8150 h1            1 UNL        0.082711
      53 H6          -6.1630     6.2690    72.8910 hc            1 UNL        0.051878
      54 H7          -6.3370     6.7000    74.5750 hc            1 UNL        0.051878
      55 H8          -6.7250     7.8640    73.3310 hc            1 UNL        0.051878
      56 H9          -9.2660     3.4910    71.2610 hc            1 UNL        0.051878
      57 H10        -10.9540     3.8140    71.5730 hc            1 UNL        0.051878
      58 H11        -10.0380     2.8150    72.6750 hc            1 UNL        0.051878
      59 H12        -11.3210     4.6770    74.0310 ha            1 UNL        0.135011
      60 H13        -10.8100     6.6940    75.2870 ha            1 UNL        0.133011
      61 H14         -8.7420     7.8490    74.8690 ha            1 UNL        0.135011
      62 H15         -9.8790     9.7730    71.4770 hc            1 UNL        0.056211
      63 H16         -9.2870     8.1380    71.8110 hc            1 UNL        0.056211
      64 H17        -11.9960    10.3290    71.9000 ha            1 UNL        0.146511
      65 H18        -14.1710     9.6390    72.8850 ha            1 UNL        0.130511
      66 H19        -15.0020     7.4830    72.0770 ha            1 UNL        0.129011
      67 H20        -13.6060     6.2880    70.4230 ha            1 UNL        0.130511
      68 H21        -11.2140     6.4720    70.8320 ha            1 UNL        0.146511
      69 H22        -10.9450    10.1990    67.8740 hc            1 UNL        0.068711
      70 H23        -11.4720     9.9910    69.5010 hc            1 UNL        0.068711
      71 H24         -9.9400    12.6860    69.3580 h1            1 UNL        0.076711
      72 H25        -12.3800    11.8720    67.4760 hn            1 UNL        0.322511
      73 H26        -12.7090    14.1740    65.8920 h1            1 UNL        0.104711
      74 H27         -9.6960    18.1660    65.2190 hn            1 UNL        0.327511
      75 H28        -11.0950    18.3910    67.4150 h1            1 UNL        0.041211
      76 H29         -9.3770    18.0000    67.6050 h1            1 UNL        0.041211
      77 H30        -11.7390    16.2820    67.9160 hc            1 UNL        0.063711
      78 H31        -10.2880    16.4450    68.9140 hc            1 UNL        0.063711
      79 H32         -8.9910    15.2720    67.2130 h1            1 UNL        0.062711
      80 H33        -10.2790    14.2770    67.7770 h1            1 UNL        0.062711
      81 H34        -10.1330    13.6740    64.0550 hc            1 UNL        0.060711
      82 H35        -13.1410    13.0280    63.9950 hc            1 UNL        0.042211
      83 H36        -12.1060    12.9420    62.5890 hc            1 UNL        0.042211
      84 H37        -12.4530    14.4880    63.3260 hc            1 UNL        0.042211
      85 H38        -11.8890    11.4580    65.0820 hc            1 UNL        0.042211
      86 H39        -10.1940    11.6610    65.4550 hc            1 UNL        0.042211
      87 H40        -10.6910    11.2970    63.8200 hc            1 UNL        0.042211
      88 H41        -12.0980    11.2030    70.6150 hc            1 UNL        0.058211
      89 H42        -12.9740    11.9030    69.2540 hc            1 UNL        0.058211
      90 H43        -13.3490    12.0240    72.0870 ha            1 UNL        0.131011
      91 H44        -14.2550    13.8010    73.3810 ha            1 UNL        0.134011
      92 H45        -13.6440    16.1030    72.8980 ha            1 UNL        0.134011
      93 H46        -12.5500    16.5760    70.7490 ha            1 UNL        0.134011
      94 H47        -12.1570    14.7320    69.2900 ha            1 UNL        0.131011
@<TRIPOS>BOND
       1       38       37 1
       2       32       31 2
       3       37       39 1
       4       37       29 1
       5       31       33 1
       6       31       30 1
       7       33       34 1
       8       29       30 1
       9       29       27 1
      10       30       36 1
      11       28       27 2
      12       27       26 1
      13       34       35 1
      14       36       35 1
      15       26       25 1
      16        2        1 1
      17       24       25 1
      18       24        1 1
      19       25       40 1
      20        6        4 2
      21        1        3 1
      22        3        5 1
      23        3       17 1
      24        5        4 1
      25       40       41 1
      26        4        7 1
      27       46       41 ar
      28       46       45 ar
      29        7        8 1
      30       41       42 ar
      31       45       44 ar
      32       22       23 ar
      33       22       21 ar
      34       23       18 ar
      35       17       18 1
      36        8       11 1
      37       18       19 ar
      38       42       43 ar
      39       21       20 ar
      40       19       20 ar
      41       13       12 1
      42       44       43 ar
      43       11       12 ar
      44       11       10 ar
      45       12       14 ar
      46       10        9 1
      47       10       16 ar
      48       14       15 ar
      49       16       15 ar
      50        1       47 1
      51        2       48 1
      52        3       49 1
      53        5       50 1
      54        7       51 1
      55        7       52 1
      56        9       53 1
      57        9       54 1
      58        9       55 1
      59       13       56 1
      60       13       57 1
      61       13       58 1
      62       14       59 1
      63       15       60 1
      64       16       61 1
      65       17       62 1
      66       17       63 1
      67       19       64 1
      68       20       65 1
      69       21       66 1
      70       22       67 1
      71       23       68 1
      72       24       69 1
      73       24       70 1
      74       25       71 1
      75       26       72 1
      76       29       73 1
      77       33       74 1
      78       34       75 1
      79       34       76 1
      80       35       77 1
      81       35       78 1
      82       36       79 1
      83       36       80 1
      84       37       81 1
      85       38       82 1
      86       38       83 1
      87       38       84 1
      88       39       85 1
      89       39       86 1
      90       39       87 1
      91       40       88 1
      92       40       89 1
      93       42       90 1
      94       43       91 1
      95       44       92 1
      96       45       93 1
      97       46       94 1
@<TRIPOS>SUBSTRUCTURE
       1 UNL             1 RESIDUE    0 **** ROOT      0
