MODEL 1
REMARK VINA RESULT:      -6.3      0.000      0.000
REMARK  Name = 
REMARK  2 active torsions:
REMARK  status: ('A' for Active; 'I' for Inactive)
REMARK    1  A    between atoms: N1_5  and  C1*_6
REMARK    2  A    between atoms: C4*_8  and  C5*_9
REMARK                            x       y       z     vdW  Elec       q    Type
REMARK                         _______ _______ _______ _____ _____    ______ ____
ROOT
ATOM      1  C1*   C A   1      -9.544  16.298  65.847  0.00  0.00    +0.242 C 
ATOM      2  C2*   C A   1     -10.169  17.618  66.745  0.00  0.00    +0.234 C 
ATOM      3  O2*   C A   1     -10.404  16.971  68.075  0.00  0.00    -0.216 OA
ATOM      4  C3*   C A   1      -8.605  18.073  67.192  0.00  0.00    +0.216 C 
ATOM      5  O3*   C A   1      -8.178  18.151  65.750  0.00  0.00    -0.218 OA
ATOM      6  C4*   C A   1      -7.917  16.525  67.355  0.00  0.00    +0.183 C 
ATOM      7  O4*   C A   1      -9.138  15.688  67.156  0.00  0.00    -0.330 OA
ENDROOT
BRANCH   1  13
ATOM      8  N4    C A   1     -13.099  12.378  64.481  0.00  0.00    -0.107 NA
ATOM      9  C4    C A   1     -12.609  13.585  64.988  0.00  0.00    +0.176 A 
ATOM     10  N3    C A   1     -12.467  14.719  64.259  0.00  0.00    -0.174 NA
ATOM     11  C2    C A   1     -11.483  15.609  64.542  0.00  0.00    +0.353 A 
ATOM     12  O2    C A   1     -11.516  16.713  63.948  0.00  0.00    -0.244 OA
ATOM     13  N1    C A   1     -10.922  15.544  65.776  0.00  0.00    -0.254 N 
ATOM     14  C6    C A   1     -11.173  14.528  66.530  0.00  0.00    +0.085 A 
ATOM     15  C5    C A   1     -12.258  13.725  66.327  0.00  0.00    +0.057 A 
ENDBRANCH   1  13
BRANCH   6  16
ATOM     16  C5*   C A   1      -8.139  16.524  68.988  0.00  0.00    +0.214 C 
ATOM     17  O5*   C A   1      -7.884  15.271  69.444  0.00  0.00    -0.218 OA
ENDBRANCH   6  16
TORSDOF 2
ENDMDL
MODEL 2
REMARK VINA RESULT:      -5.9      3.310      5.075
REMARK  Name = 
REMARK  2 active torsions:
REMARK  status: ('A' for Active; 'I' for Inactive)
REMARK    1  A    between atoms: N1_5  and  C1*_6
REMARK    2  A    between atoms: C4*_8  and  C5*_9
REMARK                            x       y       z     vdW  Elec       q    Type
REMARK                         _______ _______ _______ _____ _____    ______ ____
ROOT
ATOM      1  C1*   C A   1     -11.292  15.444  66.969  0.00  0.00    +0.242 C 
ATOM      2  C2*   C A   1      -9.948  14.395  66.790  0.00  0.00    +0.234 C 
ATOM      3  O2*   C A   1     -10.596  13.063  67.006  0.00  0.00    -0.216 OA
ATOM      4  C3*   C A   1     -10.219  14.308  65.125  0.00  0.00    +0.216 C 
ATOM      5  O3*   C A   1     -10.151  15.808  65.000  0.00  0.00    -0.218 OA
ATOM      6  C4*   C A   1     -11.921  14.346  65.135  0.00  0.00    +0.183 C 
ATOM      7  O4*   C A   1     -12.163  14.280  66.606  0.00  0.00    -0.330 OA
ENDROOT
BRANCH   1  13
ATOM      8  N4    C A   1     -13.436  15.798  71.984  0.00  0.00    -0.107 NA
ATOM      9  C4    C A   1     -12.523  15.509  70.966  0.00  0.00    +0.176 A 
ATOM     10  N3    C A   1     -11.575  16.371  70.521  0.00  0.00    -0.174 NA
ATOM     11  C2    C A   1     -11.163  16.345  69.230  0.00  0.00    +0.353 A 
ATOM     12  O2    C A   1     -10.166  17.045  68.930  0.00  0.00    -0.244 OA
ATOM     13  N1    C A   1     -11.410  15.215  68.521  0.00  0.00    -0.254 N 
ATOM     14  C6    C A   1     -12.204  14.325  69.011  0.00  0.00    +0.085 A 
ATOM     15  C5    C A   1     -12.493  14.266  70.344  0.00  0.00    +0.057 A 
ENDBRANCH   1  13
BRANCH   6  16
ATOM     16  C5*   C A   1     -12.025  12.705  65.007  0.00  0.00    +0.214 C 
ATOM     17  O5*   C A   1     -13.281  12.397  64.595  0.00  0.00    -0.218 OA
ENDBRANCH   6  16
TORSDOF 2
ENDMDL
MODEL 3
REMARK VINA RESULT:      -5.7      2.571      4.981
REMARK  Name = 
REMARK  2 active torsions:
REMARK  status: ('A' for Active; 'I' for Inactive)
REMARK    1  A    between atoms: N1_5  and  C1*_6
REMARK    2  A    between atoms: C4*_8  and  C5*_9
REMARK                            x       y       z     vdW  Elec       q    Type
REMARK                         _______ _______ _______ _____ _____    ______ ____
ROOT
ATOM      1  C1*   C A   1     -11.564  14.599  65.787  0.00  0.00    +0.242 C 
ATOM      2  C2*   C A   1     -10.811  13.601  64.613  0.00  0.00    +0.234 C 
ATOM      3  O2*   C A   1      -9.758  12.932  65.441  0.00  0.00    -0.216 OA
ATOM      4  C3*   C A   1     -11.915  12.364  64.934  0.00  0.00    +0.216 C 
ATOM      5  O3*   C A   1     -13.077  13.281  64.653  0.00  0.00    -0.218 OA
ATOM      6  C4*   C A   1     -12.087  12.595  66.612  0.00  0.00    +0.183 C 
ATOM      7  O4*   C A   1     -11.050  13.648  66.825  0.00  0.00    -0.330 OA
ENDROOT
BRANCH   1  13
ATOM      8  N4    C A   1      -8.620  18.807  67.655  0.00  0.00    -0.107 NA
ATOM      9  C4    C A   1      -9.003  17.730  66.852  0.00  0.00    +0.176 A 
ATOM     10  N3    C A   1      -9.806  17.834  65.764  0.00  0.00    -0.174 NA
ATOM     11  C2    C A   1     -10.628  16.816  65.406  0.00  0.00    +0.353 A 
ATOM     12  O2    C A   1     -11.209  16.907  64.299  0.00  0.00    -0.244 OA
ATOM     13  N1    C A   1     -10.344  15.585  65.900  0.00  0.00    -0.254 N 
ATOM     14  C6    C A   1      -9.470  15.469  66.842  0.00  0.00    +0.085 A 
ATOM     15  C5    C A   1      -8.543  16.439  67.094  0.00  0.00    +0.057 A 
ENDBRANCH   1  13
BRANCH   6  16
ATOM     16  C5*   C A   1     -11.000  11.404  66.955  0.00  0.00    +0.214 C 
ATOM     17  O5*   C A   1     -11.602  10.514  67.784  0.00  0.00    -0.218 OA
ENDBRANCH   6  16
TORSDOF 2
ENDMDL
MODEL 4
REMARK VINA RESULT:      -5.7      1.563      2.719
REMARK  Name = 
REMARK  2 active torsions:
REMARK  status: ('A' for Active; 'I' for Inactive)
REMARK    1  A    between atoms: N1_5  and  C1*_6
REMARK    2  A    between atoms: C4*_8  and  C5*_9
REMARK                            x       y       z     vdW  Elec       q    Type
REMARK                         _______ _______ _______ _____ _____    ______ ____
ROOT
ATOM      1  C1*   C A   1     -10.528  15.920  66.808  0.00  0.00    +0.242 C 
ATOM      2  C2*   C A   1      -9.281  15.355  67.841  0.00  0.00    +0.234 C 
ATOM      3  O2*   C A   1      -8.182  15.112  66.854  0.00  0.00    -0.216 OA
ATOM      4  C3*   C A   1      -8.759  16.940  68.102  0.00  0.00    +0.216 C 
ATOM      5  O3*   C A   1     -10.131  17.352  68.570  0.00  0.00    -0.218 OA
ATOM      6  C4*   C A   1      -9.054  17.572  66.549  0.00  0.00    +0.183 C 
ATOM      7  O4*   C A   1      -9.454  16.319  65.842  0.00  0.00    -0.330 OA
ENDROOT
BRANCH   1  13
ATOM      8  N4    C A   1     -12.888  12.196  63.578  0.00  0.00    -0.107 NA
ATOM      9  C4    C A   1     -12.061  12.741  64.564  0.00  0.00    +0.176 A 
ATOM     10  N3    C A   1     -12.423  12.909  65.859  0.00  0.00    -0.174 NA
ATOM     11  C2    C A   1     -11.919  13.930  66.596  0.00  0.00    +0.353 A 
ATOM     12  O2    C A   1     -12.157  13.925  67.827  0.00  0.00    -0.244 OA
ATOM     13  N1    C A   1     -10.778  14.514  66.150  0.00  0.00    -0.254 N 
ATOM     14  C6    C A   1     -10.353  14.242  64.963  0.00  0.00    +0.085 A 
ATOM     15  C5    C A   1     -10.752  13.124  64.288  0.00  0.00    +0.057 A 
ENDBRANCH   1  13
BRANCH   6  16
ATOM     16  C5*   C A   1      -7.482  17.370  66.094  0.00  0.00    +0.214 C 
ATOM     17  O5*   C A   1      -7.146  18.404  65.282  0.00  0.00    -0.218 OA
ENDBRANCH   6  16
TORSDOF 2
ENDMDL
MODEL 5
REMARK VINA RESULT:      -5.6      2.702      5.352
REMARK  Name = 
REMARK  2 active torsions:
REMARK  status: ('A' for Active; 'I' for Inactive)
REMARK    1  A    between atoms: N1_5  and  C1*_6
REMARK    2  A    between atoms: C4*_8  and  C5*_9
REMARK                            x       y       z     vdW  Elec       q    Type
REMARK                         _______ _______ _______ _____ _____    ______ ____
ROOT
ATOM      1  C1*   C A   1     -10.901  14.053  66.998  0.00  0.00    +0.242 C 
ATOM      2  C2*   C A   1     -12.389  14.005  66.148  0.00  0.00    +0.234 C 
ATOM      3  O2*   C A   1     -11.961  14.492  64.798  0.00  0.00    -0.216 OA
ATOM      4  C3*   C A   1     -12.104  12.399  65.710  0.00  0.00    +0.216 C 
ATOM      5  O3*   C A   1     -11.935  11.999  67.153  0.00  0.00    -0.218 OA
ATOM      6  C4*   C A   1     -10.418  12.482  65.493  0.00  0.00    +0.183 C 
ATOM      7  O4*   C A   1     -10.216  13.951  65.669  0.00  0.00    -0.330 OA
ENDROOT
BRANCH   1  13
ATOM      8  N4    C A   1      -8.952  19.011  68.222  0.00  0.00    -0.107 NA
ATOM      9  C4    C A   1      -9.829  18.023  67.765  0.00  0.00    +0.176 A 
ATOM     10  N3    C A   1     -10.742  17.392  68.543  0.00  0.00    -0.174 NA
ATOM     11  C2    C A   1     -11.104  16.109  68.291  0.00  0.00    +0.353 A 
ATOM     12  O2    C A   1     -12.075  15.647  68.936  0.00  0.00    -0.244 OA
ATOM     13  N1    C A   1     -10.849  15.624  67.050  0.00  0.00    -0.254 N 
ATOM     14  C6    C A   1     -10.091  16.299  66.253  0.00  0.00    +0.085 A 
ATOM     15  C5    C A   1      -9.857  17.632  66.430  0.00  0.00    +0.057 A 
ENDBRANCH   1  13
BRANCH   6  16
ATOM     16  C5*   C A   1     -10.569  12.662  63.861  0.00  0.00    +0.214 C 
ATOM     17  O5*   C A   1      -9.787  11.727  63.263  0.00  0.00    -0.218 OA
ENDBRANCH   6  16
TORSDOF 2
ENDMDL
MODEL 6
REMARK VINA RESULT:      -5.4      4.357      6.838
REMARK  Name = 
REMARK  2 active torsions:
REMARK  status: ('A' for Active; 'I' for Inactive)
REMARK    1  A    between atoms: N1_5  and  C1*_6
REMARK    2  A    between atoms: C4*_8  and  C5*_9
REMARK                            x       y       z     vdW  Elec       q    Type
REMARK                         _______ _______ _______ _____ _____    ______ ____
ROOT
ATOM      1  C1*   C A   1      -8.774  19.862  67.539  0.00  0.00    +0.242 C 
ATOM      2  C2*   C A   1      -8.418  18.663  66.366  0.00  0.00    +0.234 C 
ATOM      3  O2*   C A   1      -8.283  17.449  67.232  0.00  0.00    -0.216 OA
ATOM      4  C3*   C A   1     -10.067  18.375  66.139  0.00  0.00    +0.216 C 
ATOM      5  O3*   C A   1     -10.313  19.827  65.824  0.00  0.00    -0.218 OA
ATOM      6  C4*   C A   1     -10.594  18.591  67.743  0.00  0.00    +0.183 C 
ATOM      7  O4*   C A   1      -9.273  18.756  68.419  0.00  0.00    -0.330 OA
ENDROOT
BRANCH   1  13
ATOM      8  N4    C A   1      -4.648  21.404  70.775  0.00  0.00    -0.107 NA
ATOM      9  C4    C A   1      -5.335  20.751  69.748  0.00  0.00    +0.176 A 
ATOM     10  N3    C A   1      -5.504  21.254  68.501  0.00  0.00    -0.174 NA
ATOM     11  C2    C A   1      -6.611  20.958  67.774  0.00  0.00    +0.353 A 
ATOM     12  O2    C A   1      -6.621  21.310  66.571  0.00  0.00    -0.244 OA
ATOM     13  N1    C A   1      -7.323  19.865  68.145  0.00  0.00    -0.254 N 
ATOM     14  C6    C A   1      -7.064  19.297  69.274  0.00  0.00    +0.085 A 
ATOM     15  C5    C A   1      -5.878  19.482  69.924  0.00  0.00    +0.057 A 
ENDBRANCH   1  13
BRANCH   6  16
ATOM     16  C5*   C A   1     -10.583  16.969  68.037  0.00  0.00    +0.214 C 
ATOM     17  O5*   C A   1     -11.321  16.741  69.154  0.00  0.00    -0.218 OA
ENDBRANCH   6  16
TORSDOF 2
ENDMDL
MODEL 7
REMARK VINA RESULT:      -5.4      2.201      3.110
REMARK  Name = 
REMARK  2 active torsions:
REMARK  status: ('A' for Active; 'I' for Inactive)
REMARK    1  A    between atoms: N1_5  and  C1*_6
REMARK    2  A    between atoms: C4*_8  and  C5*_9
REMARK                            x       y       z     vdW  Elec       q    Type
REMARK                         _______ _______ _______ _____ _____    ______ ____
ROOT
ATOM      1  C1*   C A   1     -10.494  17.515  67.334  0.00  0.00    +0.242 C 
ATOM      2  C2*   C A   1      -9.499  17.872  68.685  0.00  0.00    +0.234 C 
ATOM      3  O2*   C A   1      -8.183  17.332  68.220  0.00  0.00    -0.216 OA
ATOM      4  C3*   C A   1      -9.152  19.397  68.045  0.00  0.00    +0.216 C 
ATOM      5  O3*   C A   1     -10.618  19.731  67.954  0.00  0.00    -0.218 OA
ATOM      6  C4*   C A   1      -9.103  18.983  66.394  0.00  0.00    +0.183 C 
ATOM      7  O4*   C A   1      -9.244  17.501  66.505  0.00  0.00    -0.330 OA
ENDROOT
BRANCH   1  13
ATOM      8  N4    C A   1     -11.917  12.277  66.698  0.00  0.00    -0.107 NA
ATOM      9  C4    C A   1     -11.318  13.416  67.244  0.00  0.00    +0.176 A 
ATOM     10  N3    C A   1     -11.900  14.217  68.170  0.00  0.00    -0.174 NA
ATOM     11  C2    C A   1     -11.626  15.545  68.212  0.00  0.00    +0.353 A 
ATOM     12  O2    C A   1     -12.058  16.191  69.196  0.00  0.00    -0.244 OA
ATOM     13  N1    C A   1     -10.492  15.965  67.597  0.00  0.00    -0.254 N 
ATOM     14  C6    C A   1      -9.856  15.152  66.823  0.00  0.00    +0.085 A 
ATOM     15  C5    C A   1     -10.027  13.799  66.895  0.00  0.00    +0.057 A 
ENDBRANCH   1  13
BRANCH   6  16
ATOM     16  C5*   C A   1      -7.459  18.863  66.404  0.00  0.00    +0.214 C 
ATOM     17  O5*   C A   1      -7.071  18.335  65.215  0.00  0.00    -0.218 OA
ENDBRANCH   6  16
TORSDOF 2
ENDMDL
MODEL 8
REMARK VINA RESULT:      -5.4      1.578      2.877
REMARK  Name = 
REMARK  2 active torsions:
REMARK  status: ('A' for Active; 'I' for Inactive)
REMARK    1  A    between atoms: N1_5  and  C1*_6
REMARK    2  A    between atoms: C4*_8  and  C5*_9
REMARK                            x       y       z     vdW  Elec       q    Type
REMARK                         _______ _______ _______ _____ _____    ______ ____
ROOT
ATOM      1  C1*   C A   1      -9.944  15.148  67.376  0.00  0.00    +0.242 C 
ATOM      2  C2*   C A   1      -8.538  15.784  66.629  0.00  0.00    +0.234 C 
ATOM      3  O2*   C A   1      -9.138  16.813  65.723  0.00  0.00    -0.216 OA
ATOM      4  C3*   C A   1      -8.368  16.912  67.874  0.00  0.00    +0.216 C 
ATOM      5  O3*   C A   1      -8.361  15.819  68.911  0.00  0.00    -0.218 OA
ATOM      6  C4*   C A   1     -10.014  17.232  68.164  0.00  0.00    +0.183 C 
ATOM      7  O4*   C A   1     -10.621  16.445  67.049  0.00  0.00    -0.330 OA
ENDROOT
BRANCH   1  13
ATOM      8  N4    C A   1     -13.231  12.133  64.218  0.00  0.00    -0.107 NA
ATOM      9  C4    C A   1     -12.107  12.855  64.627  0.00  0.00    +0.176 A 
ATOM     10  N3    C A   1     -11.057  12.320  65.297  0.00  0.00    -0.174 NA
ATOM     11  C2    C A   1     -10.344  13.063  66.180  0.00  0.00    +0.353 A 
ATOM     12  O2    C A   1      -9.285  12.564  66.630  0.00  0.00    -0.244 OA
ATOM     13  N1    C A   1     -10.442  14.413  66.078  0.00  0.00    -0.254 N 
ATOM     14  C6    C A   1     -11.355  14.924  65.324  0.00  0.00    +0.085 A 
ATOM     15  C5    C A   1     -11.960  14.207  64.332  0.00  0.00    +0.057 A 
ENDBRANCH   1  13
BRANCH   6  16
ATOM     16  C5*   C A   1      -9.983  18.593  67.234  0.00  0.00    +0.214 C 
ATOM     17  O5*   C A   1     -10.991  19.404  67.645  0.00  0.00    -0.218 OA
ENDBRANCH   6  16
TORSDOF 2
ENDMDL
MODEL 9
REMARK VINA RESULT:      -5.3      3.838      5.645
REMARK  Name = 
REMARK  2 active torsions:
REMARK  status: ('A' for Active; 'I' for Inactive)
REMARK    1  A    between atoms: N1_5  and  C1*_6
REMARK    2  A    between atoms: C4*_8  and  C5*_9
REMARK                            x       y       z     vdW  Elec       q    Type
REMARK                         _______ _______ _______ _____ _____    ______ ____
ROOT
ATOM      1  C1*   C A   1     -11.897  13.601  67.052  0.00  0.00    +0.242 C 
ATOM      2  C2*   C A   1     -10.283  13.512  66.479  0.00  0.00    +0.234 C 
ATOM      3  O2*   C A   1     -10.218  12.084  66.033  0.00  0.00    -0.216 OA
ATOM      4  C3*   C A   1     -10.783  14.016  64.947  0.00  0.00    +0.216 C 
ATOM      5  O3*   C A   1     -11.415  15.257  65.522  0.00  0.00    -0.218 OA
ATOM      6  C4*   C A   1     -12.290  13.226  64.889  0.00  0.00    +0.183 C 
ATOM      7  O4*   C A   1     -12.206  12.439  66.156  0.00  0.00    -0.330 OA
ENDROOT
BRANCH   1  13
ATOM      8  N4    C A   1     -13.039  10.608  71.479  0.00  0.00    -0.107 NA
ATOM      9  C4    C A   1     -12.294  11.309  70.527  0.00  0.00    +0.176 A 
ATOM     10  N3    C A   1     -12.010  12.632  70.602  0.00  0.00    -0.174 NA
ATOM     11  C2    C A   1     -11.867  13.378  69.478  0.00  0.00    +0.353 A 
ATOM     12  O2    C A   1     -11.434  14.547  69.613  0.00  0.00    -0.244 OA
ATOM     13  N1    C A   1     -11.618  12.714  68.320  0.00  0.00    -0.254 N 
ATOM     14  C6    C A   1     -11.750  11.432  68.287  0.00  0.00    +0.085 A 
ATOM     15  C5    C A   1     -11.739  10.673  69.422  0.00  0.00    +0.057 A 
ENDBRANCH   1  13
BRANCH   6  16
ATOM     16  C5*   C A   1     -11.672  11.966  64.024  0.00  0.00    +0.214 C 
ATOM     17  O5*   C A   1     -12.582  11.624  63.076  0.00  0.00    -0.218 OA
ENDBRANCH   6  16
TORSDOF 2
ENDMDL
