MODEL 1
REMARK VINA RESULT:      -6.6      0.000      0.000
REMARK  Name = 
REMARK  5 active torsions:
REMARK  status: ('A' for Active; 'I' for Inactive)
REMARK    1  A    between atoms: N_8  and  C_9
REMARK    2  A    between atoms: C_9  and  C_10
REMARK    3  A    between atoms: C_10  and  C_11
REMARK    4  A    between atoms: C_11  and  C_12
REMARK    5  A    between atoms: C_11  and  C_14
REMARK                            x       y       z     vdW  Elec       q    Type
REMARK                         _______ _______ _______ _____ _____    ______ ____
ROOT
ATOM      1  N   UNL     1     -12.807  12.451  64.680  0.00  0.00    -0.086 NA
ATOM      2  C   UNL     1     -12.421  13.712  65.236  0.00  0.00    +0.261 A 
ATOM      3  N   UNL     1     -12.155  14.788  64.457  0.00  0.00    -0.171 NA
ATOM      4  C   UNL     1     -11.239  15.709  64.844  0.00  0.00    +0.302 A 
ATOM      5  O   UNL     1     -11.175  16.830  64.256  0.00  0.00    -0.263 OA
ATOM      6  C   UNL     1     -10.907  15.690  66.191  0.00  0.00    +0.175 A 
ATOM      7  N   UNL     1      -9.966  16.328  66.914  0.00  0.00    -0.217 NA
ATOM      8  C   UNL     1     -10.205  16.084  68.224  0.00  0.00    +0.180 A 
ATOM      9  N   UNL     1     -11.272  15.271  68.359  0.00  0.00    -0.294 N 
ATOM     10  C   UNL     1     -11.527  14.843  67.097  0.00  0.00    +0.171 A 
ATOM     11  N   UNL     1     -12.320  13.889  66.576  0.00  0.00    -0.192 NA
ENDROOT
BRANCH   9  12
ATOM     12  C   UNL     1     -12.233  15.200  69.455  0.00  0.00    +0.109 C 
BRANCH  12  13
ATOM     13  C   UNL     1     -11.559  15.386  70.804  0.00  0.00    +0.030 C 
BRANCH  13  14
ATOM     14  C   UNL     1     -12.607  15.624  71.853  0.00  0.00    +0.068 C 
BRANCH  14  15
ATOM     15  C   UNL     1     -12.074  15.432  73.257  0.00  0.00    +0.185 C 
ATOM     16  O   UNL     1     -12.767  16.354  74.058  0.00  0.00    -0.220 OA
ENDBRANCH  14  15
BRANCH  14  17
ATOM     17  C   UNL     1     -13.896  14.902  71.606  0.00  0.00    +0.185 C 
ATOM     18  O   UNL     1     -15.020  15.705  71.705  0.00  0.00    -0.220 OA
ENDBRANCH  14  17
ENDBRANCH  13  14
ENDBRANCH  12  13
ENDBRANCH   9  12
TORSDOF 5
ENDMDL
MODEL 2
REMARK VINA RESULT:      -6.5      0.911      1.542
REMARK  Name = 
REMARK  5 active torsions:
REMARK  status: ('A' for Active; 'I' for Inactive)
REMARK    1  A    between atoms: N_8  and  C_9
REMARK    2  A    between atoms: C_9  and  C_10
REMARK    3  A    between atoms: C_10  and  C_11
REMARK    4  A    between atoms: C_11  and  C_12
REMARK    5  A    between atoms: C_11  and  C_14
REMARK                            x       y       z     vdW  Elec       q    Type
REMARK                         _______ _______ _______ _____ _____    ______ ____
ROOT
ATOM      1  N   UNL     1     -12.882  12.278  63.872  0.00  0.00    -0.086 NA
ATOM      2  C   UNL     1     -12.504  13.426  64.638  0.00  0.00    +0.261 A 
ATOM      3  N   UNL     1     -12.352  14.647  64.072  0.00  0.00    -0.171 NA
ATOM      4  C   UNL     1     -11.446  15.527  64.564  0.00  0.00    +0.302 A 
ATOM      5  O   UNL     1     -11.481  16.743  64.209  0.00  0.00    -0.263 OA
ATOM      6  C   UNL     1     -10.999  15.265  65.851  0.00  0.00    +0.175 A 
ATOM      7  N   UNL     1     -10.027  15.804  66.613  0.00  0.00    -0.217 NA
ATOM      8  C   UNL     1     -10.141  15.294  67.862  0.00  0.00    +0.180 A 
ATOM      9  N   UNL     1     -11.157  14.410  67.913  0.00  0.00    -0.294 N 
ATOM     10  C   UNL     1     -11.502  14.222  66.614  0.00  0.00    +0.171 A 
ATOM     11  N   UNL     1     -12.295  13.344  65.975  0.00  0.00    -0.192 NA
ENDROOT
BRANCH   9  12
ATOM     12  C   UNL     1     -12.016  14.069  69.043  0.00  0.00    +0.109 C 
BRANCH  12  13
ATOM     13  C   UNL     1     -12.179  15.241  69.996  0.00  0.00    +0.030 C 
BRANCH  13  14
ATOM     14  C   UNL     1     -12.555  14.726  71.356  0.00  0.00    +0.068 C 
BRANCH  14  15
ATOM     15  C   UNL     1     -14.049  14.765  71.598  0.00  0.00    +0.185 C 
ATOM     16  O   UNL     1     -14.322  13.700  72.470  0.00  0.00    -0.220 OA
ENDBRANCH  14  15
BRANCH  14  17
ATOM     17  C   UNL     1     -11.759  15.320  72.477  0.00  0.00    +0.185 C 
ATOM     18  O   UNL     1     -12.401  16.353  73.139  0.00  0.00    -0.220 OA
ENDBRANCH  14  17
ENDBRANCH  13  14
ENDBRANCH  12  13
ENDBRANCH   9  12
TORSDOF 5
ENDMDL
MODEL 3
REMARK VINA RESULT:      -6.2      1.888      2.166
REMARK  Name = 
REMARK  5 active torsions:
REMARK  status: ('A' for Active; 'I' for Inactive)
REMARK    1  A    between atoms: N_8  and  C_9
REMARK    2  A    between atoms: C_9  and  C_10
REMARK    3  A    between atoms: C_10  and  C_11
REMARK    4  A    between atoms: C_11  and  C_12
REMARK    5  A    between atoms: C_11  and  C_14
REMARK                            x       y       z     vdW  Elec       q    Type
REMARK                         _______ _______ _______ _____ _____    ______ ____
ROOT
ATOM      1  N   UNL     1     -10.739  10.391  67.245  0.00  0.00    -0.086 NA
ATOM      2  C   UNL     1     -11.349  11.682  67.341  0.00  0.00    +0.261 A 
ATOM      3  N   UNL     1     -12.085  12.203  66.330  0.00  0.00    -0.171 NA
ATOM      4  C   UNL     1     -12.121  13.542  66.122  0.00  0.00    +0.302 A 
ATOM      5  O   UNL     1     -12.995  14.046  65.356  0.00  0.00    -0.263 OA
ATOM      6  C   UNL     1     -11.703  14.322  67.191  0.00  0.00    +0.175 A 
ATOM      7  N   UNL     1     -11.465  15.641  67.328  0.00  0.00    -0.217 NA
ATOM      8  C   UNL     1     -11.257  15.897  68.641  0.00  0.00    +0.180 A 
ATOM      9  N   UNL     1     -11.330  14.756  69.355  0.00  0.00    -0.294 N 
ATOM     10  C   UNL     1     -11.351  13.776  68.417  0.00  0.00    +0.171 A 
ATOM     11  N   UNL     1     -11.230  12.437  68.460  0.00  0.00    -0.192 NA
ENDROOT
BRANCH   9  12
ATOM     12  C   UNL     1     -11.752  14.569  70.739  0.00  0.00    +0.109 C 
BRANCH  12  13
ATOM     13  C   UNL     1     -12.152  15.885  71.385  0.00  0.00    +0.030 C 
BRANCH  13  14
ATOM     14  C   UNL     1     -13.232  15.633  72.398  0.00  0.00    +0.068 C 
BRANCH  14  15
ATOM     15  C   UNL     1     -12.676  15.278  73.760  0.00  0.00    +0.185 C 
ATOM     16  O   UNL     1     -12.559  16.493  74.453  0.00  0.00    -0.220 OA
ENDBRANCH  14  15
BRANCH  14  17
ATOM     17  C   UNL     1     -14.301  14.692  71.932  0.00  0.00    +0.185 C 
ATOM     18  O   UNL     1     -14.317  13.480  72.602  0.00  0.00    -0.220 OA
ENDBRANCH  14  17
ENDBRANCH  13  14
ENDBRANCH  12  13
ENDBRANCH   9  12
TORSDOF 5
ENDMDL
MODEL 4
REMARK VINA RESULT:      -6.1      2.609      6.863
REMARK  Name = 
REMARK  5 active torsions:
REMARK  status: ('A' for Active; 'I' for Inactive)
REMARK    1  A    between atoms: N_8  and  C_9
REMARK    2  A    between atoms: C_9  and  C_10
REMARK    3  A    between atoms: C_10  and  C_11
REMARK    4  A    between atoms: C_11  and  C_12
REMARK    5  A    between atoms: C_11  and  C_14
REMARK                            x       y       z     vdW  Elec       q    Type
REMARK                         _______ _______ _______ _____ _____    ______ ____
ROOT
ATOM      1  N   UNL     1     -12.069  16.867  73.821  0.00  0.00    -0.086 NA
ATOM      2  C   UNL     1     -12.520  15.932  72.835  0.00  0.00    +0.261 A 
ATOM      3  N   UNL     1     -13.512  15.045  73.088  0.00  0.00    -0.171 NA
ATOM      4  C   UNL     1     -13.520  13.830  72.490  0.00  0.00    +0.302 A 
ATOM      5  O   UNL     1     -14.562  13.109  72.522  0.00  0.00    -0.263 OA
ATOM      6  C   UNL     1     -12.716  13.714  71.365  0.00  0.00    +0.175 A 
ATOM      7  N   UNL     1     -12.352  12.667  70.599  0.00  0.00    -0.217 NA
ATOM      8  C   UNL     1     -11.700  13.146  69.513  0.00  0.00    +0.180 A 
ATOM      9  N   UNL     1     -11.611  14.490  69.580  0.00  0.00    -0.294 N 
ATOM     10  C   UNL     1     -12.014  14.790  70.840  0.00  0.00    +0.171 A 
ATOM     11  N   UNL     1     -11.981  15.904  71.592  0.00  0.00    -0.192 NA
ENDROOT
BRANCH   9  12
ATOM     12  C   UNL     1     -11.559  15.456  68.488  0.00  0.00    +0.109 C 
BRANCH  12  13
ATOM     13  C   UNL     1     -10.646  14.988  67.367  0.00  0.00    +0.030 C 
BRANCH  13  14
ATOM     14  C   UNL     1     -11.378  15.077  66.060  0.00  0.00    +0.068 C 
BRANCH  14  15
ATOM     15  C   UNL     1     -11.934  13.741  65.614  0.00  0.00    +0.185 C 
ATOM     16  O   UNL     1     -13.270  13.984  65.256  0.00  0.00    -0.220 OA
ENDBRANCH  14  15
BRANCH  14  17
ATOM     17  C   UNL     1     -10.622  15.792  64.982  0.00  0.00    +0.185 C 
ATOM     18  O   UNL     1     -11.388  16.686  64.253  0.00  0.00    -0.220 OA
ENDBRANCH  14  17
ENDBRANCH  13  14
ENDBRANCH  12  13
ENDBRANCH   9  12
TORSDOF 5
ENDMDL
MODEL 5
REMARK VINA RESULT:      -6.1      2.737      6.555
REMARK  Name = 
REMARK  5 active torsions:
REMARK  status: ('A' for Active; 'I' for Inactive)
REMARK    1  A    between atoms: N_8  and  C_9
REMARK    2  A    between atoms: C_9  and  C_10
REMARK    3  A    between atoms: C_10  and  C_11
REMARK    4  A    between atoms: C_11  and  C_12
REMARK    5  A    between atoms: C_11  and  C_14
REMARK                            x       y       z     vdW  Elec       q    Type
REMARK                         _______ _______ _______ _____ _____    ______ ____
ROOT
ATOM      1  N   UNL     1     -12.417  16.620  74.567  0.00  0.00    -0.086 NA
ATOM      2  C   UNL     1     -12.719  16.209  73.230  0.00  0.00    +0.261 A 
ATOM      3  N   UNL     1     -13.980  15.902  72.842  0.00  0.00    -0.171 NA
ATOM      4  C   UNL     1     -14.199  14.968  71.885  0.00  0.00    +0.302 A 
ATOM      5  O   UNL     1     -15.341  14.864  71.344  0.00  0.00    -0.263 OA
ATOM      6  C   UNL     1     -13.103  14.656  71.094  0.00  0.00    +0.175 A 
ATOM      7  N   UNL     1     -12.882  13.709  70.161  0.00  0.00    -0.217 NA
ATOM      8  C   UNL     1     -11.695  13.974  69.566  0.00  0.00    +0.180 A 
ATOM      9  N   UNL     1     -11.130  15.065  70.120  0.00  0.00    -0.294 N 
ATOM     10  C   UNL     1     -11.887  15.313  71.218  0.00  0.00    +0.171 A 
ATOM     11  N   UNL     1     -11.753  16.123  72.283  0.00  0.00    -0.192 NA
ENDROOT
BRANCH   9  12
ATOM     12  C   UNL     1     -10.239  16.044  69.506  0.00  0.00    +0.109 C 
BRANCH  12  13
ATOM     13  C   UNL     1     -10.978  16.936  68.523  0.00  0.00    +0.030 C 
BRANCH  13  14
ATOM     14  C   UNL     1     -10.184  17.041  67.253  0.00  0.00    +0.068 C 
BRANCH  14  15
ATOM     15  C   UNL     1     -10.304  18.405  66.606  0.00  0.00    +0.185 C 
ATOM     16  O   UNL     1     -11.017  19.199  67.519  0.00  0.00    -0.220 OA
ENDBRANCH  14  15
BRANCH  14  17
ATOM     17  C   UNL     1     -10.406  15.911  66.295  0.00  0.00    +0.185 C 
ATOM     18  O   UNL     1     -10.446  16.298  64.966  0.00  0.00    -0.220 OA
ENDBRANCH  14  17
ENDBRANCH  13  14
ENDBRANCH  12  13
ENDBRANCH   9  12
TORSDOF 5
ENDMDL
MODEL 6
REMARK VINA RESULT:      -5.9      2.505      2.735
REMARK  Name = 
REMARK  5 active torsions:
REMARK  status: ('A' for Active; 'I' for Inactive)
REMARK    1  A    between atoms: N_8  and  C_9
REMARK    2  A    between atoms: C_9  and  C_10
REMARK    3  A    between atoms: C_10  and  C_11
REMARK    4  A    between atoms: C_11  and  C_12
REMARK    5  A    between atoms: C_11  and  C_14
REMARK                            x       y       z     vdW  Elec       q    Type
REMARK                         _______ _______ _______ _____ _____    ______ ____
ROOT
ATOM      1  N   UNL     1     -12.884  12.250  63.582  0.00  0.00    -0.086 NA
ATOM      2  C   UNL     1     -12.493  13.346  64.414  0.00  0.00    +0.261 A 
ATOM      3  N   UNL     1     -12.381  14.608  63.932  0.00  0.00    -0.171 NA
ATOM      4  C   UNL     1     -11.469  15.466  64.450  0.00  0.00    +0.302 A 
ATOM      5  O   UNL     1     -11.535  16.703  64.185  0.00  0.00    -0.263 OA
ATOM      6  C   UNL     1     -10.966  15.120  65.696  0.00  0.00    +0.175 A 
ATOM      7  N   UNL     1      -9.973  15.619  66.457  0.00  0.00    -0.217 NA
ATOM      8  C   UNL     1     -10.029  15.020  67.670  0.00  0.00    +0.180 A 
ATOM      9  N   UNL     1     -11.030  14.116  67.696  0.00  0.00    -0.294 N 
ATOM     10  C   UNL     1     -11.424  14.016  66.402  0.00  0.00    +0.171 A 
ATOM     11  N   UNL     1     -12.229  13.172  65.732  0.00  0.00    -0.192 NA
ENDROOT
BRANCH   9  12
ATOM     12  C   UNL     1     -11.838  13.681  68.831  0.00  0.00    +0.109 C 
BRANCH  12  13
ATOM     13  C   UNL     1     -11.523  12.248  69.226  0.00  0.00    +0.030 C 
BRANCH  13  14
ATOM     14  C   UNL     1     -12.097  11.971  70.586  0.00  0.00    +0.068 C 
BRANCH  14  15
ATOM     15  C   UNL     1     -12.750  10.608  70.672  0.00  0.00    +0.185 C 
ATOM     16  O   UNL     1     -11.998   9.884  71.610  0.00  0.00    -0.220 OA
ENDBRANCH  14  15
BRANCH  14  17
ATOM     17  C   UNL     1     -12.957  13.074  71.124  0.00  0.00    +0.185 C 
ATOM     18  O   UNL     1     -13.515  12.800  72.361  0.00  0.00    -0.220 OA
ENDBRANCH  14  17
ENDBRANCH  13  14
ENDBRANCH  12  13
ENDBRANCH   9  12
TORSDOF 5
ENDMDL
MODEL 7
REMARK VINA RESULT:      -5.9      3.617      5.812
REMARK  Name = 
REMARK  5 active torsions:
REMARK  status: ('A' for Active; 'I' for Inactive)
REMARK    1  A    between atoms: N_8  and  C_9
REMARK    2  A    between atoms: C_9  and  C_10
REMARK    3  A    between atoms: C_10  and  C_11
REMARK    4  A    between atoms: C_11  and  C_12
REMARK    5  A    between atoms: C_11  and  C_14
REMARK                            x       y       z     vdW  Elec       q    Type
REMARK                         _______ _______ _______ _____ _____    ______ ____
ROOT
ATOM      1  N   UNL     1      -6.897  18.461  65.674  0.00  0.00    -0.086 NA
ATOM      2  C   UNL     1      -8.246  18.205  66.076  0.00  0.00    +0.261 A 
ATOM      3  N   UNL     1      -9.044  19.181  66.573  0.00  0.00    -0.171 NA
ATOM      4  C   UNL     1      -9.997  18.892  67.492  0.00  0.00    +0.302 A 
ATOM      5  O   UNL     1     -10.900  19.738  67.762  0.00  0.00    -0.263 OA
ATOM      6  C   UNL     1     -10.348  17.553  67.585  0.00  0.00    +0.175 A 
ATOM      7  N   UNL     1     -11.125  16.864  68.444  0.00  0.00    -0.217 NA
ATOM      8  C   UNL     1     -11.274  15.608  67.962  0.00  0.00    +0.180 A 
ATOM      9  N   UNL     1     -10.580  15.464  66.815  0.00  0.00    -0.294 N 
ATOM     10  C   UNL     1      -9.821  16.586  66.741  0.00  0.00    +0.171 A 
ATOM     11  N   UNL     1      -8.793  16.970  65.963  0.00  0.00    -0.192 NA
ENDROOT
BRANCH   9  12
ATOM     12  C   UNL     1     -10.864  14.594  65.678  0.00  0.00    +0.109 C 
BRANCH  12  13
ATOM     13  C   UNL     1     -12.301  14.100  65.697  0.00  0.00    +0.030 C 
BRANCH  13  14
ATOM     14  C   UNL     1     -12.328  12.641  65.342  0.00  0.00    +0.068 C 
BRANCH  14  15
ATOM     15  C   UNL     1     -11.349  11.827  66.162  0.00  0.00    +0.185 C 
ATOM     16  O   UNL     1     -11.991  11.577  67.385  0.00  0.00    -0.220 OA
ENDBRANCH  14  15
BRANCH  14  17
ATOM     17  C   UNL     1     -12.239  12.366  63.872  0.00  0.00    +0.185 C 
ATOM     18  O   UNL     1     -12.639  13.425  63.075  0.00  0.00    -0.220 OA
ENDBRANCH  14  17
ENDBRANCH  13  14
ENDBRANCH  12  13
ENDBRANCH   9  12
TORSDOF 5
ENDMDL
MODEL 8
REMARK VINA RESULT:      -5.7      3.635      5.932
REMARK  Name = 
REMARK  5 active torsions:
REMARK  status: ('A' for Active; 'I' for Inactive)
REMARK    1  A    between atoms: N_8  and  C_9
REMARK    2  A    between atoms: C_9  and  C_10
REMARK    3  A    between atoms: C_10  and  C_11
REMARK    4  A    between atoms: C_11  and  C_12
REMARK    5  A    between atoms: C_11  and  C_14
REMARK                            x       y       z     vdW  Elec       q    Type
REMARK                         _______ _______ _______ _____ _____    ______ ____
ROOT
ATOM      1  N   UNL     1      -6.982  18.392  65.564  0.00  0.00    -0.086 NA
ATOM      2  C   UNL     1      -8.313  18.185  66.047  0.00  0.00    +0.261 A 
ATOM      3  N   UNL     1      -8.991  19.148  66.716  0.00  0.00    -0.171 NA
ATOM      4  C   UNL     1      -9.891  18.819  67.674  0.00  0.00    +0.302 A 
ATOM      5  O   UNL     1     -10.702  19.689  68.113  0.00  0.00    -0.263 OA
ATOM      6  C   UNL     1     -10.340  17.507  67.644  0.00  0.00    +0.175 A 
ATOM      7  N   UNL     1     -11.102  16.777  68.482  0.00  0.00    -0.217 NA
ATOM      8  C   UNL     1     -11.386  15.600  67.876  0.00  0.00    +0.180 A 
ATOM      9  N   UNL     1     -10.794  15.546  66.665  0.00  0.00    -0.294 N 
ATOM     10  C   UNL     1      -9.957  16.613  66.655  0.00  0.00    +0.171 A 
ATOM     11  N   UNL     1      -8.963  17.014  65.841  0.00  0.00    -0.192 NA
ENDROOT
BRANCH   9  12
ATOM     12  C   UNL     1     -11.232  14.840  65.466  0.00  0.00    +0.109 C 
BRANCH  12  13
ATOM     13  C   UNL     1     -10.355  13.635  65.173  0.00  0.00    +0.030 C 
BRANCH  13  14
ATOM     14  C   UNL     1     -11.199  12.393  65.182  0.00  0.00    +0.068 C 
BRANCH  14  15
ATOM     15  C   UNL     1     -12.650  12.675  64.856  0.00  0.00    +0.185 C 
ATOM     16  O   UNL     1     -12.823  12.282  63.519  0.00  0.00    -0.220 OA
ENDBRANCH  14  15
BRANCH  14  17
ATOM     17  C   UNL     1     -11.023  11.542  66.403  0.00  0.00    +0.185 C 
ATOM     18  O   UNL     1     -12.017  11.707  67.353  0.00  0.00    -0.220 OA
ENDBRANCH  14  17
ENDBRANCH  13  14
ENDBRANCH  12  13
ENDBRANCH   9  12
TORSDOF 5
ENDMDL
MODEL 9
REMARK VINA RESULT:      -5.6      5.421      8.115
REMARK  Name = 
REMARK  5 active torsions:
REMARK  status: ('A' for Active; 'I' for Inactive)
REMARK    1  A    between atoms: N_8  and  C_9
REMARK    2  A    between atoms: C_9  and  C_10
REMARK    3  A    between atoms: C_10  and  C_11
REMARK    4  A    between atoms: C_11  and  C_12
REMARK    5  A    between atoms: C_11  and  C_14
REMARK                            x       y       z     vdW  Elec       q    Type
REMARK                         _______ _______ _______ _____ _____    ______ ____
ROOT
ATOM      1  N   UNL     1      -4.710  21.442  72.031  0.00  0.00    -0.086 NA
ATOM      2  C   UNL     1      -5.278  20.303  71.378  0.00  0.00    +0.261 A 
ATOM      3  N   UNL     1      -5.087  19.043  71.837  0.00  0.00    -0.171 NA
ATOM      4  C   UNL     1      -5.042  17.996  70.978  0.00  0.00    +0.302 A 
ATOM      5  O   UNL     1      -5.122  16.809  71.416  0.00  0.00    -0.263 OA
ATOM      6  C   UNL     1      -5.575  18.234  69.720  0.00  0.00    +0.175 A 
ATOM      7  N   UNL     1      -5.590  17.519  68.578  0.00  0.00    -0.217 NA
ATOM      8  C   UNL     1      -6.411  18.143  67.701  0.00  0.00    +0.180 A 
ATOM      9  N   UNL     1      -6.907  19.270  68.249  0.00  0.00    -0.294 N 
ATOM     10  C   UNL     1      -6.185  19.435  69.386  0.00  0.00    +0.171 A 
ATOM     11  N   UNL     1      -6.051  20.438  70.272  0.00  0.00    -0.192 NA
ENDROOT
BRANCH   9  12
ATOM     12  C   UNL     1      -8.186  19.924  67.994  0.00  0.00    +0.109 C 
BRANCH  12  13
ATOM     13  C   UNL     1      -9.307  19.298  68.806  0.00  0.00    +0.030 C 
BRANCH  13  14
ATOM     14  C   UNL     1     -10.323  18.704  67.873  0.00  0.00    +0.068 C 
BRANCH  14  15
ATOM     15  C   UNL     1     -10.310  17.190  67.890  0.00  0.00    +0.185 C 
ATOM     16  O   UNL     1     -11.425  16.807  68.653  0.00  0.00    -0.220 OA
ENDBRANCH  14  15
BRANCH  14  17
ATOM     17  C   UNL     1     -10.296  19.279  66.490  0.00  0.00    +0.185 C 
ATOM     18  O   UNL     1     -10.577  18.362  65.492  0.00  0.00    -0.220 OA
ENDBRANCH  14  17
ENDBRANCH  13  14
ENDBRANCH  12  13
ENDBRANCH   9  12
TORSDOF 5
ENDMDL
