MODEL 1
REMARK VINA RESULT:      -7.8      0.000      0.000
REMARK  Name = 
REMARK  6 active torsions:
REMARK  status: ('A' for Active; 'I' for Inactive)
REMARK    1  A    between atoms: C_3  and  C_5
REMARK    2  A    between atoms: C_7  and  O_8
REMARK    3  A    between atoms: O_8  and  C_9
REMARK    4  A    between atoms: C_12  and  N_13
REMARK    5  A    between atoms: N_16  and  C_17
REMARK    6  A    between atoms: C_22  and  C_23
REMARK                            x       y       z     vdW  Elec       q    Type
REMARK                         _______ _______ _______ _____ _____    ______ ____
ROOT
ATOM      1  C   UNL     1      -9.260  10.778  64.994  0.00  0.00    +0.145 A 
ATOM      2  C   UNL     1      -9.716   9.480  65.183  0.00  0.00    +0.039 A 
ATOM      3  C   UNL     1      -9.896   8.948  66.455  0.00  0.00    +0.020 A 
ATOM      4  C   UNL     1      -9.684   9.755  67.536  0.00  0.00    +0.075 A 
ATOM      5  C   UNL     1      -8.840  10.844  67.347  0.00  0.00    +0.020 A 
ATOM      6  C   UNL     1      -8.586  11.334  66.074  0.00  0.00    +0.039 A 
ENDROOT
BRANCH   4   7
ATOM      7  N   UNL     1     -10.372   9.608  68.784  0.00  0.00    -0.161 NA
ATOM      8  C   UNL     1     -11.465  10.449  69.077  0.00  0.00    +0.348 C 
ATOM      9  N   UNL     1     -11.861  10.821  70.394  0.00  0.00    -0.161 NA
ATOM     10  O   UNL     1     -12.166  10.938  68.140  0.00  0.00    -0.248 OA
BRANCH   9  11
ATOM     11  C   UNL     1     -12.401  12.112  70.701  0.00  0.00    +0.075 A 
ATOM     12  C   UNL     1     -11.706  13.281  70.484  0.00  0.00    +0.021 A 
ATOM     13  C   UNL     1     -12.086  14.451  71.130  0.00  0.00    +0.083 A 
ATOM     14  C   UNL     1     -13.072  14.440  72.110  0.00  0.00    +0.062 A 
ATOM     15 CL   UNL     1     -13.516  15.853  73.026  0.00  0.00    -0.082 Cl
ATOM     16  C   UNL     1     -13.571  13.227  72.505  0.00  0.00    +0.013 A 
ATOM     17  C   UNL     1     -13.437  12.162  71.627  0.00  0.00    +0.018 A 
BRANCH  13  18
ATOM     18  C   UNL     1     -11.719  15.801  70.604  0.00  0.00    +0.419 C 
ATOM     19  F   UNL     1     -11.591  16.734  71.600  0.00  0.00    -0.166 F 
ATOM     20  F   UNL     1     -12.723  16.163  69.710  0.00  0.00    -0.166 F 
ATOM     21  F   UNL     1     -10.540  15.621  69.890  0.00  0.00    -0.166 F 
ENDBRANCH  13  18
ENDBRANCH   9  11
ENDBRANCH   4   7
BRANCH   1  22
ATOM     22  O   UNL     1      -9.681  11.552  63.908  0.00  0.00    -0.453 OA
BRANCH  22  27
ATOM     23  C   UNL     1     -11.047  14.579  65.346  0.00  0.00    +0.139 A 
ATOM     24  N   UNL     1     -12.099  14.025  65.998  0.00  0.00    -0.239 NA
ATOM     25  C   UNL     1     -12.691  12.956  65.411  0.00  0.00    +0.102 A 
ATOM     26  C   UNL     1     -11.924  12.197  64.555  0.00  0.00    +0.058 A 
ATOM     27  C   UNL     1     -10.625  12.539  64.204  0.00  0.00    +0.149 A 
ATOM     28  C   UNL     1     -10.258  13.850  64.468  0.00  0.00    +0.061 A 
BRANCH  23  31
ATOM     29  C   UNL     1      -9.486  17.697  66.761  0.00  0.00    +0.139 C 
ATOM     30  N   UNL     1     -10.325  16.526  66.697  0.00  0.00    -0.198 NA
ATOM     31  C   UNL     1     -10.808  16.023  65.470  0.00  0.00    +0.283 C 
ATOM     32  O   UNL     1     -10.940  16.793  64.492  0.00  0.00    -0.267 OA
ENDBRANCH  23  31
ENDBRANCH  22  27
ENDBRANCH   1  22
TORSDOF 6
ENDMDL
MODEL 2
REMARK VINA RESULT:      -7.3      4.102      7.037
REMARK  Name = 
REMARK  6 active torsions:
REMARK  status: ('A' for Active; 'I' for Inactive)
REMARK    1  A    between atoms: C_3  and  C_5
REMARK    2  A    between atoms: C_7  and  O_8
REMARK    3  A    between atoms: O_8  and  C_9
REMARK    4  A    between atoms: C_12  and  N_13
REMARK    5  A    between atoms: N_16  and  C_17
REMARK    6  A    between atoms: C_22  and  C_23
REMARK                            x       y       z     vdW  Elec       q    Type
REMARK                         _______ _______ _______ _____ _____    ______ ____
ROOT
ATOM      1  C   UNL     1     -10.963  15.460  68.509  0.00  0.00    +0.145 A 
ATOM      2  C   UNL     1     -11.277  15.192  67.183  0.00  0.00    +0.039 A 
ATOM      3  C   UNL     1     -10.506  14.330  66.411  0.00  0.00    +0.020 A 
ATOM      4  C   UNL     1      -9.459  13.683  67.003  0.00  0.00    +0.075 A 
ATOM      5  C   UNL     1      -8.919  14.277  68.137  0.00  0.00    +0.020 A 
ATOM      6  C   UNL     1      -9.647  15.202  68.872  0.00  0.00    +0.039 A 
ENDROOT
BRANCH   4   7
ATOM      7  N   UNL     1      -8.990  12.393  66.593  0.00  0.00    -0.161 NA
ATOM      8  C   UNL     1      -9.563  11.234  67.158  0.00  0.00    +0.348 C 
ATOM      9  N   UNL     1      -8.882   9.993  67.308  0.00  0.00    -0.161 NA
ATOM     10  O   UNL     1     -10.758  11.254  67.583  0.00  0.00    -0.248 OA
BRANCH   9  11
ATOM     11  C   UNL     1      -9.103   9.121  68.423  0.00  0.00    +0.075 A 
ATOM     12  C   UNL     1     -10.125   8.198  68.456  0.00  0.00    +0.021 A 
ATOM     13  C   UNL     1     -10.539   7.655  69.666  0.00  0.00    +0.083 A 
ATOM     14  C   UNL     1     -10.040   8.132  70.872  0.00  0.00    +0.062 A 
ATOM     15 CL   UNL     1     -10.597   7.565  72.421  0.00  0.00    -0.082 Cl
ATOM     16  C   UNL     1      -9.221   9.230  70.839  0.00  0.00    +0.013 A 
ATOM     17  C   UNL     1      -8.571   9.509  69.646  0.00  0.00    +0.018 A 
BRANCH  13  18
ATOM     18  C   UNL     1     -11.264   6.351  69.742  0.00  0.00    +0.419 C 
ATOM     19  F   UNL     1     -12.458   6.453  70.406  0.00  0.00    -0.166 F 
ATOM     20  F   UNL     1     -10.410   5.461  70.388  0.00  0.00    -0.166 F 
ATOM     21  F   UNL     1     -11.422   5.928  68.427  0.00  0.00    -0.166 F 
ENDBRANCH  13  18
ENDBRANCH   9  11
ENDBRANCH   4   7
BRANCH   1  22
ATOM     22  O   UNL     1     -11.956  15.711  69.461  0.00  0.00    -0.453 OA
BRANCH  22  27
ATOM     23  C   UNL     1     -12.845  12.641  71.159  0.00  0.00    +0.139 A 
ATOM     24  N   UNL     1     -13.504  13.186  72.210  0.00  0.00    -0.239 NA
ATOM     25  C   UNL     1     -13.046  14.374  72.673  0.00  0.00    +0.102 A 
ATOM     26  C   UNL     1     -12.361  15.178  71.789  0.00  0.00    +0.058 A 
ATOM     27  C   UNL     1     -12.044  14.777  70.498  0.00  0.00    +0.149 A 
ATOM     28  C   UNL     1     -12.133  13.415  70.253  0.00  0.00    +0.061 A 
BRANCH  23  31
ATOM     29  C   UNL     1     -13.733   9.075  71.969  0.00  0.00    +0.139 C 
ATOM     30  N   UNL     1     -13.167  10.389  72.142  0.00  0.00    -0.198 NA
ATOM     31  C   UNL     1     -12.768  11.179  71.042  0.00  0.00    +0.283 C 
ATOM     32  O   UNL     1     -12.443  10.625  69.966  0.00  0.00    -0.267 OA
ENDBRANCH  23  31
ENDBRANCH  22  27
ENDBRANCH   1  22
TORSDOF 6
ENDMDL
MODEL 3
REMARK VINA RESULT:      -7.2      3.657      6.617
REMARK  Name = 
REMARK  6 active torsions:
REMARK  status: ('A' for Active; 'I' for Inactive)
REMARK    1  A    between atoms: C_3  and  C_5
REMARK    2  A    between atoms: C_7  and  O_8
REMARK    3  A    between atoms: O_8  and  C_9
REMARK    4  A    between atoms: C_12  and  N_13
REMARK    5  A    between atoms: N_16  and  C_17
REMARK    6  A    between atoms: C_22  and  C_23
REMARK                            x       y       z     vdW  Elec       q    Type
REMARK                         _______ _______ _______ _____ _____    ______ ____
ROOT
ATOM      1  C   UNL     1     -10.872   5.998  70.447  0.00  0.00    +0.145 A 
ATOM      2  C   UNL     1      -9.506   5.852  70.659  0.00  0.00    +0.039 A 
ATOM      3  C   UNL     1      -8.573   6.305  69.735  0.00  0.00    +0.020 A 
ATOM      4  C   UNL     1      -9.019   6.971  68.628  0.00  0.00    +0.075 A 
ATOM      5  C   UNL     1     -10.328   6.720  68.234  0.00  0.00    +0.020 A 
ATOM      6  C   UNL     1     -11.251   6.190  69.125  0.00  0.00    +0.039 A 
ENDROOT
BRANCH   4   7
ATOM      7  N   UNL     1      -8.263   7.983  67.953  0.00  0.00    -0.161 NA
ATOM      8  C   UNL     1      -8.459   9.338  68.291  0.00  0.00    +0.348 C 
ATOM      9  N   UNL     1      -8.256  10.426  67.396  0.00  0.00    -0.161 NA
ATOM     10  O   UNL     1      -8.850   9.656  69.455  0.00  0.00    -0.248 OA
BRANCH   9  11
ATOM     11  C   UNL     1      -9.068  11.607  67.420  0.00  0.00    +0.075 A 
ATOM     12  C   UNL     1     -10.054  11.852  66.490  0.00  0.00    +0.021 A 
ATOM     13  C   UNL     1     -10.545  13.139  66.314  0.00  0.00    +0.083 A 
ATOM     14  C   UNL     1      -9.959  14.223  66.957  0.00  0.00    +0.062 A 
ATOM     15 CL   UNL     1     -10.463  15.869  66.694  0.00  0.00    -0.082 Cl
ATOM     16  C   UNL     1      -8.813  14.002  67.673  0.00  0.00    +0.013 A 
ATOM     17  C   UNL     1      -8.567  12.707  68.105  0.00  0.00    +0.018 A 
BRANCH  13  18
ATOM     18  C   UNL     1     -11.889  13.399  65.712  0.00  0.00    +0.419 C 
ATOM     19  F   UNL     1     -11.826  14.247  64.638  0.00  0.00    -0.166 F 
ATOM     20  F   UNL     1     -12.677  13.937  66.725  0.00  0.00    -0.166 F 
ATOM     21  F   UNL     1     -12.400  12.151  65.375  0.00  0.00    -0.166 F 
ENDBRANCH  13  18
ENDBRANCH   9  11
ENDBRANCH   4   7
BRANCH   1  22
ATOM     22  O   UNL     1     -11.760   6.203  71.508  0.00  0.00    -0.453 OA
BRANCH  22  27
ATOM     23  C   UNL     1     -13.123   9.547  71.757  0.00  0.00    +0.139 A 
ATOM     24  N   UNL     1     -14.305   9.230  72.340  0.00  0.00    -0.239 NA
ATOM     25  C   UNL     1     -14.867   8.049  71.985  0.00  0.00    +0.102 A 
ATOM     26  C   UNL     1     -14.026   7.057  71.532  0.00  0.00    +0.058 A 
ATOM     27  C   UNL     1     -12.666   7.254  71.337  0.00  0.00    +0.149 A 
ATOM     28  C   UNL     1     -12.254   8.577  71.278  0.00  0.00    +0.061 A 
BRANCH  23  31
ATOM     29  C   UNL     1     -11.946  12.500  69.744  0.00  0.00    +0.139 C 
ATOM     30  N   UNL     1     -11.871  11.272  70.494  0.00  0.00    -0.198 NA
ATOM     31  C   UNL     1     -12.803  10.958  71.506  0.00  0.00    +0.283 C 
ATOM     32  O   UNL     1     -13.401  11.881  72.105  0.00  0.00    -0.267 OA
ENDBRANCH  23  31
ENDBRANCH  22  27
ENDBRANCH   1  22
TORSDOF 6
ENDMDL
MODEL 4
REMARK VINA RESULT:      -7.2      5.551      7.024
REMARK  Name = 
REMARK  6 active torsions:
REMARK  status: ('A' for Active; 'I' for Inactive)
REMARK    1  A    between atoms: C_3  and  C_5
REMARK    2  A    between atoms: C_7  and  O_8
REMARK    3  A    between atoms: O_8  and  C_9
REMARK    4  A    between atoms: C_12  and  N_13
REMARK    5  A    between atoms: N_16  and  C_17
REMARK    6  A    between atoms: C_22  and  C_23
REMARK                            x       y       z     vdW  Elec       q    Type
REMARK                         _______ _______ _______ _____ _____    ______ ____
ROOT
ATOM      1  C   UNL     1     -11.896  13.501  68.906  0.00  0.00    +0.145 A 
ATOM      2  C   UNL     1     -11.348  12.263  68.594  0.00  0.00    +0.039 A 
ATOM      3  C   UNL     1     -11.497  11.167  69.436  0.00  0.00    +0.020 A 
ATOM      4  C   UNL     1     -12.262  11.304  70.559  0.00  0.00    +0.075 A 
ATOM      5  C   UNL     1     -12.414  12.593  71.057  0.00  0.00    +0.020 A 
ATOM      6  C   UNL     1     -12.189  13.700  70.249  0.00  0.00    +0.039 A 
ENDROOT
BRANCH   4   7
ATOM      7  N   UNL     1     -12.998  10.229  71.154  0.00  0.00    -0.161 NA
ATOM      8  C   UNL     1     -12.313   9.075  71.589  0.00  0.00    +0.348 C 
ATOM      9  N   UNL     1     -12.890   7.776  71.651  0.00  0.00    -0.161 NA
ATOM     10  O   UNL     1     -11.099   9.150  71.949  0.00  0.00    -0.248 OA
BRANCH   9  11
ATOM     11  C   UNL     1     -12.142   6.585  71.376  0.00  0.00    +0.075 A 
ATOM     12  C   UNL     1     -11.546   5.834  72.365  0.00  0.00    +0.021 A 
ATOM     13  C   UNL     1     -10.536   4.934  72.048  0.00  0.00    +0.083 A 
ATOM     14  C   UNL     1     -10.007   4.876  70.765  0.00  0.00    +0.062 A 
ATOM     15 CL   UNL     1      -8.672   3.844  70.334  0.00  0.00    -0.082 Cl
ATOM     16  C   UNL     1     -10.425   5.810  69.855  0.00  0.00    +0.013 A 
ATOM     17  C   UNL     1     -11.641   6.435  70.089  0.00  0.00    +0.018 A 
BRANCH  13  18
ATOM     18  C   UNL     1     -10.194   3.782  72.937  0.00  0.00    +0.419 C 
ATOM     19  F   UNL     1      -8.875   3.781  73.308  0.00  0.00    -0.166 F 
ATOM     20  F   UNL     1     -10.513   2.628  72.227  0.00  0.00    -0.166 F 
ATOM     21  F   UNL     1     -11.053   3.877  74.026  0.00  0.00    -0.166 F 
ENDBRANCH  13  18
ENDBRANCH   9  11
ENDBRANCH   4   7
BRANCH   1  22
ATOM     22  O   UNL     1     -12.363  14.367  67.912  0.00  0.00    -0.453 OA
BRANCH  22  27
ATOM     23  C   UNL     1     -10.036  16.666  66.361  0.00  0.00    +0.139 A 
ATOM     24  N   UNL     1     -10.516  16.600  65.095  0.00  0.00    -0.239 NA
ATOM     25  C   UNL     1     -11.014  15.407  64.688  0.00  0.00    +0.102 A 
ATOM     26  C   UNL     1     -11.494  14.556  65.659  0.00  0.00    +0.058 A 
ATOM     27  C   UNL     1     -11.394  14.830  67.016  0.00  0.00    +0.149 A 
ATOM     28  C   UNL     1     -10.485  15.818  67.364  0.00  0.00    +0.061 A 
BRANCH  23  31
ATOM     29  C   UNL     1      -7.664  18.597  68.552  0.00  0.00    +0.139 C 
ATOM     30  N   UNL     1      -8.899  18.238  67.901  0.00  0.00    -0.198 NA
ATOM     31  C   UNL     1      -8.918  17.570  66.658  0.00  0.00    +0.283 C 
ATOM     32  O   UNL     1      -7.948  17.690  65.874  0.00  0.00    -0.267 OA
ENDBRANCH  23  31
ENDBRANCH  22  27
ENDBRANCH   1  22
TORSDOF 6
ENDMDL
MODEL 5
REMARK VINA RESULT:      -7.2      4.427      7.607
REMARK  Name = 
REMARK  6 active torsions:
REMARK  status: ('A' for Active; 'I' for Inactive)
REMARK    1  A    between atoms: C_3  and  C_5
REMARK    2  A    between atoms: C_7  and  O_8
REMARK    3  A    between atoms: O_8  and  C_9
REMARK    4  A    between atoms: C_12  and  N_13
REMARK    5  A    between atoms: N_16  and  C_17
REMARK    6  A    between atoms: C_22  and  C_23
REMARK                            x       y       z     vdW  Elec       q    Type
REMARK                         _______ _______ _______ _____ _____    ______ ____
ROOT
ATOM      1  C   UNL     1      -6.779  20.431  67.526  0.00  0.00    +0.145 A 
ATOM      2  C   UNL     1      -7.943  20.136  68.224  0.00  0.00    +0.039 A 
ATOM      3  C   UNL     1      -8.660  18.970  67.987  0.00  0.00    +0.020 A 
ATOM      4  C   UNL     1      -8.159  18.064  67.095  0.00  0.00    +0.075 A 
ATOM      5  C   UNL     1      -7.285  18.555  66.132  0.00  0.00    +0.020 A 
ATOM      6  C   UNL     1      -6.624  19.762  66.318  0.00  0.00    +0.039 A 
ENDROOT
BRANCH   4   7
ATOM      7  N   UNL     1      -8.385  16.653  67.185  0.00  0.00    -0.161 NA
ATOM      8  C   UNL     1      -9.673  16.175  67.506  0.00  0.00    +0.348 C 
ATOM      9  N   UNL     1      -9.928  14.941  68.168  0.00  0.00    -0.161 NA
ATOM     10  O   UNL     1     -10.700  16.859  67.214  0.00  0.00    -0.248 OA
BRANCH   9  11
ATOM     11  C   UNL     1     -11.006  14.772  69.097  0.00  0.00    +0.075 A 
ATOM     12  C   UNL     1     -11.032  15.387  70.328  0.00  0.00    +0.021 A 
ATOM     13  C   UNL     1     -11.871  14.915  71.330  0.00  0.00    +0.083 A 
ATOM     14  C   UNL     1     -12.588  13.736  71.165  0.00  0.00    +0.062 A 
ATOM     15 CL   UNL     1     -13.573  13.040  72.421  0.00  0.00    -0.082 Cl
ATOM     16  C   UNL     1     -12.352  12.993  70.039  0.00  0.00    +0.013 A 
ATOM     17  C   UNL     1     -11.804  13.644  68.944  0.00  0.00    +0.018 A 
BRANCH  13  18
ATOM     18  C   UNL     1     -12.305  15.776  72.471  0.00  0.00    +0.419 C 
ATOM     19  F   UNL     1     -13.659  15.985  72.485  0.00  0.00    -0.166 F 
ATOM     20  F   UNL     1     -11.617  16.980  72.341  0.00  0.00    -0.166 F 
ATOM     21  F   UNL     1     -11.854  15.136  73.620  0.00  0.00    -0.166 F 
ENDBRANCH  13  18
ENDBRANCH   9  11
ENDBRANCH   4   7
BRANCH   1  22
ATOM     22  O   UNL     1      -5.727  21.135  68.120  0.00  0.00    -0.453 OA
BRANCH  22  27
ATOM     23  C   UNL     1      -4.821  18.412  70.326  0.00  0.00    +0.139 A 
ATOM     24  N   UNL     1      -5.000  19.053  71.507  0.00  0.00    -0.239 NA
ATOM     25  C   UNL     1      -4.709  20.377  71.538  0.00  0.00    +0.102 A 
ATOM     26  C   UNL     1      -4.785  21.071  70.350  0.00  0.00    +0.058 A 
ATOM     27  C   UNL     1      -5.045  20.455  69.134  0.00  0.00    +0.149 A 
ATOM     28  C   UNL     1      -4.878  19.079  69.109  0.00  0.00    +0.061 A 
BRANCH  23  31
ATOM     29  C   UNL     1      -4.997  14.798  71.356  0.00  0.00    +0.139 C 
ATOM     30  N   UNL     1      -4.740  16.212  71.461  0.00  0.00    -0.198 NA
ATOM     31  C   UNL     1      -4.427  16.998  70.331  0.00  0.00    +0.283 C 
ATOM     32  O   UNL     1      -3.902  16.461  69.329  0.00  0.00    -0.267 OA
ENDBRANCH  23  31
ENDBRANCH  22  27
ENDBRANCH   1  22
TORSDOF 6
ENDMDL
MODEL 6
REMARK VINA RESULT:      -7.1      4.596      6.954
REMARK  Name = 
REMARK  6 active torsions:
REMARK  status: ('A' for Active; 'I' for Inactive)
REMARK    1  A    between atoms: C_3  and  C_5
REMARK    2  A    between atoms: C_7  and  O_8
REMARK    3  A    between atoms: O_8  and  C_9
REMARK    4  A    between atoms: C_12  and  N_13
REMARK    5  A    between atoms: N_16  and  C_17
REMARK    6  A    between atoms: C_22  and  C_23
REMARK                            x       y       z     vdW  Elec       q    Type
REMARK                         _______ _______ _______ _____ _____    ______ ____
ROOT
ATOM      1  C   UNL     1      -9.029  17.657  67.048  0.00  0.00    +0.145 A 
ATOM      2  C   UNL     1      -8.401  16.420  66.973  0.00  0.00    +0.039 A 
ATOM      3  C   UNL     1      -9.081  15.240  67.249  0.00  0.00    +0.020 A 
ATOM      4  C   UNL     1     -10.416  15.305  67.530  0.00  0.00    +0.075 A 
ATOM      5  C   UNL     1     -10.893  16.517  68.018  0.00  0.00    +0.020 A 
ATOM      6  C   UNL     1     -10.182  17.693  67.821  0.00  0.00    +0.039 A 
ENDROOT
BRANCH   4   7
ATOM      7  N   UNL     1     -11.343  14.254  67.233  0.00  0.00    -0.161 NA
ATOM      8  C   UNL     1     -11.615  13.271  68.207  0.00  0.00    +0.348 C 
ATOM      9  N   UNL     1     -12.013  11.937  67.912  0.00  0.00    -0.161 NA
ATOM     10  O   UNL     1     -11.503  13.546  69.440  0.00  0.00    -0.248 OA
BRANCH   9  11
ATOM     11  C   UNL     1     -11.608  10.817  68.709  0.00  0.00    +0.075 A 
ATOM     12  C   UNL     1     -12.367  10.329  69.749  0.00  0.00    +0.021 A 
ATOM     13  C   UNL     1     -11.789   9.517  70.717  0.00  0.00    +0.083 A 
ATOM     14  C   UNL     1     -10.416   9.300  70.742  0.00  0.00    +0.062 A 
ATOM     15 CL   UNL     1      -9.623   8.380  71.989  0.00  0.00    -0.082 Cl
ATOM     16  C   UNL     1      -9.639  10.003  69.860  0.00  0.00    +0.013 A 
ATOM     17  C   UNL     1     -10.253  10.506  68.723  0.00  0.00    +0.018 A 
BRANCH  13  18
ATOM     18  C   UNL     1     -12.601   8.589  71.561  0.00  0.00    +0.419 C 
ATOM     19  F   UNL     1     -12.267   8.659  72.888  0.00  0.00    -0.166 F 
ATOM     20  F   UNL     1     -12.384   7.308  71.060  0.00  0.00    -0.166 F 
ATOM     21  F   UNL     1     -13.929   8.931  71.328  0.00  0.00    -0.166 F 
ENDBRANCH  13  18
ENDBRANCH   9  11
ENDBRANCH   4   7
BRANCH   1  22
ATOM     22  O   UNL     1      -8.677  18.710  66.197  0.00  0.00    -0.453 OA
BRANCH  22  27
ATOM     23  C   UNL     1      -6.188  20.633  67.988  0.00  0.00    +0.139 A 
ATOM     24  N   UNL     1      -5.890  21.522  67.008  0.00  0.00    -0.239 NA
ATOM     25  C   UNL     1      -5.935  21.068  65.732  0.00  0.00    +0.102 A 
ATOM     26  C   UNL     1      -6.755  19.992  65.470  0.00  0.00    +0.058 A 
ATOM     27  C   UNL     1      -7.443  19.311  66.465  0.00  0.00    +0.149 A 
ATOM     28  C   UNL     1      -7.000  19.531  67.760  0.00  0.00    +0.061 A 
BRANCH  23  31
ATOM     29  C   UNL     1      -5.601  19.885  71.628  0.00  0.00    +0.139 C 
ATOM     30  N   UNL     1      -6.256  20.404  70.453  0.00  0.00    -0.198 NA
ATOM     31  C   UNL     1      -5.532  20.762  69.296  0.00  0.00    +0.283 C 
ATOM     32  O   UNL     1      -4.330  21.097  69.394  0.00  0.00    -0.267 OA
ENDBRANCH  23  31
ENDBRANCH  22  27
ENDBRANCH   1  22
TORSDOF 6
ENDMDL
MODEL 7
REMARK VINA RESULT:      -7.1      4.392      6.526
REMARK  Name = 
REMARK  6 active torsions:
REMARK  status: ('A' for Active; 'I' for Inactive)
REMARK    1  A    between atoms: C_3  and  C_5
REMARK    2  A    between atoms: C_7  and  O_8
REMARK    3  A    between atoms: O_8  and  C_9
REMARK    4  A    between atoms: C_12  and  N_13
REMARK    5  A    between atoms: N_16  and  C_17
REMARK    6  A    between atoms: C_22  and  C_23
REMARK                            x       y       z     vdW  Elec       q    Type
REMARK                         _______ _______ _______ _____ _____    ______ ____
ROOT
ATOM      1  C   UNL     1      -9.359  16.667  66.731  0.00  0.00    +0.145 A 
ATOM      2  C   UNL     1     -10.339  16.564  65.751  0.00  0.00    +0.039 A 
ATOM      3  C   UNL     1     -10.897  15.340  65.405  0.00  0.00    +0.020 A 
ATOM      4  C   UNL     1     -10.517  14.228  66.101  0.00  0.00    +0.075 A 
ATOM      5  C   UNL     1      -9.278  14.278  66.729  0.00  0.00    +0.020 A 
ATOM      6  C   UNL     1      -8.669  15.494  67.008  0.00  0.00    +0.039 A 
ENDROOT
BRANCH   4   7
ATOM      7  N   UNL     1     -11.367  13.095  66.314  0.00  0.00    -0.161 NA
ATOM      8  C   UNL     1     -11.654  12.679  67.631  0.00  0.00    +0.348 C 
ATOM      9  N   UNL     1     -11.964  11.340  68.000  0.00  0.00    -0.161 NA
ATOM     10  O   UNL     1     -11.638  13.517  68.583  0.00  0.00    -0.248 OA
BRANCH   9  11
ATOM     11  C   UNL     1     -11.557  10.771  69.251  0.00  0.00    +0.075 A 
ATOM     12  C   UNL     1     -10.496   9.901  69.364  0.00  0.00    +0.021 A 
ATOM     13  C   UNL     1     -10.371   9.090  70.485  0.00  0.00    +0.083 A 
ATOM     14  C   UNL     1     -11.379   9.031  71.440  0.00  0.00    +0.062 A 
ATOM     15 CL   UNL     1     -11.327   7.957  72.811  0.00  0.00    -0.082 Cl
ATOM     16  C   UNL     1     -12.546   9.700  71.185  0.00  0.00    +0.013 A 
ATOM     17  C   UNL     1     -12.501  10.742  70.271  0.00  0.00    +0.018 A 
BRANCH  13  18
ATOM     18  C   UNL     1      -9.059   8.507  70.899  0.00  0.00    +0.419 C 
ATOM     19  F   UNL     1      -8.668   8.927  72.143  0.00  0.00    -0.166 F 
ATOM     20  F   UNL     1      -8.134   8.888  69.931  0.00  0.00    -0.166 F 
ATOM     21  F   UNL     1      -9.220   7.127  70.830  0.00  0.00    -0.166 F 
ENDBRANCH  13  18
ENDBRANCH   9  11
ENDBRANCH   4   7
BRANCH   1  22
ATOM     22  O   UNL     1      -9.265  17.793  67.556  0.00  0.00    -0.453 OA
BRANCH  22  27
ATOM     23  C   UNL     1      -6.692  20.214  68.345  0.00  0.00    +0.139 A 
ATOM     24  N   UNL     1      -6.812  20.990  67.240  0.00  0.00    -0.239 NA
ATOM     25  C   UNL     1      -7.140  20.364  66.084  0.00  0.00    +0.102 A 
ATOM     26  C   UNL     1      -7.832  19.176  66.179  0.00  0.00    +0.058 A 
ATOM     27  C   UNL     1      -8.108  18.562  67.392  0.00  0.00    +0.149 A 
ATOM     28  C   UNL     1      -7.362  19.005  68.474  0.00  0.00    +0.061 A 
BRANCH  23  31
ATOM     29  C   UNL     1      -5.105  20.136  71.756  0.00  0.00    +0.139 C 
ATOM     30  N   UNL     1      -6.087  20.417  70.739  0.00  0.00    -0.198 NA
ATOM     31  C   UNL     1      -5.727  20.593  69.386  0.00  0.00    +0.283 C 
ATOM     32  O   UNL     1      -4.573  20.982  69.096  0.00  0.00    -0.267 OA
ENDBRANCH  23  31
ENDBRANCH  22  27
ENDBRANCH   1  22
TORSDOF 6
ENDMDL
MODEL 8
REMARK VINA RESULT:      -7.1      4.378      6.709
REMARK  Name = 
REMARK  6 active torsions:
REMARK  status: ('A' for Active; 'I' for Inactive)
REMARK    1  A    between atoms: C_3  and  C_5
REMARK    2  A    between atoms: C_7  and  O_8
REMARK    3  A    between atoms: O_8  and  C_9
REMARK    4  A    between atoms: C_12  and  N_13
REMARK    5  A    between atoms: N_16  and  C_17
REMARK    6  A    between atoms: C_22  and  C_23
REMARK                            x       y       z     vdW  Elec       q    Type
REMARK                         _______ _______ _______ _____ _____    ______ ____
ROOT
ATOM      1  C   UNL     1     -10.557  17.447  67.558  0.00  0.00    +0.145 A 
ATOM      2  C   UNL     1     -11.122  16.692  68.578  0.00  0.00    +0.039 A 
ATOM      3  C   UNL     1     -10.920  15.320  68.667  0.00  0.00    +0.020 A 
ATOM      4  C   UNL     1     -10.086  14.722  67.765  0.00  0.00    +0.075 A 
ATOM      5  C   UNL     1      -9.905  15.378  66.553  0.00  0.00    +0.020 A 
ATOM      6  C   UNL     1     -10.182  16.733  66.428  0.00  0.00    +0.039 A 
ENDROOT
BRANCH   4   7
ATOM      7  N   UNL     1      -9.313  13.552  68.053  0.00  0.00    -0.161 NA
ATOM      8  C   UNL     1      -9.919  12.281  67.968  0.00  0.00    +0.348 C 
ATOM      9  N   UNL     1      -9.514  11.147  68.727  0.00  0.00    -0.161 NA
ATOM     10  O   UNL     1     -10.897  12.090  67.184  0.00  0.00    -0.248 OA
BRANCH   9  11
ATOM     11  C   UNL     1     -10.444  10.168  69.207  0.00  0.00    +0.075 A 
ATOM     12  C   UNL     1     -11.281  10.395  70.277  0.00  0.00    +0.021 A 
ATOM     13  C   UNL     1     -11.874   9.329  70.940  0.00  0.00    +0.083 A 
ATOM     14  C   UNL     1     -11.528   8.017  70.640  0.00  0.00    +0.062 A 
ATOM     15 CL   UNL     1     -12.160   6.646  71.508  0.00  0.00    -0.082 Cl
ATOM     16  C   UNL     1     -10.502   7.810  69.758  0.00  0.00    +0.013 A 
ATOM     17  C   UNL     1     -10.190   8.840  68.883  0.00  0.00    +0.018 A 
BRANCH  13  18
ATOM     18  C   UNL     1     -13.118   9.496  71.753  0.00  0.00    +0.419 C 
ATOM     19  F   UNL     1     -14.231   9.023  71.110  0.00  0.00    -0.166 F 
ATOM     20  F   UNL     1     -13.237  10.857  72.018  0.00  0.00    -0.166 F 
ATOM     21  F   UNL     1     -12.877   8.836  72.953  0.00  0.00    -0.166 F 
ENDBRANCH  13  18
ENDBRANCH   9  11
ENDBRANCH   4   7
BRANCH   1  22
ATOM     22  O   UNL     1     -10.155  18.771  67.763  0.00  0.00    -0.453 OA
BRANCH  22  27
ATOM     23  C   UNL     1      -6.816  19.804  68.705  0.00  0.00    +0.139 A 
ATOM     24  N   UNL     1      -6.595  20.683  67.698  0.00  0.00    -0.239 NA
ATOM     25  C   UNL     1      -7.144  20.389  66.494  0.00  0.00    +0.102 A 
ATOM     26  C   UNL     1      -8.266  19.589  66.487  0.00  0.00    +0.058 A 
ATOM     27  C   UNL     1      -8.782  19.008  67.636  0.00  0.00    +0.149 A 
ATOM     28  C   UNL     1      -7.928  18.974  68.728  0.00  0.00    +0.061 A 
BRANCH  23  31
ATOM     29  C   UNL     1      -4.861  20.690  71.795  0.00  0.00    +0.139 C 
ATOM     30  N   UNL     1      -5.323  20.766  70.432  0.00  0.00    -0.198 NA
ATOM     31  C   UNL     1      -5.789  19.628  69.740  0.00  0.00    +0.283 C 
ATOM     32  O   UNL     1      -5.389  18.490  70.077  0.00  0.00    -0.267 OA
ENDBRANCH  23  31
ENDBRANCH  22  27
ENDBRANCH   1  22
TORSDOF 6
ENDMDL
MODEL 9
REMARK VINA RESULT:      -7.0      3.710      6.192
REMARK  Name = 
REMARK  6 active torsions:
REMARK  status: ('A' for Active; 'I' for Inactive)
REMARK    1  A    between atoms: C_3  and  C_5
REMARK    2  A    between atoms: C_7  and  O_8
REMARK    3  A    between atoms: O_8  and  C_9
REMARK    4  A    between atoms: C_12  and  N_13
REMARK    5  A    between atoms: N_16  and  C_17
REMARK    6  A    between atoms: C_22  and  C_23
REMARK                            x       y       z     vdW  Elec       q    Type
REMARK                         _______ _______ _______ _____ _____    ______ ____
ROOT
ATOM      1  C   UNL     1     -10.315  15.575  67.178  0.00  0.00    +0.145 A 
ATOM      2  C   UNL     1     -10.618  15.423  65.830  0.00  0.00    +0.039 A 
ATOM      3  C   UNL     1     -10.224  14.298  65.117  0.00  0.00    +0.020 A 
ATOM      4  C   UNL     1      -9.585  13.291  65.784  0.00  0.00    +0.075 A 
ATOM      5  C   UNL     1      -8.928  13.640  66.959  0.00  0.00    +0.020 A 
ATOM      6  C   UNL     1      -9.256  14.805  67.639  0.00  0.00    +0.039 A 
ENDROOT
BRANCH   4   7
ATOM      7  N   UNL     1      -9.668  11.912  65.408  0.00  0.00    -0.161 NA
ATOM      8  C   UNL     1     -10.540  11.052  66.108  0.00  0.00    +0.348 C 
ATOM      9  N   UNL     1     -10.337   9.651  66.258  0.00  0.00    -0.161 NA
ATOM     10  O   UNL     1     -11.583  11.514  66.664  0.00  0.00    -0.248 OA
BRANCH   9  11
ATOM     11  C   UNL     1     -10.710   8.940  67.445  0.00  0.00    +0.075 A 
ATOM     12  C   UNL     1     -10.556   9.466  68.708  0.00  0.00    +0.021 A 
ATOM     13  C   UNL     1     -10.563   8.632  69.819  0.00  0.00    +0.083 A 
ATOM     14  C   UNL     1     -10.578   7.250  69.676  0.00  0.00    +0.062 A 
ATOM     15 CL   UNL     1     -10.483   6.155  71.027  0.00  0.00    -0.082 Cl
ATOM     16  C   UNL     1     -10.465   6.734  68.413  0.00  0.00    +0.013 A 
ATOM     17  C   UNL     1     -10.808   7.557  67.350  0.00  0.00    +0.018 A 
BRANCH  13  18
ATOM     18  C   UNL     1     -10.882   9.140  71.188  0.00  0.00    +0.419 C 
ATOM     19  F   UNL     1      -9.861   8.928  72.077  0.00  0.00    -0.166 F 
ATOM     20  F   UNL     1     -12.039   8.480  71.594  0.00  0.00    -0.166 F 
ATOM     21  F   UNL     1     -11.180  10.489  71.032  0.00  0.00    -0.166 F 
ENDBRANCH  13  18
ENDBRANCH   9  11
ENDBRANCH   4   7
BRANCH   1  22
ATOM     22  O   UNL     1     -11.179  16.243  68.052  0.00  0.00    -0.453 OA
BRANCH  22  27
ATOM     23  C   UNL     1     -12.428  14.882  71.164  0.00  0.00    +0.139 A 
ATOM     24  N   UNL     1     -12.098  13.584  70.953  0.00  0.00    -0.239 NA
ATOM     25  C   UNL     1     -12.167  13.133  69.677  0.00  0.00    +0.102 A 
ATOM     26  C   UNL     1     -12.027  14.060  68.668  0.00  0.00    +0.058 A 
ATOM     27  C   UNL     1     -11.920  15.423  68.908  0.00  0.00    +0.149 A 
ATOM     28  C   UNL     1     -12.312  15.843  70.170  0.00  0.00    +0.061 A 
BRANCH  23  31
ATOM     29  C   UNL     1     -12.499  15.838  74.803  0.00  0.00    +0.139 C 
ATOM     30  N   UNL     1     -12.349  15.003  73.638  0.00  0.00    -0.198 NA
ATOM     31  C   UNL     1     -13.048  15.265  72.439  0.00  0.00    +0.283 C 
ATOM     32  O   UNL     1     -14.132  15.891  72.478  0.00  0.00    -0.267 OA
ENDBRANCH  23  31
ENDBRANCH  22  27
ENDBRANCH   1  22
TORSDOF 6
ENDMDL
