MODEL 1
REMARK VINA RESULT:      -7.0      0.000      0.000
REMARK  Name = 
REMARK  3 active torsions:
REMARK  status: ('A' for Active; 'I' for Inactive)
REMARK    1  A    between atoms: N_7  and  C_8
REMARK    2  A    between atoms: C_11  and  N_12
REMARK    3  A    between atoms: C_15  and  C_16
REMARK                            x       y       z     vdW  Elec       q    Type
REMARK                         _______ _______ _______ _____ _____    ______ ____
ROOT
ATOM      1  C   UNL     1      -9.906  15.386  66.258  0.00  0.00    +0.063 A 
ATOM      2  C   UNL     1     -10.856  14.874  65.384  0.00  0.00    +0.025 A 
ATOM      3  C   UNL     1     -11.013  13.501  65.226  0.00  0.00    +0.142 A 
ATOM      4  C   UNL     1     -10.466  12.642  66.166  0.00  0.00    +0.294 A 
ATOM      5  C   UNL     1      -9.431  13.126  66.958  0.00  0.00    +0.077 A 
ATOM      6  C   UNL     1      -9.025  14.444  66.778  0.00  0.00    +0.022 A 
ENDROOT
BRANCH   1  11
ATOM      7  C   UNL     1      -7.899  18.843  68.372  0.00  0.00    +0.031 C 
ATOM      8  C   UNL     1      -9.343  18.629  67.980  0.00  0.00    +0.149 C 
ATOM      9  C   UNL     1      -9.312  17.832  66.712  0.00  0.00    +0.254 C 
ATOM     10  O   UNL     1      -8.506  18.049  65.758  0.00  0.00    -0.272 OA
ATOM     11  N   UNL     1     -10.114  16.657  66.888  0.00  0.00    -0.190 N 
ATOM     12  C   UNL     1     -10.799  16.877  68.125  0.00  0.00    +0.333 C 
ATOM     13  O   UNL     1     -11.796  16.210  68.504  0.00  0.00    -0.250 OA
ATOM     14  N   UNL     1     -10.064  17.812  68.924  0.00  0.00    -0.182 NA
ATOM     15  C   UNL     1     -10.065  19.937  67.802  0.00  0.00    +0.031 C 
ENDBRANCH   1  11
BRANCH   3  16
ATOM     16  C   UNL     1     -12.015  12.966  64.283  0.00  0.00    +0.424 C 
ATOM     17  F   UNL     1     -13.150  12.500  64.890  0.00  0.00    -0.166 F 
ATOM     18  F   UNL     1     -12.327  14.008  63.416  0.00  0.00    -0.166 F 
ATOM     19  F   UNL     1     -11.505  11.956  63.484  0.00  0.00    -0.166 F 
ENDBRANCH   3  16
BRANCH   4  20
ATOM     20  N   UNL     1     -11.190  11.506  66.649  0.00  0.00    +0.081 N 
ATOM     21  O   UNL     1     -12.013  11.701  67.746  0.00  0.00    -0.576 OA
ATOM     22  O   UNL     1     -10.533  10.433  66.677  0.00  0.00    +0.041 OA
ENDBRANCH   4  20
TORSDOF 3
ENDMDL
MODEL 2
REMARK VINA RESULT:      -6.7      1.400      2.210
REMARK  Name = 
REMARK  3 active torsions:
REMARK  status: ('A' for Active; 'I' for Inactive)
REMARK    1  A    between atoms: N_7  and  C_8
REMARK    2  A    between atoms: C_11  and  N_12
REMARK    3  A    between atoms: C_15  and  C_16
REMARK                            x       y       z     vdW  Elec       q    Type
REMARK                         _______ _______ _______ _____ _____    ______ ____
ROOT
ATOM      1  C   UNL     1      -9.233  15.385  66.396  0.00  0.00    +0.063 A 
ATOM      2  C   UNL     1     -10.413  15.147  65.704  0.00  0.00    +0.025 A 
ATOM      3  C   UNL     1     -11.095  13.944  65.848  0.00  0.00    +0.142 A 
ATOM      4  C   UNL     1     -10.791  13.114  66.916  0.00  0.00    +0.294 A 
ATOM      5  C   UNL     1      -9.555  13.279  67.530  0.00  0.00    +0.077 A 
ATOM      6  C   UNL     1      -8.710  14.276  67.054  0.00  0.00    +0.022 A 
ENDROOT
BRANCH   1  11
ATOM      7  C   UNL     1     -10.365  19.751  66.086  0.00  0.00    +0.031 C 
ATOM      8  C   UNL     1      -9.217  19.077  66.802  0.00  0.00    +0.149 C 
ATOM      9  C   UNL     1      -9.736  17.743  67.246  0.00  0.00    +0.254 C 
ATOM     10  O   UNL     1     -10.885  17.561  67.749  0.00  0.00    -0.272 OA
ATOM     11  N   UNL     1      -8.860  16.722  66.753  0.00  0.00    -0.190 N 
ATOM     12  C   UNL     1      -7.727  17.438  66.251  0.00  0.00    +0.333 C 
ATOM     13  O   UNL     1      -6.622  16.902  65.978  0.00  0.00    -0.250 OA
ATOM     14  N   UNL     1      -8.110  18.780  65.928  0.00  0.00    -0.182 NA
ATOM     15  C   UNL     1      -8.730  19.903  67.961  0.00  0.00    +0.031 C 
ENDBRANCH   1  11
BRANCH   3  16
ATOM     16  C   UNL     1     -12.341  13.694  65.097  0.00  0.00    +0.424 C 
ATOM     17  F   UNL     1     -13.466  14.153  65.726  0.00  0.00    -0.166 F 
ATOM     18  F   UNL     1     -12.186  14.327  63.868  0.00  0.00    -0.166 F 
ATOM     19  F   UNL     1     -12.524  12.353  64.804  0.00  0.00    -0.166 F 
ENDBRANCH   3  16
BRANCH   4  20
ATOM     20  N   UNL     1     -11.818  12.459  67.668  0.00  0.00    +0.081 N 
ATOM     21  O   UNL     1     -12.083  12.951  68.936  0.00  0.00    -0.576 OA
ATOM     22  O   UNL     1     -11.813  11.204  67.588  0.00  0.00    +0.041 OA
ENDBRANCH   4  20
TORSDOF 3
ENDMDL
MODEL 3
REMARK VINA RESULT:      -6.6      1.266      1.419
REMARK  Name = 
REMARK  3 active torsions:
REMARK  status: ('A' for Active; 'I' for Inactive)
REMARK    1  A    between atoms: N_7  and  C_8
REMARK    2  A    between atoms: C_11  and  N_12
REMARK    3  A    between atoms: C_15  and  C_16
REMARK                            x       y       z     vdW  Elec       q    Type
REMARK                         _______ _______ _______ _____ _____    ______ ____
ROOT
ATOM      1  C   UNL     1      -9.414  15.918  66.300  0.00  0.00    +0.063 A 
ATOM      2  C   UNL     1     -10.580  15.644  65.596  0.00  0.00    +0.025 A 
ATOM      3  C   UNL     1     -11.166  14.384  65.649  0.00  0.00    +0.142 A 
ATOM      4  C   UNL     1     -10.789  13.502  66.649  0.00  0.00    +0.294 A 
ATOM      5  C   UNL     1      -9.563  13.713  67.268  0.00  0.00    +0.077 A 
ATOM      6  C   UNL     1      -8.802  14.806  66.867  0.00  0.00    +0.022 A 
ENDROOT
BRANCH   1  11
ATOM      7  C   UNL     1      -6.247  18.686  67.958  0.00  0.00    +0.031 C 
ATOM      8  C   UNL     1      -7.690  18.944  67.589  0.00  0.00    +0.149 C 
ATOM      9  C   UNL     1      -7.989  18.037  66.435  0.00  0.00    +0.254 C 
ATOM     10  O   UNL     1      -7.197  17.838  65.466  0.00  0.00    -0.272 OA
ATOM     11  N   UNL     1      -9.141  17.248  66.757  0.00  0.00    -0.190 N 
ATOM     12  C   UNL     1      -9.657  17.845  67.952  0.00  0.00    +0.333 C 
ATOM     13  O   UNL     1     -10.808  17.622  68.408  0.00  0.00    -0.250 OA
ATOM     14  N   UNL     1      -8.611  18.554  68.626  0.00  0.00    -0.182 NA
ATOM     15  C   UNL     1      -7.918  20.390  67.238  0.00  0.00    +0.031 C 
ENDBRANCH   1  11
BRANCH   3  16
ATOM     16  C   UNL     1     -12.397  14.098  64.886  0.00  0.00    +0.424 C 
ATOM     17  F   UNL     1     -13.539  14.155  65.639  0.00  0.00    -0.166 F 
ATOM     18  F   UNL     1     -12.448  15.041  63.865  0.00  0.00    -0.166 F 
ATOM     19  F   UNL     1     -12.355  12.867  64.254  0.00  0.00    -0.166 F 
ENDBRANCH   3  16
BRANCH   4  20
ATOM     20  N   UNL     1     -11.756  12.714  67.353  0.00  0.00    +0.081 N 
ATOM     21  O   UNL     1     -11.969  13.019  68.688  0.00  0.00    -0.576 OA
ATOM     22  O   UNL     1     -11.719  11.482  67.101  0.00  0.00    +0.041 OA
ENDBRANCH   4  20
TORSDOF 3
ENDMDL
MODEL 4
REMARK VINA RESULT:      -6.5      2.364      2.831
REMARK  Name = 
REMARK  3 active torsions:
REMARK  status: ('A' for Active; 'I' for Inactive)
REMARK    1  A    between atoms: N_7  and  C_8
REMARK    2  A    between atoms: C_11  and  N_12
REMARK    3  A    between atoms: C_15  and  C_16
REMARK                            x       y       z     vdW  Elec       q    Type
REMARK                         _______ _______ _______ _____ _____    ______ ____
ROOT
ATOM      1  C   UNL     1     -10.644  14.448  67.127  0.00  0.00    +0.063 A 
ATOM      2  C   UNL     1      -9.958  13.489  66.393  0.00  0.00    +0.025 A 
ATOM      3  C   UNL     1     -10.633  12.629  65.534  0.00  0.00    +0.142 A 
ATOM      4  C   UNL     1     -11.931  12.932  65.152  0.00  0.00    +0.294 A 
ATOM      5  C   UNL     1     -12.654  13.802  65.959  0.00  0.00    +0.077 A 
ATOM      6  C   UNL     1     -12.029  14.334  67.082  0.00  0.00    +0.022 A 
ENDROOT
BRANCH   1  11
ATOM      7  C   UNL     1      -7.265  17.295  66.171  0.00  0.00    +0.031 C 
ATOM      8  C   UNL     1      -8.351  17.368  67.220  0.00  0.00    +0.149 C 
ATOM      9  C   UNL     1      -9.550  16.702  66.617  0.00  0.00    +0.254 C 
ATOM     10  O   UNL     1      -9.926  16.870  65.418  0.00  0.00    -0.272 OA
ATOM     11  N   UNL     1      -9.996  15.670  67.504  0.00  0.00    -0.190 N 
ATOM     12  C   UNL     1      -9.246  15.883  68.704  0.00  0.00    +0.333 C 
ATOM     13  O   UNL     1      -9.530  15.362  69.813  0.00  0.00    -0.250 OA
ATOM     14  N   UNL     1      -8.042  16.598  68.399  0.00  0.00    -0.182 NA
ATOM     15  C   UNL     1      -8.640  18.791  67.615  0.00  0.00    +0.031 C 
ENDBRANCH   1  11
BRANCH   3  16
ATOM     16  C   UNL     1      -9.897  11.603  64.769  0.00  0.00    +0.424 C 
ATOM     17  F   UNL     1      -9.582  11.985  63.493  0.00  0.00    -0.166 F 
ATOM     18  F   UNL     1      -8.738  11.339  65.491  0.00  0.00    -0.166 F 
ATOM     19  F   UNL     1     -10.579  10.399  64.705  0.00  0.00    -0.166 F 
ENDBRANCH   3  16
BRANCH   4  20
ATOM     20  N   UNL     1     -12.368  12.772  63.798  0.00  0.00    +0.081 N 
ATOM     21  O   UNL     1     -12.575  13.926  63.060  0.00  0.00    -0.576 OA
ATOM     22  O   UNL     1     -13.240  11.881  63.626  0.00  0.00    +0.041 OA
ENDBRANCH   4  20
TORSDOF 3
ENDMDL
MODEL 5
REMARK VINA RESULT:      -6.4      3.438      4.705
REMARK  Name = 
REMARK  3 active torsions:
REMARK  status: ('A' for Active; 'I' for Inactive)
REMARK    1  A    between atoms: N_7  and  C_8
REMARK    2  A    between atoms: C_11  and  N_12
REMARK    3  A    between atoms: C_15  and  C_16
REMARK                            x       y       z     vdW  Elec       q    Type
REMARK                         _______ _______ _______ _____ _____    ______ ____
ROOT
ATOM      1  C   UNL     1     -11.084  13.814  69.044  0.00  0.00    +0.063 A 
ATOM      2  C   UNL     1     -10.629  14.606  67.998  0.00  0.00    +0.025 A 
ATOM      3  C   UNL     1     -10.745  14.182  66.679  0.00  0.00    +0.142 A 
ATOM      4  C   UNL     1     -11.602  13.135  66.375  0.00  0.00    +0.294 A 
ATOM      5  C   UNL     1     -11.960  12.274  67.405  0.00  0.00    +0.077 A 
ATOM      6  C   UNL     1     -11.459  12.526  68.678  0.00  0.00    +0.022 A 
ENDROOT
BRANCH   1  11
ATOM      7  C   UNL     1     -14.671  14.586  71.686  0.00  0.00    +0.031 C 
ATOM      8  C   UNL     1     -13.213  14.936  71.873  0.00  0.00    +0.149 C 
ATOM      9  C   UNL     1     -12.438  13.837  71.213  0.00  0.00    +0.254 C 
ATOM     10  O   UNL     1     -12.729  12.607  71.311  0.00  0.00    -0.272 OA
ATOM     11  N   UNL     1     -11.536  14.417  70.263  0.00  0.00    -0.190 N 
ATOM     12  C   UNL     1     -11.593  15.823  70.531  0.00  0.00    +0.333 C 
ATOM     13  O   UNL     1     -10.755  16.655  70.101  0.00  0.00    -0.250 OA
ATOM     14  N   UNL     1     -12.833  16.139  71.177  0.00  0.00    -0.182 NA
ATOM     15  C   UNL     1     -12.863  15.072  73.330  0.00  0.00    +0.031 C 
ENDBRANCH   1  11
BRANCH   3  16
ATOM     16  C   UNL     1     -10.243  15.023  65.574  0.00  0.00    +0.424 C 
ATOM     17  F   UNL     1      -9.070  15.669  65.861  0.00  0.00    -0.166 F 
ATOM     18  F   UNL     1     -10.069  14.173  64.487  0.00  0.00    -0.166 F 
ATOM     19  F   UNL     1     -11.169  15.968  65.164  0.00  0.00    -0.166 F 
ENDBRANCH   3  16
BRANCH   4  20
ATOM     20  N   UNL     1     -12.454  13.179  65.226  0.00  0.00    +0.081 N 
ATOM     21  O   UNL     1     -13.569  13.999  65.297  0.00  0.00    -0.576 OA
ATOM     22  O   UNL     1     -12.663  12.065  64.680  0.00  0.00    +0.041 OA
ENDBRANCH   4  20
TORSDOF 3
ENDMDL
MODEL 6
REMARK VINA RESULT:      -6.3      5.668      6.930
REMARK  Name = 
REMARK  3 active torsions:
REMARK  status: ('A' for Active; 'I' for Inactive)
REMARK    1  A    between atoms: N_7  and  C_8
REMARK    2  A    between atoms: C_11  and  N_12
REMARK    3  A    between atoms: C_15  and  C_16
REMARK                            x       y       z     vdW  Elec       q    Type
REMARK                         _______ _______ _______ _____ _____    ______ ____
ROOT
ATOM      1  C   UNL     1     -12.365  11.860  70.479  0.00  0.00    +0.063 A 
ATOM      2  C   UNL     1     -12.743  10.755  71.232  0.00  0.00    +0.025 A 
ATOM      3  C   UNL     1     -12.155   9.513  71.020  0.00  0.00    +0.142 A 
ATOM      4  C   UNL     1     -10.972   9.435  70.301  0.00  0.00    +0.294 A 
ATOM      5  C   UNL     1     -10.659  10.494  69.457  0.00  0.00    +0.077 A 
ATOM      6  C   UNL     1     -11.534  11.574  69.402  0.00  0.00    +0.022 A 
ENDROOT
BRANCH   1  11
ATOM      7  C   UNL     1     -15.173  15.261  71.475  0.00  0.00    +0.031 C 
ATOM      8  C   UNL     1     -13.687  15.105  71.710  0.00  0.00    +0.149 C 
ATOM      9  C   UNL     1     -13.460  13.644  71.948  0.00  0.00    +0.254 C 
ATOM     10  O   UNL     1     -14.212  12.917  72.663  0.00  0.00    -0.272 OA
ATOM     11  N   UNL     1     -12.462  13.179  71.032  0.00  0.00    -0.190 N 
ATOM     12  C   UNL     1     -11.934  14.373  70.444  0.00  0.00    +0.333 C 
ATOM     13  O   UNL     1     -10.861  14.421  69.791  0.00  0.00    -0.250 OA
ATOM     14  N   UNL     1     -12.901  15.427  70.546  0.00  0.00    -0.182 NA
ATOM     15  C   UNL     1     -13.223  15.942  72.871  0.00  0.00    +0.031 C 
ENDBRANCH   1  11
BRANCH   3  16
ATOM     16  C   UNL     1     -12.573   8.341  71.814  0.00  0.00    +0.424 C 
ATOM     17  F   UNL     1     -12.543   7.163  71.118  0.00  0.00    -0.166 F 
ATOM     18  F   UNL     1     -11.706   8.279  72.900  0.00  0.00    -0.166 F 
ATOM     19  F   UNL     1     -13.839   8.492  72.356  0.00  0.00    -0.166 F 
ENDBRANCH   3  16
BRANCH   4  20
ATOM     20  N   UNL     1      -9.898   8.587  70.721  0.00  0.00    +0.081 N 
ATOM     21  O   UNL     1      -8.902   9.164  71.491  0.00  0.00    -0.576 OA
ATOM     22  O   UNL     1      -9.480   7.789  69.842  0.00  0.00    +0.041 OA
ENDBRANCH   4  20
TORSDOF 3
ENDMDL
MODEL 7
REMARK VINA RESULT:      -6.3      3.428      6.278
REMARK  Name = 
REMARK  3 active torsions:
REMARK  status: ('A' for Active; 'I' for Inactive)
REMARK    1  A    between atoms: N_7  and  C_8
REMARK    2  A    between atoms: C_11  and  N_12
REMARK    3  A    between atoms: C_15  and  C_16
REMARK                            x       y       z     vdW  Elec       q    Type
REMARK                         _______ _______ _______ _____ _____    ______ ____
ROOT
ATOM      1  C   UNL     1      -9.633  16.359  68.068  0.00  0.00    +0.063 A 
ATOM      2  C   UNL     1     -10.264  17.510  67.611  0.00  0.00    +0.025 A 
ATOM      3  C   UNL     1      -9.530  18.648  67.296  0.00  0.00    +0.142 A 
ATOM      4  C   UNL     1      -8.159  18.544  67.117  0.00  0.00    +0.294 A 
ATOM      5  C   UNL     1      -7.516  17.449  67.681  0.00  0.00    +0.077 A 
ATOM      6  C   UNL     1      -8.284  16.514  68.367  0.00  0.00    +0.022 A 
ENDROOT
BRANCH   1  11
ATOM      7  C   UNL     1     -12.470  14.018  65.439  0.00  0.00    +0.031 C 
ATOM      8  C   UNL     1     -11.594  13.574  66.588  0.00  0.00    +0.149 C 
ATOM      9  C   UNL     1     -10.379  14.448  66.541  0.00  0.00    +0.254 C 
ATOM     10  O   UNL     1      -9.773  14.764  65.473  0.00  0.00    -0.272 OA
ATOM     11  N   UNL     1     -10.211  15.071  67.820  0.00  0.00    -0.190 N 
ATOM     12  C   UNL     1     -11.144  14.395  68.670  0.00  0.00    +0.333 C 
ATOM     13  O   UNL     1     -11.124  14.456  69.926  0.00  0.00    -0.250 OA
ATOM     14  N   UNL     1     -12.191  13.823  67.876  0.00  0.00    -0.182 NA
ATOM     15  C   UNL     1     -11.239  12.115  66.478  0.00  0.00    +0.031 C 
ENDBRANCH   1  11
BRANCH   3  16
ATOM     16  C   UNL     1     -10.210  19.871  66.826  0.00  0.00    +0.424 C 
ATOM     17  F   UNL     1     -10.177  20.033  65.466  0.00  0.00    -0.166 F 
ATOM     18  F   UNL     1     -11.526  19.776  67.265  0.00  0.00    -0.166 F 
ATOM     19  F   UNL     1      -9.703  21.019  67.411  0.00  0.00    -0.166 F 
ENDBRANCH   3  16
BRANCH   4  20
ATOM     20  N   UNL     1      -7.493  19.221  66.046  0.00  0.00    +0.081 N 
ATOM     21  O   UNL     1      -6.918  18.432  65.062  0.00  0.00    -0.576 OA
ATOM     22  O   UNL     1      -6.795  20.207  66.395  0.00  0.00    +0.041 OA
ENDBRANCH   4  20
TORSDOF 3
ENDMDL
MODEL 8
REMARK VINA RESULT:      -6.2      3.859      6.637
REMARK  Name = 
REMARK  3 active torsions:
REMARK  status: ('A' for Active; 'I' for Inactive)
REMARK    1  A    between atoms: N_7  and  C_8
REMARK    2  A    between atoms: C_11  and  N_12
REMARK    3  A    between atoms: C_15  and  C_16
REMARK                            x       y       z     vdW  Elec       q    Type
REMARK                         _______ _______ _______ _____ _____    ______ ____
ROOT
ATOM      1  C   UNL     1      -9.746  17.660  66.643  0.00  0.00    +0.063 A 
ATOM      2  C   UNL     1      -8.479  17.868  66.114  0.00  0.00    +0.025 A 
ATOM      3  C   UNL     1      -7.558  18.680  66.767  0.00  0.00    +0.142 A 
ATOM      4  C   UNL     1      -7.770  19.017  68.094  0.00  0.00    +0.294 A 
ATOM      5  C   UNL     1      -9.066  18.920  68.585  0.00  0.00    +0.077 A 
ATOM      6  C   UNL     1     -10.064  18.471  67.727  0.00  0.00    +0.022 A 
ENDROOT
BRANCH   1  11
ATOM      7  C   UNL     1      -9.434  13.151  66.555  0.00  0.00    +0.031 C 
ATOM      8  C   UNL     1     -10.606  14.065  66.283  0.00  0.00    +0.149 C 
ATOM      9  C   UNL     1     -10.419  15.252  67.177  0.00  0.00    +0.254 C 
ATOM     10  O   UNL     1     -10.046  15.177  68.387  0.00  0.00    -0.272 OA
ATOM     11  N   UNL     1     -10.450  16.440  66.378  0.00  0.00    -0.190 N 
ATOM     12  C   UNL     1     -10.892  15.991  65.092  0.00  0.00    +0.333 C 
ATOM     13  O   UNL     1     -11.307  16.758  64.184  0.00  0.00    -0.250 OA
ATOM     14  N   UNL     1     -10.601  14.596  64.943  0.00  0.00    -0.182 NA
ATOM     15  C   UNL     1     -11.917  13.371  66.539  0.00  0.00    +0.031 C 
ENDBRANCH   1  11
BRANCH   3  16
ATOM     16  C   UNL     1      -6.218  18.907  66.189  0.00  0.00    +0.424 C 
ATOM     17  F   UNL     1      -5.284  17.986  66.582  0.00  0.00    -0.166 F 
ATOM     18  F   UNL     1      -6.379  18.867  64.808  0.00  0.00    -0.166 F 
ATOM     19  F   UNL     1      -5.726  20.170  66.471  0.00  0.00    -0.166 F 
ENDBRANCH   3  16
BRANCH   4  20
ATOM     20  N   UNL     1      -6.701  19.005  69.047  0.00  0.00    +0.081 N 
ATOM     21  O   UNL     1      -6.356  17.779  69.594  0.00  0.00    -0.576 OA
ATOM     22  O   UNL     1      -6.717  19.956  69.871  0.00  0.00    +0.041 OA
ENDBRANCH   4  20
TORSDOF 3
ENDMDL
MODEL 9
REMARK VINA RESULT:      -6.1      3.430      6.795
REMARK  Name = 
REMARK  3 active torsions:
REMARK  status: ('A' for Active; 'I' for Inactive)
REMARK    1  A    between atoms: N_7  and  C_8
REMARK    2  A    between atoms: C_11  and  N_12
REMARK    3  A    between atoms: C_15  and  C_16
REMARK                            x       y       z     vdW  Elec       q    Type
REMARK                         _______ _______ _______ _____ _____    ______ ____
ROOT
ATOM      1  C   UNL     1     -10.052  11.089  65.128  0.00  0.00    +0.063 A 
ATOM      2  C   UNL     1      -9.706  12.258  65.794  0.00  0.00    +0.025 A 
ATOM      3  C   UNL     1     -10.223  13.486  65.396  0.00  0.00    +0.142 A 
ATOM      4  C   UNL     1     -11.328  13.519  64.560  0.00  0.00    +0.294 A 
ATOM      5  C   UNL     1     -11.600  12.384  63.805  0.00  0.00    +0.077 A 
ATOM      6  C   UNL     1     -10.766  11.280  63.950  0.00  0.00    +0.022 A 
ENDROOT
BRANCH   1  11
ATOM      7  C   UNL     1      -9.479   9.075  69.135  0.00  0.00    +0.031 C 
ATOM      8  C   UNL     1      -9.867   8.506  67.790  0.00  0.00    +0.149 C 
ATOM      9  C   UNL     1     -10.654   9.578  67.101  0.00  0.00    +0.254 C 
ATOM     10  O   UNL     1     -11.531  10.292  67.672  0.00  0.00    -0.272 OA
ATOM     11  N   UNL     1     -10.059   9.836  65.824  0.00  0.00    -0.190 N 
ATOM     12  C   UNL     1      -9.107   8.780  65.655  0.00  0.00    +0.333 C 
ATOM     13  O   UNL     1      -8.567   8.489  64.557  0.00  0.00    -0.250 OA
ATOM     14  N   UNL     1      -8.731   8.262  66.937  0.00  0.00    -0.182 NA
ATOM     15  C   UNL     1     -10.660   7.235  67.938  0.00  0.00    +0.031 C 
ENDBRANCH   1  11
BRANCH   3  16
ATOM     16  C   UNL     1      -9.838  14.725  66.100  0.00  0.00    +0.424 C 
ATOM     17  F   UNL     1     -10.652  15.036  67.156  0.00  0.00    -0.166 F 
ATOM     18  F   UNL     1      -8.533  14.530  66.542  0.00  0.00    -0.166 F 
ATOM     19  F   UNL     1      -9.785  15.821  65.256  0.00  0.00    -0.166 F 
ENDBRANCH   3  16
BRANCH   4  20
ATOM     20  N   UNL     1     -12.404  14.437  64.781  0.00  0.00    +0.081 N 
ATOM     21  O   UNL     1     -13.523  13.952  65.438  0.00  0.00    -0.576 OA
ATOM     22  O   UNL     1     -12.659  15.195  63.810  0.00  0.00    +0.041 OA
ENDBRANCH   4  20
TORSDOF 3
ENDMDL
