MODEL 1
REMARK VINA RESULT:      -5.9      0.000      0.000
REMARK  Name = 
REMARK  23 active torsions:
REMARK  status: ('A' for Active; 'I' for Inactive)
REMARK    1  A    between atoms: N_4  and  C_6
REMARK    2  A    between atoms: C_6  and  C_7
REMARK    3  A    between atoms: C_7  and  C_8
REMARK    4  A    between atoms: C_8  and  C_9
REMARK    5  A    between atoms: C_9  and  C_10
REMARK    6  A    between atoms: C_10  and  N_11
REMARK    7  A    between atoms: C_12  and  C_14
REMARK    8  A    between atoms: C_14  and  C_15
REMARK    9  A    between atoms: C_15  and  C_16
REMARK   10  A    between atoms: N_18  and  C_20
REMARK   11  A    between atoms: C_20  and  C_21
REMARK   12  A    between atoms: C_21  and  C_22
REMARK   13  A    between atoms: C_22  and  C_23
REMARK   14  A    between atoms: C_23  and  C_24
REMARK   15  A    between atoms: C_24  and  N_25
REMARK   16  A    between atoms: C_26  and  C_28
REMARK   17  A    between atoms: C_28  and  C_29
REMARK   18  A    between atoms: C_29  and  C_30
REMARK   19  A    between atoms: N_32  and  C_34
REMARK   20  A    between atoms: C_34  and  C_35
REMARK   21  A    between atoms: C_35  and  C_36
REMARK   22  A    between atoms: C_36  and  C_37
REMARK   23  A    between atoms: C_37  and  C_38
REMARK                            x       y       z     vdW  Elec       q    Type
REMARK                         _______ _______ _______ _____ _____    ______ ____
ROOT
ATOM      1  C   UNL     1      -5.475  20.603  68.872  0.00  0.00    +0.098 C 
ENDROOT
BRANCH   1   3
ATOM      2  C   UNL     1      -4.166  18.747  69.787  0.00  0.00    +0.068 C 
ATOM      3  N   UNL     1      -4.421  19.615  68.677  0.00  0.00    -0.284 N 
ATOM      4  O   UNL     1      -3.985  19.251  67.443  0.00  0.00    -0.420 OA
ATOM      5  O   UNL     1      -4.308  19.189  70.966  0.00  0.00    -0.541 OA
BRANCH   2   6
ATOM      6  C   UNL     1      -3.224  17.595  69.642  0.00  0.00    +0.059 C 
BRANCH   6   7
ATOM      7  C   UNL     1      -3.814  16.313  70.166  0.00  0.00    +0.093 C 
BRANCH   7   9
ATOM      8  N   UNL     1      -6.216  15.632  69.774  0.00  0.00    -0.205 NA
ATOM      9  C   UNL     1      -4.888  15.804  69.269  0.00  0.00    +0.242 C 
ATOM     10  O   UNL     1      -4.727  15.962  68.029  0.00  0.00    -0.273 OA
BRANCH   8  11
ATOM     11  C   UNL     1      -7.298  15.535  68.810  0.00  0.00    +0.115 C 
BRANCH  11  12
ATOM     12  C   UNL     1      -8.500  14.868  69.415  0.00  0.00    +0.023 C 
BRANCH  12  13
ATOM     13  C   UNL     1      -9.627  15.888  69.509  0.00  0.00    +0.004 C 
BRANCH  13  14
ATOM     14  C   UNL     1     -10.954  15.202  69.689  0.00  0.00    +0.022 C 
BRANCH  14  15
ATOM     15  C   UNL     1     -11.701  15.894  70.801  0.00  0.00    +0.098 C 
BRANCH  15  18
ATOM     16  C   UNL     1     -12.526  15.717  73.953  0.00  0.00    +0.056 C 
ATOM     17  C   UNL     1     -13.191  15.359  72.669  0.00  0.00    +0.068 C 
ATOM     18  N   UNL     1     -12.349  14.880  71.623  0.00  0.00    -0.285 N 
ATOM     19  O   UNL     1     -12.600  13.691  71.006  0.00  0.00    -0.420 OA
ATOM     20  O   UNL     1     -14.317  15.883  72.441  0.00  0.00    -0.541 OA
ENDBRANCH  15  18
ENDBRANCH  14  15
ENDBRANCH  13  14
ENDBRANCH  12  13
ENDBRANCH  11  12
ENDBRANCH   8  11
ENDBRANCH   7   9
ENDBRANCH   6   7
ENDBRANCH   2   6
ENDBRANCH   1   3
BRANCH   1  21
ATOM     21  C   UNL     1      -6.676  20.220  68.053  0.00  0.00    +0.022 C 
BRANCH  21  22
ATOM     22  C   UNL     1      -7.591  19.356  68.878  0.00  0.00    +0.004 C 
BRANCH  22  23
ATOM     23  C   UNL     1      -9.015  19.356  68.358  0.00  0.00    +0.023 C 
BRANCH  23  24
ATOM     24  C   UNL     1      -8.933  19.734  66.883  0.00  0.00    +0.115 C 
BRANCH  24  25
ATOM     25  N   UNL     1      -9.498  18.601  66.155  0.00  0.00    -0.205 NA
ATOM     26  C   UNL     1      -8.653  17.449  66.053  0.00  0.00    +0.242 C 
ATOM     27  O   UNL     1      -7.509  17.666  65.553  0.00  0.00    -0.273 OA
BRANCH  26  28
ATOM     28  C   UNL     1      -9.226  16.100  65.869  0.00  0.00    +0.093 C 
BRANCH  28  29
ATOM     29  C   UNL     1     -10.727  16.075  65.954  0.00  0.00    +0.059 C 
BRANCH  29  30
ATOM     30  C   UNL     1     -11.371  15.669  64.679  0.00  0.00    +0.068 C 
ATOM     31  N   UNL     1     -12.177  14.492  64.582  0.00  0.00    -0.284 N 
ATOM     32  O   UNL     1     -12.562  14.094  63.342  0.00  0.00    -0.420 OA
ATOM     33  O   UNL     1     -11.663  16.612  63.883  0.00  0.00    -0.541 OA
BRANCH  31  34
ATOM     34  C   UNL     1     -12.314  13.533  65.648  0.00  0.00    +0.098 C 
BRANCH  34  35
ATOM     35  C   UNL     1     -12.123  12.133  65.085  0.00  0.00    +0.022 C 
BRANCH  35  36
ATOM     36  C   UNL     1     -10.688  11.692  65.327  0.00  0.00    +0.003 C 
BRANCH  36  37
ATOM     37  C   UNL     1     -10.414  11.838  66.798  0.00  0.00    +0.021 C 
BRANCH  37  38
ATOM     38  C   UNL     1     -11.010  10.625  67.490  0.00  0.00    +0.109 C 
ATOM     39  N   UNL     1     -12.016  11.065  68.426  0.00  0.00    -0.131 NA
ENDBRANCH  37  38
ENDBRANCH  36  37
ENDBRANCH  35  36
ENDBRANCH  34  35
ENDBRANCH  31  34
ENDBRANCH  29  30
ENDBRANCH  28  29
ENDBRANCH  26  28
ENDBRANCH  24  25
ENDBRANCH  23  24
ENDBRANCH  22  23
ENDBRANCH  21  22
ENDBRANCH   1  21
TORSDOF 23
ENDMDL
MODEL 2
REMARK VINA RESULT:      -5.8      2.246      7.060
REMARK  Name = 
REMARK  23 active torsions:
REMARK  status: ('A' for Active; 'I' for Inactive)
REMARK    1  A    between atoms: N_4  and  C_6
REMARK    2  A    between atoms: C_6  and  C_7
REMARK    3  A    between atoms: C_7  and  C_8
REMARK    4  A    between atoms: C_8  and  C_9
REMARK    5  A    between atoms: C_9  and  C_10
REMARK    6  A    between atoms: C_10  and  N_11
REMARK    7  A    between atoms: C_12  and  C_14
REMARK    8  A    between atoms: C_14  and  C_15
REMARK    9  A    between atoms: C_15  and  C_16
REMARK   10  A    between atoms: N_18  and  C_20
REMARK   11  A    between atoms: C_20  and  C_21
REMARK   12  A    between atoms: C_21  and  C_22
REMARK   13  A    between atoms: C_22  and  C_23
REMARK   14  A    between atoms: C_23  and  C_24
REMARK   15  A    between atoms: C_24  and  N_25
REMARK   16  A    between atoms: C_26  and  C_28
REMARK   17  A    between atoms: C_28  and  C_29
REMARK   18  A    between atoms: C_29  and  C_30
REMARK   19  A    between atoms: N_32  and  C_34
REMARK   20  A    between atoms: C_34  and  C_35
REMARK   21  A    between atoms: C_35  and  C_36
REMARK   22  A    between atoms: C_36  and  C_37
REMARK   23  A    between atoms: C_37  and  C_38
REMARK                            x       y       z     vdW  Elec       q    Type
REMARK                         _______ _______ _______ _____ _____    ______ ____
ROOT
ATOM      1  C   UNL     1     -12.483  14.269  65.601  0.00  0.00    +0.098 C 
ENDROOT
BRANCH   1   3
ATOM      2  C   UNL     1     -10.950  12.804  64.376  0.00  0.00    +0.068 C 
ATOM      3  N   UNL     1     -12.305  13.137  64.700  0.00  0.00    -0.284 N 
ATOM      4  O   UNL     1     -13.277  12.210  64.496  0.00  0.00    -0.420 OA
ATOM      5  O   UNL     1     -10.088  13.729  64.291  0.00  0.00    -0.541 OA
BRANCH   2   6
ATOM      6  C   UNL     1     -10.644  11.566  63.595  0.00  0.00    +0.059 C 
BRANCH   6   7
ATOM      7  C   UNL     1      -9.956  10.525  64.435  0.00  0.00    +0.093 C 
BRANCH   7   9
ATOM      8  N   UNL     1     -10.966  10.426  66.750  0.00  0.00    -0.205 NA
ATOM      9  C   UNL     1      -9.943  10.910  65.874  0.00  0.00    +0.242 C 
ATOM     10  O   UNL     1      -8.837  11.260  66.367  0.00  0.00    -0.273 OA
BRANCH   8  11
ATOM     11  C   UNL     1     -10.709  10.472  68.178  0.00  0.00    +0.115 C 
BRANCH  11  12
ATOM     12  C   UNL     1     -11.969  10.759  68.943  0.00  0.00    +0.023 C 
BRANCH  12  13
ATOM     13  C   UNL     1     -11.594  11.362  70.290  0.00  0.00    +0.004 C 
BRANCH  13  14
ATOM     14  C   UNL     1     -12.814  11.879  71.002  0.00  0.00    +0.022 C 
BRANCH  14  15
ATOM     15  C   UNL     1     -12.600  13.339  71.315  0.00  0.00    +0.098 C 
BRANCH  15  18
ATOM     16  C   UNL     1     -12.352  15.464  73.779  0.00  0.00    +0.056 C 
ATOM     17  C   UNL     1     -13.433  15.070  72.833  0.00  0.00    +0.068 C 
ATOM     18  N   UNL     1     -13.466  13.703  72.429  0.00  0.00    -0.285 N 
ATOM     19  O   UNL     1     -14.596  12.956  72.569  0.00  0.00    -0.420 OA
ATOM     20  O   UNL     1     -13.951  15.990  72.140  0.00  0.00    -0.541 OA
ENDBRANCH  15  18
ENDBRANCH  14  15
ENDBRANCH  13  14
ENDBRANCH  12  13
ENDBRANCH  11  12
ENDBRANCH   8  11
ENDBRANCH   7   9
ENDBRANCH   6   7
ENDBRANCH   2   6
ENDBRANCH   1   3
BRANCH   1  21
ATOM     21  C   UNL     1     -12.130  13.853  67.001  0.00  0.00    +0.022 C 
BRANCH  21  22
ATOM     22  C   UNL     1     -11.200  14.868  67.608  0.00  0.00    +0.004 C 
BRANCH  22  23
ATOM     23  C   UNL     1     -10.142  14.234  68.490  0.00  0.00    +0.023 C 
BRANCH  23  24
ATOM     24  C   UNL     1      -9.786  15.274  69.547  0.00  0.00    +0.115 C 
BRANCH  24  25
ATOM     25  N   UNL     1      -8.798  16.148  68.920  0.00  0.00    -0.205 NA
ATOM     26  C   UNL     1      -7.499  15.575  68.729  0.00  0.00    +0.242 C 
ATOM     27  O   UNL     1      -6.958  15.113  69.778  0.00  0.00    -0.273 OA
BRANCH  26  28
ATOM     28  C   UNL     1      -6.599  16.069  67.667  0.00  0.00    +0.093 C 
BRANCH  28  29
ATOM     29  C   UNL     1      -7.323  16.788  66.561  0.00  0.00    +0.059 C 
BRANCH  29  30
ATOM     30  C   UNL     1      -6.619  18.017  66.114  0.00  0.00    +0.068 C 
ATOM     31  N   UNL     1      -6.754  19.259  66.808  0.00  0.00    -0.284 N 
ATOM     32  O   UNL     1      -6.236  20.368  66.220  0.00  0.00    -0.420 OA
ATOM     33  O   UNL     1      -5.521  17.834  65.507  0.00  0.00    -0.541 OA
BRANCH  31  34
ATOM     34  C   UNL     1      -7.681  19.466  67.892  0.00  0.00    +0.098 C 
BRANCH  34  35
ATOM     35  C   UNL     1      -8.873  20.262  67.382  0.00  0.00    +0.022 C 
BRANCH  35  36
ATOM     36  C   UNL     1     -10.137  19.746  68.052  0.00  0.00    +0.003 C 
BRANCH  36  37
ATOM     37  C   UNL     1     -10.587  18.531  67.288  0.00  0.00    +0.021 C 
BRANCH  37  38
ATOM     38  C   UNL     1     -10.548  18.887  65.812  0.00  0.00    +0.109 C 
ATOM     39  N   UNL     1     -10.896  17.720  65.038  0.00  0.00    -0.131 NA
ENDBRANCH  37  38
ENDBRANCH  36  37
ENDBRANCH  35  36
ENDBRANCH  34  35
ENDBRANCH  31  34
ENDBRANCH  29  30
ENDBRANCH  28  29
ENDBRANCH  26  28
ENDBRANCH  24  25
ENDBRANCH  23  24
ENDBRANCH  22  23
ENDBRANCH  21  22
ENDBRANCH   1  21
TORSDOF 23
ENDMDL
MODEL 3
REMARK VINA RESULT:      -5.8      3.986      8.494
REMARK  Name = 
REMARK  23 active torsions:
REMARK  status: ('A' for Active; 'I' for Inactive)
REMARK    1  A    between atoms: N_4  and  C_6
REMARK    2  A    between atoms: C_6  and  C_7
REMARK    3  A    between atoms: C_7  and  C_8
REMARK    4  A    between atoms: C_8  and  C_9
REMARK    5  A    between atoms: C_9  and  C_10
REMARK    6  A    between atoms: C_10  and  N_11
REMARK    7  A    between atoms: C_12  and  C_14
REMARK    8  A    between atoms: C_14  and  C_15
REMARK    9  A    between atoms: C_15  and  C_16
REMARK   10  A    between atoms: N_18  and  C_20
REMARK   11  A    between atoms: C_20  and  C_21
REMARK   12  A    between atoms: C_21  and  C_22
REMARK   13  A    between atoms: C_22  and  C_23
REMARK   14  A    between atoms: C_23  and  C_24
REMARK   15  A    between atoms: C_24  and  N_25
REMARK   16  A    between atoms: C_26  and  C_28
REMARK   17  A    between atoms: C_28  and  C_29
REMARK   18  A    between atoms: C_29  and  C_30
REMARK   19  A    between atoms: N_32  and  C_34
REMARK   20  A    between atoms: C_34  and  C_35
REMARK   21  A    between atoms: C_35  and  C_36
REMARK   22  A    between atoms: C_36  and  C_37
REMARK   23  A    between atoms: C_37  and  C_38
REMARK                            x       y       z     vdW  Elec       q    Type
REMARK                         _______ _______ _______ _____ _____    ______ ____
ROOT
ATOM      1  C   UNL     1     -10.109   9.847  65.804  0.00  0.00    +0.098 C 
ENDROOT
BRANCH   1   3
ATOM      2  C   UNL     1     -10.899  10.754  67.937  0.00  0.00    +0.068 C 
ATOM      3  N   UNL     1      -9.800  10.248  67.171  0.00  0.00    -0.284 N 
ATOM      4  O   UNL     1      -8.689   9.816  67.821  0.00  0.00    -0.420 OA
ATOM      5  O   UNL     1     -11.811  11.412  67.352  0.00  0.00    -0.541 OA
BRANCH   2   6
ATOM      6  C   UNL     1     -10.734  11.041  69.395  0.00  0.00    +0.059 C 
BRANCH   6   7
ATOM      7  C   UNL     1     -12.023  11.484  70.033  0.00  0.00    +0.093 C 
BRANCH   7   9
ATOM      8  N   UNL     1     -11.839   9.224  71.149  0.00  0.00    -0.205 NA
ATOM      9  C   UNL     1     -12.524  10.473  71.004  0.00  0.00    +0.242 C 
ATOM     10  O   UNL     1     -13.229  10.891  71.961  0.00  0.00    -0.273 OA
BRANCH   8  11
ATOM     11  C   UNL     1     -12.088   8.452  72.353  0.00  0.00    +0.115 C 
BRANCH  11  12
ATOM     12  C   UNL     1     -10.832   7.784  72.834  0.00  0.00    +0.023 C 
BRANCH  12  13
ATOM     13  C   UNL     1      -9.640   8.438  72.148  0.00  0.00    +0.004 C 
BRANCH  13  14
ATOM     14  C   UNL     1      -8.485   7.478  72.056  0.00  0.00    +0.022 C 
BRANCH  14  15
ATOM     15  C   UNL     1      -8.367   7.010  70.628  0.00  0.00    +0.098 C 
BRANCH  15  18
ATOM     16  C   UNL     1     -11.228   6.123  69.334  0.00  0.00    +0.056 C 
ATOM     17  C   UNL     1      -9.847   5.567  69.316  0.00  0.00    +0.068 C 
ATOM     18  N   UNL     1      -9.070   5.740  70.499  0.00  0.00    -0.285 N 
ATOM     19  O   UNL     1      -8.488   4.677  71.121  0.00  0.00    -0.420 OA
ATOM     20  O   UNL     1      -9.318   5.380  68.184  0.00  0.00    -0.541 OA
ENDBRANCH  15  18
ENDBRANCH  14  15
ENDBRANCH  13  14
ENDBRANCH  12  13
ENDBRANCH  11  12
ENDBRANCH   8  11
ENDBRANCH   7   9
ENDBRANCH   6   7
ENDBRANCH   2   6
ENDBRANCH   1   3
BRANCH   1  21
ATOM     21  C   UNL     1      -9.325  10.698  64.845  0.00  0.00    +0.022 C 
BRANCH  21  22
ATOM     22  C   UNL     1     -10.165  11.868  64.409  0.00  0.00    +0.004 C 
BRANCH  22  23
ATOM     23  C   UNL     1     -11.103  11.518  63.271  0.00  0.00    +0.023 C 
BRANCH  23  24
ATOM     24  C   UNL     1     -12.451  12.139  63.621  0.00  0.00    +0.115 C 
BRANCH  24  25
ATOM     25  N   UNL     1     -12.291  13.575  63.402  0.00  0.00    -0.205 NA
ATOM     26  C   UNL     1     -12.239  14.377  64.587  0.00  0.00    +0.242 C 
ATOM     27  O   UNL     1     -13.224  14.239  65.372  0.00  0.00    -0.273 OA
BRANCH  26  28
ATOM     28  C   UNL     1     -11.552  15.685  64.589  0.00  0.00    +0.093 C 
BRANCH  28  29
ATOM     29  C   UNL     1     -10.368  15.734  65.515  0.00  0.00    +0.059 C 
BRANCH  29  30
ATOM     30  C   UNL     1     -10.286  17.003  66.282  0.00  0.00    +0.068 C 
ATOM     31  N   UNL     1     -10.603  17.065  67.674  0.00  0.00    -0.284 N 
ATOM     32  O   UNL     1     -10.691  18.295  68.245  0.00  0.00    -0.420 OA
ATOM     33  O   UNL     1      -9.436  17.846  65.865  0.00  0.00    -0.541 OA
BRANCH  31  34
ATOM     34  C   UNL     1     -11.162  15.961  68.412  0.00  0.00    +0.098 C 
BRANCH  34  35
ATOM     35  C   UNL     1     -10.363  15.763  69.691  0.00  0.00    +0.022 C 
BRANCH  35  36
ATOM     36  C   UNL     1     -11.325  15.511  70.842  0.00  0.00    +0.003 C 
BRANCH  36  37
ATOM     37  C   UNL     1     -12.707  15.405  70.258  0.00  0.00    +0.021 C 
BRANCH  37  38
ATOM     38  C   UNL     1     -13.621  14.883  71.353  0.00  0.00    +0.109 C 
ATOM     39  N   UNL     1     -13.713  15.870  72.401  0.00  0.00    -0.131 NA
ENDBRANCH  37  38
ENDBRANCH  36  37
ENDBRANCH  35  36
ENDBRANCH  34  35
ENDBRANCH  31  34
ENDBRANCH  29  30
ENDBRANCH  28  29
ENDBRANCH  26  28
ENDBRANCH  24  25
ENDBRANCH  23  24
ENDBRANCH  22  23
ENDBRANCH  21  22
ENDBRANCH   1  21
TORSDOF 23
ENDMDL
MODEL 4
REMARK VINA RESULT:      -5.7      3.574      8.491
REMARK  Name = 
REMARK  23 active torsions:
REMARK  status: ('A' for Active; 'I' for Inactive)
REMARK    1  A    between atoms: N_4  and  C_6
REMARK    2  A    between atoms: C_6  and  C_7
REMARK    3  A    between atoms: C_7  and  C_8
REMARK    4  A    between atoms: C_8  and  C_9
REMARK    5  A    between atoms: C_9  and  C_10
REMARK    6  A    between atoms: C_10  and  N_11
REMARK    7  A    between atoms: C_12  and  C_14
REMARK    8  A    between atoms: C_14  and  C_15
REMARK    9  A    between atoms: C_15  and  C_16
REMARK   10  A    between atoms: N_18  and  C_20
REMARK   11  A    between atoms: C_20  and  C_21
REMARK   12  A    between atoms: C_21  and  C_22
REMARK   13  A    between atoms: C_22  and  C_23
REMARK   14  A    between atoms: C_23  and  C_24
REMARK   15  A    between atoms: C_24  and  N_25
REMARK   16  A    between atoms: C_26  and  C_28
REMARK   17  A    between atoms: C_28  and  C_29
REMARK   18  A    between atoms: C_29  and  C_30
REMARK   19  A    between atoms: N_32  and  C_34
REMARK   20  A    between atoms: C_34  and  C_35
REMARK   21  A    between atoms: C_35  and  C_36
REMARK   22  A    between atoms: C_36  and  C_37
REMARK   23  A    between atoms: C_37  and  C_38
REMARK                            x       y       z     vdW  Elec       q    Type
REMARK                         _______ _______ _______ _____ _____    ______ ____
ROOT
ATOM      1  C   UNL     1      -9.628  11.941  66.772  0.00  0.00    +0.098 C 
ENDROOT
BRANCH   1   3
ATOM      2  C   UNL     1     -10.876  13.361  68.328  0.00  0.00    +0.068 C 
ATOM      3  N   UNL     1     -10.829  12.145  67.573  0.00  0.00    -0.284 N 
ATOM      4  O   UNL     1     -11.985  11.474  67.333  0.00  0.00    -0.420 OA
ATOM      5  O   UNL     1      -9.801  13.842  68.796  0.00  0.00    -0.541 OA
BRANCH   2   6
ATOM      6  C   UNL     1     -12.124  13.750  69.054  0.00  0.00    +0.059 C 
BRANCH   6   7
ATOM      7  C   UNL     1     -11.994  13.561  70.541  0.00  0.00    +0.093 C 
BRANCH   7   9
ATOM      8  N   UNL     1     -12.337  11.056  70.528  0.00  0.00    -0.205 NA
ATOM      9  C   UNL     1     -12.729  12.350  71.001  0.00  0.00    +0.242 C 
ATOM     10  O   UNL     1     -13.352  12.433  72.093  0.00  0.00    -0.273 OA
BRANCH   8  11
ATOM     11  C   UNL     1     -12.781   9.899  71.284  0.00  0.00    +0.115 C 
BRANCH  11  12
ATOM     12  C   UNL     1     -11.611   9.109  71.795  0.00  0.00    +0.023 C 
BRANCH  12  13
ATOM     13  C   UNL     1     -12.065   7.677  72.051  0.00  0.00    +0.004 C 
BRANCH  13  14
ATOM     14  C   UNL     1     -11.959   6.852  70.798  0.00  0.00    +0.022 C 
BRANCH  14  15
ATOM     15  C   UNL     1     -10.499   6.597  70.519  0.00  0.00    +0.098 C 
BRANCH  15  18
ATOM     16  C   UNL     1     -11.030   6.544  67.300  0.00  0.00    +0.056 C 
ATOM     17  C   UNL     1      -9.977   6.002  68.201  0.00  0.00    +0.068 C 
ATOM     18  N   UNL     1     -10.399   5.567  69.492  0.00  0.00    -0.285 N 
ATOM     19  O   UNL     1     -10.114   4.312  69.939  0.00  0.00    -0.420 OA
ATOM     20  O   UNL     1      -8.785   6.345  67.962  0.00  0.00    -0.541 OA
ENDBRANCH  15  18
ENDBRANCH  14  15
ENDBRANCH  13  14
ENDBRANCH  12  13
ENDBRANCH  11  12
ENDBRANCH   8  11
ENDBRANCH   7   9
ENDBRANCH   6   7
ENDBRANCH   2   6
ENDBRANCH   1   3
BRANCH   1  21
ATOM     21  C   UNL     1      -9.296  10.476  66.735  0.00  0.00    +0.022 C 
BRANCH  21  22
ATOM     22  C   UNL     1      -9.740   9.893  65.420  0.00  0.00    +0.004 C 
BRANCH  22  23
ATOM     23  C   UNL     1      -9.207  10.668  64.231  0.00  0.00    +0.023 C 
BRANCH  23  24
ATOM     24  C   UNL     1     -10.394  10.894  63.301  0.00  0.00    +0.115 C 
BRANCH  24  25
ATOM     25  N   UNL     1     -10.696  12.321  63.388  0.00  0.00    -0.205 NA
ATOM     26  C   UNL     1     -11.956  12.649  63.986  0.00  0.00    +0.242 C 
ATOM     27  O   UNL     1     -12.964  12.098  63.449  0.00  0.00    -0.273 OA
BRANCH  26  28
ATOM     28  C   UNL     1     -12.169  13.956  64.639  0.00  0.00    +0.093 C 
BRANCH  28  29
ATOM     29  C   UNL     1     -10.889  14.681  64.952  0.00  0.00    +0.059 C 
BRANCH  29  30
ATOM     30  C   UNL     1     -11.044  16.158  64.945  0.00  0.00    +0.068 C 
ATOM     31  N   UNL     1     -10.158  17.013  65.670  0.00  0.00    -0.284 N 
ATOM     32  O   UNL     1     -10.490  18.326  65.767  0.00  0.00    -0.420 OA
ATOM     33  O   UNL     1     -11.569  16.652  63.902  0.00  0.00    -0.541 OA
BRANCH  31  34
ATOM     34  C   UNL     1      -9.147  16.526  66.574  0.00  0.00    +0.098 C 
BRANCH  34  35
ATOM     35  C   UNL     1      -9.045  17.471  67.762  0.00  0.00    +0.022 C 
BRANCH  35  36
ATOM     36  C   UNL     1      -7.578  17.681  68.105  0.00  0.00    +0.003 C 
BRANCH  36  37
ATOM     37  C   UNL     1      -7.426  19.100  68.578  0.00  0.00    +0.021 C 
BRANCH  37  38
ATOM     38  C   UNL     1      -6.242  19.134  69.528  0.00  0.00    +0.109 C 
ATOM     39  N   UNL     1      -6.358  20.288  70.385  0.00  0.00    -0.131 NA
ENDBRANCH  37  38
ENDBRANCH  36  37
ENDBRANCH  35  36
ENDBRANCH  34  35
ENDBRANCH  31  34
ENDBRANCH  29  30
ENDBRANCH  28  29
ENDBRANCH  26  28
ENDBRANCH  24  25
ENDBRANCH  23  24
ENDBRANCH  22  23
ENDBRANCH  21  22
ENDBRANCH   1  21
TORSDOF 23
ENDMDL
MODEL 5
REMARK VINA RESULT:      -5.7      3.643      7.049
REMARK  Name = 
REMARK  23 active torsions:
REMARK  status: ('A' for Active; 'I' for Inactive)
REMARK    1  A    between atoms: N_4  and  C_6
REMARK    2  A    between atoms: C_6  and  C_7
REMARK    3  A    between atoms: C_7  and  C_8
REMARK    4  A    between atoms: C_8  and  C_9
REMARK    5  A    between atoms: C_9  and  C_10
REMARK    6  A    between atoms: C_10  and  N_11
REMARK    7  A    between atoms: C_12  and  C_14
REMARK    8  A    between atoms: C_14  and  C_15
REMARK    9  A    between atoms: C_15  and  C_16
REMARK   10  A    between atoms: N_18  and  C_20
REMARK   11  A    between atoms: C_20  and  C_21
REMARK   12  A    between atoms: C_21  and  C_22
REMARK   13  A    between atoms: C_22  and  C_23
REMARK   14  A    between atoms: C_23  and  C_24
REMARK   15  A    between atoms: C_24  and  N_25
REMARK   16  A    between atoms: C_26  and  C_28
REMARK   17  A    between atoms: C_28  and  C_29
REMARK   18  A    between atoms: C_29  and  C_30
REMARK   19  A    between atoms: N_32  and  C_34
REMARK   20  A    between atoms: C_34  and  C_35
REMARK   21  A    between atoms: C_35  and  C_36
REMARK   22  A    between atoms: C_36  and  C_37
REMARK   23  A    between atoms: C_37  and  C_38
REMARK                            x       y       z     vdW  Elec       q    Type
REMARK                         _______ _______ _______ _____ _____    ______ ____
ROOT
ATOM      1  C   UNL     1     -12.217  14.136  64.689  0.00  0.00    +0.098 C 
ENDROOT
BRANCH   1   3
ATOM      2  C   UNL     1     -10.870  16.141  65.090  0.00  0.00    +0.068 C 
ATOM      3  N   UNL     1     -10.992  14.720  65.220  0.00  0.00    -0.284 N 
ATOM      4  O   UNL     1     -10.209  14.073  66.122  0.00  0.00    -0.420 OA
ATOM      5  O   UNL     1     -11.373  16.717  64.079  0.00  0.00    -0.541 OA
BRANCH   2   6
ATOM      6  C   UNL     1      -9.735  16.864  65.742  0.00  0.00    +0.059 C 
BRANCH   6   7
ATOM      7  C   UNL     1     -10.198  18.091  66.482  0.00  0.00    +0.093 C 
BRANCH   7   9
ATOM      8  N   UNL     1     -11.269  16.874  68.421  0.00  0.00    -0.205 NA
ATOM      9  C   UNL     1     -10.317  17.830  67.943  0.00  0.00    +0.242 C 
ATOM     10  O   UNL     1      -9.317  18.100  68.661  0.00  0.00    -0.273 OA
BRANCH   8  11
ATOM     11  C   UNL     1     -11.086  16.351  69.763  0.00  0.00    +0.115 C 
BRANCH  11  12
ATOM     12  C   UNL     1     -10.799  14.877  69.732  0.00  0.00    +0.023 C 
BRANCH  12  13
ATOM     13  C   UNL     1     -12.009  14.159  69.148  0.00  0.00    +0.004 C 
BRANCH  13  14
ATOM     14  C   UNL     1     -12.906  13.649  70.243  0.00  0.00    +0.022 C 
BRANCH  14  15
ATOM     15  C   UNL     1     -12.206  13.848  71.564  0.00  0.00    +0.098 C 
BRANCH  15  18
ATOM     16  C   UNL     1     -12.545  15.749  74.194  0.00  0.00    +0.056 C 
ATOM     17  C   UNL     1     -13.454  15.272  73.116  0.00  0.00    +0.068 C 
ATOM     18  N   UNL     1     -13.216  13.961  72.608  0.00  0.00    -0.285 N 
ATOM     19  O   UNL     1     -14.208  13.029  72.575  0.00  0.00    -0.420 OA
ATOM     20  O   UNL     1     -14.060  16.155  72.445  0.00  0.00    -0.541 OA
ENDBRANCH  15  18
ENDBRANCH  14  15
ENDBRANCH  13  14
ENDBRANCH  12  13
ENDBRANCH  11  12
ENDBRANCH   8  11
ENDBRANCH   7   9
ENDBRANCH   6   7
ENDBRANCH   2   6
ENDBRANCH   1   3
BRANCH   1  21
ATOM     21  C   UNL     1     -12.224  12.658  64.961  0.00  0.00    +0.022 C 
BRANCH  21  22
ATOM     22  C   UNL     1     -11.854  11.915  63.707  0.00  0.00    +0.004 C 
BRANCH  22  23
ATOM     23  C   UNL     1     -10.365  11.959  63.421  0.00  0.00    +0.023 C 
BRANCH  23  24
ATOM     24  C   UNL     1      -9.886  10.512  63.422  0.00  0.00    +0.115 C 
BRANCH  24  25
ATOM     25  N   UNL     1     -10.070  10.038  64.791  0.00  0.00    -0.205 NA
ATOM     26  C   UNL     1      -9.202  10.624  65.769  0.00  0.00    +0.242 C 
ATOM     27  O   UNL     1      -7.964  10.524  65.516  0.00  0.00    -0.273 OA
BRANCH  26  28
ATOM     28  C   UNL     1      -9.598  10.692  67.191  0.00  0.00    +0.093 C 
BRANCH  28  29
ATOM     29  C   UNL     1     -10.113   9.386  67.729  0.00  0.00    +0.059 C 
BRANCH  29  30
ATOM     30  C   UNL     1      -9.176   8.745  68.686  0.00  0.00    +0.068 C 
ATOM     31  N   UNL     1      -9.424   8.736  70.093  0.00  0.00    -0.284 N 
ATOM     32  O   UNL     1      -8.424   8.304  70.905  0.00  0.00    -0.420 OA
ATOM     33  O   UNL     1      -8.505   7.770  68.232  0.00  0.00    -0.541 OA
BRANCH  31  34
ATOM     34  C   UNL     1     -10.503   9.461  70.714  0.00  0.00    +0.098 C 
BRANCH  34  35
ATOM     35  C   UNL     1     -11.189   8.558  71.729  0.00  0.00    +0.022 C 
BRANCH  35  36
ATOM     36  C   UNL     1     -11.863   7.409  70.995  0.00  0.00    +0.003 C 
BRANCH  36  37
ATOM     37  C   UNL     1     -13.175   7.145  71.683  0.00  0.00    +0.021 C 
BRANCH  37  38
ATOM     38  C   UNL     1     -14.072   8.341  71.415  0.00  0.00    +0.109 C 
ATOM     39  N   UNL     1     -14.636   8.795  72.662  0.00  0.00    -0.131 NA
ENDBRANCH  37  38
ENDBRANCH  36  37
ENDBRANCH  35  36
ENDBRANCH  34  35
ENDBRANCH  31  34
ENDBRANCH  29  30
ENDBRANCH  28  29
ENDBRANCH  26  28
ENDBRANCH  24  25
ENDBRANCH  23  24
ENDBRANCH  22  23
ENDBRANCH  21  22
ENDBRANCH   1  21
TORSDOF 23
ENDMDL
MODEL 6
REMARK VINA RESULT:      -5.6      4.144      8.601
REMARK  Name = 
REMARK  23 active torsions:
REMARK  status: ('A' for Active; 'I' for Inactive)
REMARK    1  A    between atoms: N_4  and  C_6
REMARK    2  A    between atoms: C_6  and  C_7
REMARK    3  A    between atoms: C_7  and  C_8
REMARK    4  A    between atoms: C_8  and  C_9
REMARK    5  A    between atoms: C_9  and  C_10
REMARK    6  A    between atoms: C_10  and  N_11
REMARK    7  A    between atoms: C_12  and  C_14
REMARK    8  A    between atoms: C_14  and  C_15
REMARK    9  A    between atoms: C_15  and  C_16
REMARK   10  A    between atoms: N_18  and  C_20
REMARK   11  A    between atoms: C_20  and  C_21
REMARK   12  A    between atoms: C_21  and  C_22
REMARK   13  A    between atoms: C_22  and  C_23
REMARK   14  A    between atoms: C_23  and  C_24
REMARK   15  A    between atoms: C_24  and  N_25
REMARK   16  A    between atoms: C_26  and  C_28
REMARK   17  A    between atoms: C_28  and  C_29
REMARK   18  A    between atoms: C_29  and  C_30
REMARK   19  A    between atoms: N_32  and  C_34
REMARK   20  A    between atoms: C_34  and  C_35
REMARK   21  A    between atoms: C_35  and  C_36
REMARK   22  A    between atoms: C_36  and  C_37
REMARK   23  A    between atoms: C_37  and  C_38
REMARK                            x       y       z     vdW  Elec       q    Type
REMARK                         _______ _______ _______ _____ _____    ______ ____
ROOT
ATOM      1  C   UNL     1     -11.637  11.344  67.846  0.00  0.00    +0.098 C 
ENDROOT
BRANCH   1   3
ATOM      2  C   UNL     1     -11.706  12.389  65.633  0.00  0.00    +0.068 C 
ATOM      3  N   UNL     1     -11.786  12.557  67.053  0.00  0.00    -0.284 N 
ATOM      4  O   UNL     1     -12.357  13.685  67.551  0.00  0.00    -0.420 OA
ATOM      5  O   UNL     1     -10.940  11.499  65.157  0.00  0.00    -0.541 OA
BRANCH   2   6
ATOM      6  C   UNL     1     -12.007  13.534  64.720  0.00  0.00    +0.059 C 
BRANCH   6   7
ATOM      7  C   UNL     1     -10.798  14.398  64.480  0.00  0.00    +0.093 C 
BRANCH   7   9
ATOM      8  N   UNL     1     -10.376  16.012  66.380  0.00  0.00    -0.205 NA
ATOM      9  C   UNL     1     -10.960  15.742  65.101  0.00  0.00    +0.242 C 
ATOM     10  O   UNL     1     -11.201  16.709  64.329  0.00  0.00    -0.273 OA
BRANCH   8  11
ATOM     11  C   UNL     1     -10.198  17.401  66.761  0.00  0.00    +0.115 C 
BRANCH  11  12
ATOM     12  C   UNL     1     -10.112  17.543  68.254  0.00  0.00    +0.023 C 
BRANCH  12  13
ATOM     13  C   UNL     1     -10.592  16.246  68.894  0.00  0.00    +0.004 C 
BRANCH  13  14
ATOM     14  C   UNL     1     -11.096  16.495  70.289  0.00  0.00    +0.022 C 
BRANCH  14  15
ATOM     15  C   UNL     1     -11.980  15.341  70.689  0.00  0.00    +0.098 C 
BRANCH  15  18
ATOM     16  C   UNL     1     -15.139  15.134  71.480  0.00  0.00    +0.056 C 
ATOM     17  C   UNL     1     -13.856  14.894  72.197  0.00  0.00    +0.068 C 
ATOM     18  N   UNL     1     -12.761  15.739  71.853  0.00  0.00    -0.285 N 
ATOM     19  O   UNL     1     -12.085  16.438  72.807  0.00  0.00    -0.420 OA
ATOM     20  O   UNL     1     -13.691  13.751  72.709  0.00  0.00    -0.541 OA
ENDBRANCH  15  18
ENDBRANCH  14  15
ENDBRANCH  13  14
ENDBRANCH  12  13
ENDBRANCH  11  12
ENDBRANCH   8  11
ENDBRANCH   7   9
ENDBRANCH   6   7
ENDBRANCH   2   6
ENDBRANCH   1   3
BRANCH   1  21
ATOM     21  C   UNL     1     -10.935  11.672  69.134  0.00  0.00    +0.022 C 
BRANCH  21  22
ATOM     22  C   UNL     1     -11.942  11.753  70.248  0.00  0.00    +0.004 C 
BRANCH  22  23
ATOM     23  C   UNL     1     -12.743  10.474  70.403  0.00  0.00    +0.023 C 
BRANCH  23  24
ATOM     24  C   UNL     1     -13.241  10.452  71.843  0.00  0.00    +0.115 C 
BRANCH  24  25
ATOM     25  N   UNL     1     -12.955   9.107  72.337  0.00  0.00    -0.205 NA
ATOM     26  C   UNL     1     -13.746   8.059  71.765  0.00  0.00    +0.242 C 
ATOM     27  O   UNL     1     -15.000   8.220  71.861  0.00  0.00    -0.273 OA
BRANCH  26  28
ATOM     28  C   UNL     1     -13.246   6.670  71.717  0.00  0.00    +0.093 C 
BRANCH  28  29
ATOM     29  C   UNL     1     -11.750   6.580  71.588  0.00  0.00    +0.059 C 
BRANCH  29  30
ATOM     30  C   UNL     1     -11.269   6.890  70.218  0.00  0.00    +0.068 C 
ATOM     31  N   UNL     1     -10.241   7.854  69.979  0.00  0.00    -0.284 N 
ATOM     32  O   UNL     1     -10.003   8.214  68.691  0.00  0.00    -0.420 OA
ATOM     33  O   UNL     1     -11.353   5.945  69.376  0.00  0.00    -0.541 OA
BRANCH  31  34
ATOM     34  C   UNL     1      -9.695   8.704  71.006  0.00  0.00    +0.098 C 
BRANCH  34  35
ATOM     35  C   UNL     1      -8.231   8.978  70.698  0.00  0.00    +0.022 C 
BRANCH  35  36
ATOM     36  C   UNL     1      -7.391   8.617  71.914  0.00  0.00    +0.003 C 
BRANCH  36  37
ATOM     37  C   UNL     1      -8.277   7.854  72.860  0.00  0.00    +0.021 C 
BRANCH  37  38
ATOM     38  C   UNL     1      -7.897   8.273  74.270  0.00  0.00    +0.109 C 
ATOM     39  N   UNL     1      -6.538   8.757  74.267  0.00  0.00    -0.131 NA
ENDBRANCH  37  38
ENDBRANCH  36  37
ENDBRANCH  35  36
ENDBRANCH  34  35
ENDBRANCH  31  34
ENDBRANCH  29  30
ENDBRANCH  28  29
ENDBRANCH  26  28
ENDBRANCH  24  25
ENDBRANCH  23  24
ENDBRANCH  22  23
ENDBRANCH  21  22
ENDBRANCH   1  21
TORSDOF 23
ENDMDL
MODEL 7
REMARK VINA RESULT:      -5.5      2.634      8.468
REMARK  Name = 
REMARK  23 active torsions:
REMARK  status: ('A' for Active; 'I' for Inactive)
REMARK    1  A    between atoms: N_4  and  C_6
REMARK    2  A    between atoms: C_6  and  C_7
REMARK    3  A    between atoms: C_7  and  C_8
REMARK    4  A    between atoms: C_8  and  C_9
REMARK    5  A    between atoms: C_9  and  C_10
REMARK    6  A    between atoms: C_10  and  N_11
REMARK    7  A    between atoms: C_12  and  C_14
REMARK    8  A    between atoms: C_14  and  C_15
REMARK    9  A    between atoms: C_15  and  C_16
REMARK   10  A    between atoms: N_18  and  C_20
REMARK   11  A    between atoms: C_20  and  C_21
REMARK   12  A    between atoms: C_21  and  C_22
REMARK   13  A    between atoms: C_22  and  C_23
REMARK   14  A    between atoms: C_23  and  C_24
REMARK   15  A    between atoms: C_24  and  N_25
REMARK   16  A    between atoms: C_26  and  C_28
REMARK   17  A    between atoms: C_28  and  C_29
REMARK   18  A    between atoms: C_29  and  C_30
REMARK   19  A    between atoms: N_32  and  C_34
REMARK   20  A    between atoms: C_34  and  C_35
REMARK   21  A    between atoms: C_35  and  C_36
REMARK   22  A    between atoms: C_36  and  C_37
REMARK   23  A    between atoms: C_37  and  C_38
REMARK                            x       y       z     vdW  Elec       q    Type
REMARK                         _______ _______ _______ _____ _____    ______ ____
ROOT
ATOM      1  C   UNL     1     -12.402  12.203  64.495  0.00  0.00    +0.098 C 
ENDROOT
BRANCH   1   3
ATOM      2  C   UNL     1     -11.921  13.462  66.540  0.00  0.00    +0.068 C 
ATOM      3  N   UNL     1     -12.502  13.457  65.230  0.00  0.00    -0.284 N 
ATOM      4  O   UNL     1     -12.746  14.643  64.615  0.00  0.00    -0.420 OA
ATOM      5  O   UNL     1     -11.948  12.402  67.233  0.00  0.00    -0.541 OA
BRANCH   2   6
ATOM      6  C   UNL     1     -11.821  14.736  67.316  0.00  0.00    +0.059 C 
BRANCH   6   7
ATOM      7  C   UNL     1     -10.466  15.376  67.178  0.00  0.00    +0.093 C 
BRANCH   7   9
ATOM      8  N   UNL     1     -10.705  17.828  67.746  0.00  0.00    -0.205 NA
ATOM      9  C   UNL     1     -10.579  16.801  66.757  0.00  0.00    +0.242 C 
ATOM     10  O   UNL     1     -10.124  17.105  65.622  0.00  0.00    -0.273 OA
BRANCH   8  11
ATOM     11  C   UNL     1     -10.405  19.191  67.347  0.00  0.00    +0.115 C 
BRANCH  11  12
ATOM     12  C   UNL     1      -8.929  19.460  67.418  0.00  0.00    +0.023 C 
BRANCH  12  13
ATOM     13  C   UNL     1      -8.414  18.990  68.772  0.00  0.00    +0.004 C 
BRANCH  13  14
ATOM     14  C   UNL     1      -6.920  18.812  68.742  0.00  0.00    +0.022 C 
BRANCH  14  15
ATOM     15  C   UNL     1      -6.282  20.041  69.341  0.00  0.00    +0.098 C 
BRANCH  15  18
ATOM     16  C   UNL     1      -4.421  21.108  71.799  0.00  0.00    +0.056 C 
ATOM     17  C   UNL     1      -4.782  19.769  71.257  0.00  0.00    +0.068 C 
ATOM     18  N   UNL     1      -4.964  19.676  69.846  0.00  0.00    -0.285 N 
ATOM     19  O   UNL     1      -4.281  18.758  69.107  0.00  0.00    -0.420 OA
ATOM     20  O   UNL     1      -5.308  18.948  72.060  0.00  0.00    -0.541 OA
ENDBRANCH  15  18
ENDBRANCH  14  15
ENDBRANCH  13  14
ENDBRANCH  12  13
ENDBRANCH  11  12
ENDBRANCH   8  11
ENDBRANCH   7   9
ENDBRANCH   6   7
ENDBRANCH   2   6
ENDBRANCH   1   3
BRANCH   1  21
ATOM     21  C   UNL     1     -11.446  12.371  63.348  0.00  0.00    +0.022 C 
BRANCH  21  22
ATOM     22  C   UNL     1     -10.204  11.561  63.606  0.00  0.00    +0.004 C 
BRANCH  22  23
ATOM     23  C   UNL     1     -10.333  10.671  64.826  0.00  0.00    +0.023 C 
BRANCH  23  24
ATOM     24  C   UNL     1      -9.117   9.752  64.817  0.00  0.00    +0.115 C 
BRANCH  24  25
ATOM     25  N   UNL     1      -9.334   8.801  65.904  0.00  0.00    -0.205 NA
ATOM     26  C   UNL     1      -9.125   9.315  67.225  0.00  0.00    +0.242 C 
ATOM     27  O   UNL     1      -7.987   9.837  67.423  0.00  0.00    -0.273 OA
BRANCH  26  28
ATOM     28  C   UNL     1      -9.804   8.714  68.390  0.00  0.00    +0.093 C 
BRANCH  28  29
ATOM     29  C   UNL     1     -10.114   9.708  69.476  0.00  0.00    +0.059 C 
BRANCH  29  30
ATOM     30  C   UNL     1     -11.134   9.215  70.436  0.00  0.00    +0.068 C 
ATOM     31  N   UNL     1     -12.212  10.041  70.882  0.00  0.00    -0.284 N 
ATOM     32  O   UNL     1     -12.979   9.578  71.902  0.00  0.00    -0.420 OA
ATOM     33  O   UNL     1     -11.362   7.969  70.408  0.00  0.00    -0.541 OA
BRANCH  31  34
ATOM     34  C   UNL     1     -12.322  11.443  70.565  0.00  0.00    +0.098 C 
BRANCH  34  35
ATOM     35  C   UNL     1     -13.038  12.155  71.703  0.00  0.00    +0.022 C 
BRANCH  35  36
ATOM     36  C   UNL     1     -12.897  13.658  71.514  0.00  0.00    +0.003 C 
BRANCH  36  37
ATOM     37  C   UNL     1     -13.397  14.317  72.770  0.00  0.00    +0.021 C 
BRANCH  37  38
ATOM     38  C   UNL     1     -13.054  15.793  72.671  0.00  0.00    +0.109 C 
ATOM     39  N   UNL     1     -12.762  16.298  73.990  0.00  0.00    -0.131 NA
ENDBRANCH  37  38
ENDBRANCH  36  37
ENDBRANCH  35  36
ENDBRANCH  34  35
ENDBRANCH  31  34
ENDBRANCH  29  30
ENDBRANCH  28  29
ENDBRANCH  26  28
ENDBRANCH  24  25
ENDBRANCH  23  24
ENDBRANCH  22  23
ENDBRANCH  21  22
ENDBRANCH   1  21
TORSDOF 23
ENDMDL
MODEL 8
REMARK VINA RESULT:      -5.5      3.038      9.089
REMARK  Name = 
REMARK  23 active torsions:
REMARK  status: ('A' for Active; 'I' for Inactive)
REMARK    1  A    between atoms: N_4  and  C_6
REMARK    2  A    between atoms: C_6  and  C_7
REMARK    3  A    between atoms: C_7  and  C_8
REMARK    4  A    between atoms: C_8  and  C_9
REMARK    5  A    between atoms: C_9  and  C_10
REMARK    6  A    between atoms: C_10  and  N_11
REMARK    7  A    between atoms: C_12  and  C_14
REMARK    8  A    between atoms: C_14  and  C_15
REMARK    9  A    between atoms: C_15  and  C_16
REMARK   10  A    between atoms: N_18  and  C_20
REMARK   11  A    between atoms: C_20  and  C_21
REMARK   12  A    between atoms: C_21  and  C_22
REMARK   13  A    between atoms: C_22  and  C_23
REMARK   14  A    between atoms: C_23  and  C_24
REMARK   15  A    between atoms: C_24  and  N_25
REMARK   16  A    between atoms: C_26  and  C_28
REMARK   17  A    between atoms: C_28  and  C_29
REMARK   18  A    between atoms: C_29  and  C_30
REMARK   19  A    between atoms: N_32  and  C_34
REMARK   20  A    between atoms: C_34  and  C_35
REMARK   21  A    between atoms: C_35  and  C_36
REMARK   22  A    between atoms: C_36  and  C_37
REMARK   23  A    between atoms: C_37  and  C_38
REMARK                            x       y       z     vdW  Elec       q    Type
REMARK                         _______ _______ _______ _____ _____    ______ ____
ROOT
ATOM      1  C   UNL     1     -12.400  10.109  71.521  0.00  0.00    +0.098 C 
ENDROOT
BRANCH   1   3
ATOM      2  C   UNL     1     -11.894   7.770  71.000  0.00  0.00    +0.068 C 
ATOM      3  N   UNL     1     -11.407   9.046  71.433  0.00  0.00    -0.284 N 
ATOM      4  O   UNL     1     -10.074   9.299  71.361  0.00  0.00    -0.420 OA
ATOM      5  O   UNL     1     -13.069   7.416  71.317  0.00  0.00    -0.541 OA
BRANCH   2   6
ATOM      6  C   UNL     1     -10.940   6.654  70.718  0.00  0.00    +0.059 C 
BRANCH   6   7
ATOM      7  C   UNL     1     -11.051   6.161  69.300  0.00  0.00    +0.093 C 
BRANCH   7   9
ATOM      8  N   UNL     1     -10.781   7.634  67.264  0.00  0.00    -0.205 NA
ATOM      9  C   UNL     1     -10.193   6.958  68.380  0.00  0.00    +0.242 C 
ATOM     10  O   UNL     1      -9.095   7.379  68.834  0.00  0.00    -0.273 OA
BRANCH   8  11
ATOM     11  C   UNL     1     -10.019   8.704  66.645  0.00  0.00    +0.115 C 
BRANCH  11  12
ATOM     12  C   UNL     1     -10.519  10.048  67.090  0.00  0.00    +0.023 C 
BRANCH  12  13
ATOM     13  C   UNL     1      -9.423  11.078  66.851  0.00  0.00    +0.004 C 
BRANCH  13  14
ATOM     14  C   UNL     1      -9.945  12.473  67.068  0.00  0.00    +0.022 C 
BRANCH  14  15
ATOM     15  C   UNL     1     -11.362  12.535  66.558  0.00  0.00    +0.098 C 
BRANCH  15  18
ATOM     16  C   UNL     1     -11.003  11.560  63.465  0.00  0.00    +0.056 C 
ATOM     17  C   UNL     1     -11.912  12.505  64.172  0.00  0.00    +0.068 C 
ATOM     18  N   UNL     1     -11.359  13.223  65.273  0.00  0.00    -0.285 N 
ATOM     19  O   UNL     1     -11.425  14.583  65.329  0.00  0.00    -0.420 OA
ATOM     20  O   UNL     1     -13.153  12.304  64.053  0.00  0.00    -0.541 OA
ENDBRANCH  15  18
ENDBRANCH  14  15
ENDBRANCH  13  14
ENDBRANCH  12  13
ENDBRANCH  11  12
ENDBRANCH   8  11
ENDBRANCH   7   9
ENDBRANCH   6   7
ENDBRANCH   2   6
ENDBRANCH   1   3
BRANCH   1  21
ATOM     21  C   UNL     1     -12.548  10.766  70.177  0.00  0.00    +0.022 C 
BRANCH  21  22
ATOM     22  C   UNL     1     -11.867  12.107  70.196  0.00  0.00    +0.004 C 
BRANCH  22  23
ATOM     23  C   UNL     1     -12.723  13.185  70.833  0.00  0.00    +0.023 C 
BRANCH  23  24
ATOM     24  C   UNL     1     -11.823  14.405  70.996  0.00  0.00    +0.115 C 
BRANCH  24  25
ATOM     25  N   UNL     1     -11.077  14.514  69.746  0.00  0.00    -0.205 NA
ATOM     26  C   UNL     1     -10.934  15.841  69.225  0.00  0.00    +0.242 C 
ATOM     27  O   UNL     1     -12.021  16.469  69.052  0.00  0.00    -0.273 OA
BRANCH  26  28
ATOM     28  C   UNL     1      -9.803  16.193  68.343  0.00  0.00    +0.093 C 
BRANCH  28  29
ATOM     29  C   UNL     1      -9.992  17.501  67.626  0.00  0.00    +0.059 C 
BRANCH  29  30
ATOM     30  C   UNL     1      -9.035  17.690  66.506  0.00  0.00    +0.068 C 
ATOM     31  N   UNL     1      -8.023  18.698  66.540  0.00  0.00    -0.284 N 
ATOM     32  O   UNL     1      -7.324  18.927  65.399  0.00  0.00    -0.420 OA
ATOM     33  O   UNL     1      -8.766  16.653  65.829  0.00  0.00    -0.541 OA
BRANCH  31  34
ATOM     34  C   UNL     1      -7.933  19.698  67.574  0.00  0.00    +0.098 C 
BRANCH  34  35
ATOM     35  C   UNL     1      -7.074  20.852  67.076  0.00  0.00    +0.022 C 
BRANCH  35  36
ATOM     36  C   UNL     1      -5.832  20.957  67.947  0.00  0.00    +0.003 C 
BRANCH  36  37
ATOM     37  C   UNL     1      -5.950  19.917  69.027  0.00  0.00    +0.021 C 
BRANCH  37  38
ATOM     38  C   UNL     1      -5.212  20.444  70.244  0.00  0.00    +0.109 C 
ATOM     39  N   UNL     1      -6.137  20.552  71.346  0.00  0.00    -0.131 NA
ENDBRANCH  37  38
ENDBRANCH  36  37
ENDBRANCH  35  36
ENDBRANCH  34  35
ENDBRANCH  31  34
ENDBRANCH  29  30
ENDBRANCH  28  29
ENDBRANCH  26  28
ENDBRANCH  24  25
ENDBRANCH  23  24
ENDBRANCH  22  23
ENDBRANCH  21  22
ENDBRANCH   1  21
TORSDOF 23
ENDMDL
MODEL 9
REMARK VINA RESULT:      -5.5      2.313      7.615
REMARK  Name = 
REMARK  23 active torsions:
REMARK  status: ('A' for Active; 'I' for Inactive)
REMARK    1  A    between atoms: N_4  and  C_6
REMARK    2  A    between atoms: C_6  and  C_7
REMARK    3  A    between atoms: C_7  and  C_8
REMARK    4  A    between atoms: C_8  and  C_9
REMARK    5  A    between atoms: C_9  and  C_10
REMARK    6  A    between atoms: C_10  and  N_11
REMARK    7  A    between atoms: C_12  and  C_14
REMARK    8  A    between atoms: C_14  and  C_15
REMARK    9  A    between atoms: C_15  and  C_16
REMARK   10  A    between atoms: N_18  and  C_20
REMARK   11  A    between atoms: C_20  and  C_21
REMARK   12  A    between atoms: C_21  and  C_22
REMARK   13  A    between atoms: C_22  and  C_23
REMARK   14  A    between atoms: C_23  and  C_24
REMARK   15  A    between atoms: C_24  and  N_25
REMARK   16  A    between atoms: C_26  and  C_28
REMARK   17  A    between atoms: C_28  and  C_29
REMARK   18  A    between atoms: C_29  and  C_30
REMARK   19  A    between atoms: N_32  and  C_34
REMARK   20  A    between atoms: C_34  and  C_35
REMARK   21  A    between atoms: C_35  and  C_36
REMARK   22  A    between atoms: C_36  and  C_37
REMARK   23  A    between atoms: C_37  and  C_38
REMARK                            x       y       z     vdW  Elec       q    Type
REMARK                         _______ _______ _______ _____ _____    ______ ____
ROOT
ATOM      1  C   UNL     1     -12.169  14.453  65.446  0.00  0.00    +0.098 C 
ENDROOT
BRANCH   1   3
ATOM      2  C   UNL     1     -10.937  12.615  64.396  0.00  0.00    +0.068 C 
ATOM      3  N   UNL     1     -12.209  13.188  64.722  0.00  0.00    -0.284 N 
ATOM      4  O   UNL     1     -13.312  12.396  64.702  0.00  0.00    -0.420 OA
ATOM      5  O   UNL     1      -9.961  13.380  64.136  0.00  0.00    -0.541 OA
BRANCH   2   6
ATOM      6  C   UNL     1     -10.857  11.246  63.802  0.00  0.00    +0.059 C 
BRANCH   6   7
ATOM      7  C   UNL     1     -10.189  10.266  64.729  0.00  0.00    +0.093 C 
BRANCH   7   9
ATOM      8  N   UNL     1     -11.177  10.401  67.052  0.00  0.00    -0.205 NA
ATOM      9  C   UNL     1     -10.152  10.780  66.126  0.00  0.00    +0.242 C 
ATOM     10  O   UNL     1      -9.034  11.147  66.577  0.00  0.00    -0.273 OA
BRANCH   8  11
ATOM     11  C   UNL     1     -10.904  10.571  68.468  0.00  0.00    +0.115 C 
BRANCH  11  12
ATOM     12  C   UNL     1     -12.025  11.303  69.148  0.00  0.00    +0.023 C 
BRANCH  12  13
ATOM     13  C   UNL     1     -12.394  10.552  70.421  0.00  0.00    +0.004 C 
BRANCH  13  14
ATOM     14  C   UNL     1     -12.880  11.504  71.480  0.00  0.00    +0.022 C 
BRANCH  14  15
ATOM     15  C   UNL     1     -12.568  12.911  71.035  0.00  0.00    +0.098 C 
BRANCH  15  18
ATOM     16  C   UNL     1     -11.706  15.777  72.333  0.00  0.00    +0.056 C 
ATOM     17  C   UNL     1     -12.953  15.225  71.737  0.00  0.00    +0.068 C 
ATOM     18  N   UNL     1     -13.210  13.839  71.956  0.00  0.00    -0.285 N 
ATOM     19  O   UNL     1     -14.390  13.419  72.493  0.00  0.00    -0.420 OA
ATOM     20  O   UNL     1     -13.453  15.857  70.764  0.00  0.00    -0.541 OA
ENDBRANCH  15  18
ENDBRANCH  14  15
ENDBRANCH  13  14
ENDBRANCH  12  13
ENDBRANCH  11  12
ENDBRANCH   8  11
ENDBRANCH   7   9
ENDBRANCH   6   7
ENDBRANCH   2   6
ENDBRANCH   1   3
BRANCH   1  21
ATOM     21  C   UNL     1     -11.712  14.206  66.856  0.00  0.00    +0.022 C 
BRANCH  21  22
ATOM     22  C   UNL     1     -11.118  15.468  67.419  0.00  0.00    +0.004 C 
BRANCH  22  23
ATOM     23  C   UNL     1     -10.522  15.266  68.799  0.00  0.00    +0.023 C 
BRANCH  23  24
ATOM     24  C   UNL     1      -9.501  14.142  68.664  0.00  0.00    +0.115 C 
BRANCH  24  25
ATOM     25  N   UNL     1      -8.194  14.778  68.809  0.00  0.00    -0.205 NA
ATOM     26  C   UNL     1      -7.451  14.945  67.596  0.00  0.00    +0.242 C 
ATOM     27  O   UNL     1      -7.263  13.882  66.932  0.00  0.00    -0.273 OA
BRANCH  26  28
ATOM     28  C   UNL     1      -6.435  16.010  67.468  0.00  0.00    +0.093 C 
BRANCH  28  29
ATOM     29  C   UNL     1      -6.806  17.069  66.467  0.00  0.00    +0.059 C 
BRANCH  29  30
ATOM     30  C   UNL     1      -8.028  17.823  66.850  0.00  0.00    +0.068 C 
ATOM     31  N   UNL     1      -8.114  18.547  68.079  0.00  0.00    -0.284 N 
ATOM     32  O   UNL     1      -9.328  19.039  68.435  0.00  0.00    -0.420 OA
ATOM     33  O   UNL     1      -8.724  18.270  65.889  0.00  0.00    -0.541 OA
BRANCH  31  34
ATOM     34  C   UNL     1      -7.104  18.492  69.105  0.00  0.00    +0.098 C 
BRANCH  34  35
ATOM     35  C   UNL     1      -6.278  19.769  69.059  0.00  0.00    +0.022 C 
BRANCH  35  36
ATOM     36  C   UNL     1      -5.325  19.786  70.244  0.00  0.00    +0.003 C 
BRANCH  36  37
ATOM     37  C   UNL     1      -4.630  21.120  70.242  0.00  0.00    +0.021 C 
BRANCH  37  38
ATOM     38  C   UNL     1      -4.213  21.412  71.673  0.00  0.00    +0.109 C 
ATOM     39  N   UNL     1      -3.831  20.178  72.313  0.00  0.00    -0.131 NA
ENDBRANCH  37  38
ENDBRANCH  36  37
ENDBRANCH  35  36
ENDBRANCH  34  35
ENDBRANCH  31  34
ENDBRANCH  29  30
ENDBRANCH  28  29
ENDBRANCH  26  28
ENDBRANCH  24  25
ENDBRANCH  23  24
ENDBRANCH  22  23
ENDBRANCH  21  22
ENDBRANCH   1  21
TORSDOF 23
ENDMDL
