MODEL 1
REMARK VINA RESULT:      -6.0      0.000      0.000
REMARK  Name = 
REMARK  6 active torsions:
REMARK  status: ('A' for Active; 'I' for Inactive)
REMARK    1  A    between atoms: O_2  and  C_3
REMARK    2  A    between atoms: C_11  and  N_12
REMARK    3  A    between atoms: N_12  and  C_13
REMARK    4  A    between atoms: C_13  and  C_15
REMARK    5  A    between atoms: C_15  and  C_16
REMARK    6  A    between atoms: C_16  and  C_17
REMARK                            x       y       z     vdW  Elec       q    Type
REMARK                         _______ _______ _______ _____ _____    ______ ____
ROOT
ATOM      1  C   UNL     1     -12.611  14.262  71.105  0.00  0.00    +0.140 A 
ATOM      2  C   UNL     1     -11.883  14.215  69.928  0.00  0.00    +0.054 A 
ATOM      3  C   UNL     1     -11.828  13.027  69.265  0.00  0.00    +0.086 A 
ATOM      4  C   UNL     1     -11.983  11.875  70.031  0.00  0.00    +0.096 A 
ATOM      5  C   UNL     1     -12.747  11.865  71.193  0.00  0.00    +0.022 A 
ATOM      6  C   UNL     1     -13.066  10.683  71.848  0.00  0.00    +0.003 A 
ATOM      7  C   UNL     1     -12.332   9.571  71.452  0.00  0.00    +0.021 A 
ATOM      8  C   UNL     1     -11.223   9.735  70.629  0.00  0.00    +0.099 A 
ATOM      9  N   UNL     1     -11.287  10.748  69.729  0.00  0.00    -0.243 NA
ATOM     10  C   UNL     1     -13.130  13.107  71.674  0.00  0.00    +0.038 A 
ENDROOT
BRANCH   1  12
ATOM     11  C   UNL     1     -12.425  15.780  72.133  0.00  0.00    +0.252 C 
ATOM     12  O   UNL     1     -12.481  15.406  71.904  0.00  0.00    -0.471 OA
ENDBRANCH   1  12
BRANCH   3  13
ATOM     13  N   UNL     1     -11.621  12.780  67.916  0.00  0.00    -0.238 NA
BRANCH  13  14
ATOM     14  C   UNL     1     -11.939  13.899  66.869  0.00  0.00    +0.093 C 
ATOM     15  C   UNL     1     -12.230  12.839  65.649  0.00  0.00    +0.023 C 
BRANCH  14  16
ATOM     16  C   UNL     1     -10.356  14.018  66.443  0.00  0.00    +0.023 C 
BRANCH  16  17
ATOM     17  C   UNL     1     -10.333  14.721  65.117  0.00  0.00    +0.022 C 
BRANCH  17  18
ATOM     18  C   UNL     1     -10.547  16.200  65.418  0.00  0.00    +0.109 C 
ATOM     19  N   UNL     1     -11.293  16.745  64.310  0.00  0.00    -0.131 NA
ENDBRANCH  17  18
ENDBRANCH  16  17
ENDBRANCH  14  16
ENDBRANCH  13  14
ENDBRANCH   3  13
TORSDOF 6
ENDMDL
MODEL 2
REMARK VINA RESULT:      -5.9      3.445      7.406
REMARK  Name = 
REMARK  6 active torsions:
REMARK  status: ('A' for Active; 'I' for Inactive)
REMARK    1  A    between atoms: O_2  and  C_3
REMARK    2  A    between atoms: C_11  and  N_12
REMARK    3  A    between atoms: N_12  and  C_13
REMARK    4  A    between atoms: C_13  and  C_15
REMARK    5  A    between atoms: C_15  and  C_16
REMARK    6  A    between atoms: C_16  and  C_17
REMARK                            x       y       z     vdW  Elec       q    Type
REMARK                         _______ _______ _______ _____ _____    ______ ____
ROOT
ATOM      1  C   UNL     1     -10.756  15.440  66.140  0.00  0.00    +0.140 A 
ATOM      2  C   UNL     1     -10.926  15.110  67.474  0.00  0.00    +0.054 A 
ATOM      3  C   UNL     1     -11.156  16.126  68.352  0.00  0.00    +0.086 A 
ATOM      4  C   UNL     1     -10.656  17.377  68.006  0.00  0.00    +0.096 A 
ATOM      5  C   UNL     1     -10.516  17.769  66.679  0.00  0.00    +0.022 A 
ATOM      6  C   UNL     1     -10.209  19.078  66.331  0.00  0.00    +0.003 A 
ATOM      7  C   UNL     1      -9.758  19.877  67.375  0.00  0.00    +0.021 A 
ATOM      8  C   UNL     1      -9.439  19.296  68.599  0.00  0.00    +0.099 A 
ATOM      9  N   UNL     1     -10.173  18.216  68.961  0.00  0.00    -0.243 NA
ATOM     10  C   UNL     1     -10.660  16.765  65.734  0.00  0.00    +0.038 A 
ENDROOT
BRANCH   1  12
ATOM     11  C   UNL     1     -10.128  14.113  65.026  0.00  0.00    +0.252 C 
ATOM     12  O   UNL     1     -10.294  14.437  65.277  0.00  0.00    -0.471 OA
ENDBRANCH   1  12
BRANCH   3  13
ATOM     13  N   UNL     1     -11.811  16.101  69.574  0.00  0.00    -0.238 NA
BRANCH  13  14
ATOM     14  C   UNL     1     -11.240  15.225  70.739  0.00  0.00    +0.093 C 
ATOM     15  C   UNL     1     -12.409  14.079  70.608  0.00  0.00    +0.023 C 
BRANCH  14  16
ATOM     16  C   UNL     1     -12.118  16.051  71.856  0.00  0.00    +0.023 C 
BRANCH  16  17
ATOM     17  C   UNL     1     -12.828  15.015  72.678  0.00  0.00    +0.022 C 
BRANCH  17  18
ATOM     18  C   UNL     1     -12.411  15.263  74.123  0.00  0.00    +0.109 C 
ATOM     19  N   UNL     1     -12.547  16.680  74.357  0.00  0.00    -0.131 NA
ENDBRANCH  17  18
ENDBRANCH  16  17
ENDBRANCH  14  16
ENDBRANCH  13  14
ENDBRANCH   3  13
TORSDOF 6
ENDMDL
MODEL 3
REMARK VINA RESULT:      -5.9      1.593      2.263
REMARK  Name = 
REMARK  6 active torsions:
REMARK  status: ('A' for Active; 'I' for Inactive)
REMARK    1  A    between atoms: O_2  and  C_3
REMARK    2  A    between atoms: C_11  and  N_12
REMARK    3  A    between atoms: N_12  and  C_13
REMARK    4  A    between atoms: C_13  and  C_15
REMARK    5  A    between atoms: C_15  and  C_16
REMARK    6  A    between atoms: C_16  and  C_17
REMARK                            x       y       z     vdW  Elec       q    Type
REMARK                         _______ _______ _______ _____ _____    ______ ____
ROOT
ATOM      1  C   UNL     1     -12.680  15.428  72.798  0.00  0.00    +0.140 A 
ATOM      2  C   UNL     1     -12.005  15.869  71.672  0.00  0.00    +0.054 A 
ATOM      3  C   UNL     1     -12.087  15.107  70.547  0.00  0.00    +0.086 A 
ATOM      4  C   UNL     1     -12.319  13.747  70.728  0.00  0.00    +0.096 A 
ATOM      5  C   UNL     1     -13.035  13.264  71.818  0.00  0.00    +0.022 A 
ATOM      6  C   UNL     1     -13.438  11.938  71.899  0.00  0.00    +0.003 A 
ATOM      7  C   UNL     1     -12.827  11.078  70.993  0.00  0.00    +0.021 A 
ATOM      8  C   UNL     1     -11.740  11.522  70.248  0.00  0.00    +0.099 A 
ATOM      9  N   UNL     1     -11.743  12.833  69.902  0.00  0.00    -0.243 NA
ATOM     10  C   UNL     1     -13.283  14.178  72.830  0.00  0.00    +0.038 A 
ENDROOT
BRANCH   1  12
ATOM     11  C   UNL     1     -12.358  16.293  74.393  0.00  0.00    +0.252 C 
ATOM     12  O   UNL     1     -12.414  16.078  74.011  0.00  0.00    -0.471 OA
ENDBRANCH   1  12
BRANCH   3  13
ATOM     13  N   UNL     1     -11.955  15.482  69.218  0.00  0.00    -0.238 NA
BRANCH  13  14
ATOM     14  C   UNL     1     -10.527  15.622  68.594  0.00  0.00    +0.093 C 
ATOM     15  C   UNL     1     -10.760  17.176  68.115  0.00  0.00    +0.023 C 
BRANCH  14  16
ATOM     16  C   UNL     1     -11.052  15.054  67.144  0.00  0.00    +0.023 C 
BRANCH  16  17
ATOM     17  C   UNL     1     -10.261  15.784  66.098  0.00  0.00    +0.022 C 
BRANCH  17  18
ATOM     18  C   UNL     1     -10.969  15.525  64.773  0.00  0.00    +0.109 C 
ATOM     19  N   UNL     1     -11.353  16.812  64.249  0.00  0.00    -0.131 NA
ENDBRANCH  17  18
ENDBRANCH  16  17
ENDBRANCH  14  16
ENDBRANCH  13  14
ENDBRANCH   3  13
TORSDOF 6
ENDMDL
MODEL 4
REMARK VINA RESULT:      -5.8      1.507      1.903
REMARK  Name = 
REMARK  6 active torsions:
REMARK  status: ('A' for Active; 'I' for Inactive)
REMARK    1  A    between atoms: O_2  and  C_3
REMARK    2  A    between atoms: C_11  and  N_12
REMARK    3  A    between atoms: N_12  and  C_13
REMARK    4  A    between atoms: C_13  and  C_15
REMARK    5  A    between atoms: C_15  and  C_16
REMARK    6  A    between atoms: C_16  and  C_17
REMARK                            x       y       z     vdW  Elec       q    Type
REMARK                         _______ _______ _______ _____ _____    ______ ____
ROOT
ATOM      1  C   UNL     1     -13.061  13.899  71.886  0.00  0.00    +0.140 A 
ATOM      2  C   UNL     1     -12.261  14.175  70.791  0.00  0.00    +0.054 A 
ATOM      3  C   UNL     1     -12.032  13.166  69.905  0.00  0.00    +0.086 A 
ATOM      4  C   UNL     1     -12.102  11.869  70.402  0.00  0.00    +0.096 A 
ATOM      5  C   UNL     1     -12.931  11.536  71.469  0.00  0.00    +0.022 A 
ATOM      6  C   UNL     1     -13.154  10.217  71.837  0.00  0.00    +0.003 A 
ATOM      7  C   UNL     1     -12.277   9.291  71.284  0.00  0.00    +0.021 A 
ATOM      8  C   UNL     1     -11.145   9.734  70.608  0.00  0.00    +0.099 A 
ATOM      9  N   UNL     1     -11.266  10.905  69.934  0.00  0.00    -0.243 NA
ATOM     10  C   UNL     1     -13.481  12.604  72.160  0.00  0.00    +0.038 A 
ENDROOT
BRANCH   1  12
ATOM     11  C   UNL     1     -13.119  15.175  73.215  0.00  0.00    +0.252 C 
ATOM     12  O   UNL     1     -13.112  14.853  72.911  0.00  0.00    -0.471 OA
ENDBRANCH   1  12
BRANCH   3  13
ATOM     13  N   UNL     1     -11.715  13.235  68.556  0.00  0.00    -0.238 NA
BRANCH  13  14
ATOM     14  C   UNL     1     -10.382  13.924  68.111  0.00  0.00    +0.093 C 
ATOM     15  C   UNL     1     -11.141  15.129  67.292  0.00  0.00    +0.023 C 
BRANCH  14  16
ATOM     16  C   UNL     1     -10.301  13.000  66.754  0.00  0.00    +0.023 C 
BRANCH  16  17
ATOM     17  C   UNL     1     -11.705  12.551  66.470  0.00  0.00    +0.022 C 
BRANCH  17  18
ATOM     18  C   UNL     1     -11.771  12.288  64.970  0.00  0.00    +0.109 C 
ATOM     19  N   UNL     1     -13.130  12.545  64.563  0.00  0.00    -0.131 NA
ENDBRANCH  17  18
ENDBRANCH  16  17
ENDBRANCH  14  16
ENDBRANCH  13  14
ENDBRANCH   3  13
TORSDOF 6
ENDMDL
MODEL 5
REMARK VINA RESULT:      -5.6      3.332      4.835
REMARK  Name = 
REMARK  6 active torsions:
REMARK  status: ('A' for Active; 'I' for Inactive)
REMARK    1  A    between atoms: O_2  and  C_3
REMARK    2  A    between atoms: C_11  and  N_12
REMARK    3  A    between atoms: N_12  and  C_13
REMARK    4  A    between atoms: C_13  and  C_15
REMARK    5  A    between atoms: C_15  and  C_16
REMARK    6  A    between atoms: C_16  and  C_17
REMARK                            x       y       z     vdW  Elec       q    Type
REMARK                         _______ _______ _______ _____ _____    ______ ____
ROOT
ATOM      1  C   UNL     1     -11.574  13.642  67.457  0.00  0.00    +0.140 A 
ATOM      2  C   UNL     1     -11.516  15.020  67.331  0.00  0.00    +0.054 A 
ATOM      3  C   UNL     1     -11.479  15.757  68.475  0.00  0.00    +0.086 A 
ATOM      4  C   UNL     1     -12.055  15.188  69.606  0.00  0.00    +0.096 A 
ATOM      5  C   UNL     1     -12.090  13.811  69.797  0.00  0.00    +0.022 A 
ATOM      6  C   UNL     1     -12.480  13.250  71.005  0.00  0.00    +0.003 A 
ATOM      7  C   UNL     1     -13.114  14.120  71.884  0.00  0.00    +0.021 A 
ATOM      8  C   UNL     1     -13.505  15.380  71.444  0.00  0.00    +0.099 A 
ATOM      9  N   UNL     1     -12.715  15.962  70.508  0.00  0.00    -0.243 NA
ATOM     10  C   UNL     1     -11.751  13.040  68.696  0.00  0.00    +0.038 A 
ENDROOT
BRANCH   1  12
ATOM     11  C   UNL     1     -11.945  12.641  65.955  0.00  0.00    +0.252 C 
ATOM     12  O   UNL     1     -11.844  12.895  66.302  0.00  0.00    -0.471 OA
ENDBRANCH   1  12
BRANCH   3  13
ATOM     13  N   UNL     1     -10.958  17.025  68.688  0.00  0.00    -0.238 NA
BRANCH  13  14
ATOM     14  C   UNL     1      -9.801  17.548  67.772  0.00  0.00    +0.093 C 
ATOM     15  C   UNL     1      -8.617  16.848  68.669  0.00  0.00    +0.023 C 
BRANCH  14  16
ATOM     16  C   UNL     1      -9.684  18.942  68.635  0.00  0.00    +0.023 C 
BRANCH  16  17
ATOM     17  C   UNL     1      -9.682  20.057  67.629  0.00  0.00    +0.022 C 
BRANCH  17  18
ATOM     18  C   UNL     1      -8.381  19.920  66.847  0.00  0.00    +0.109 C 
ATOM     19  N   UNL     1      -7.502  20.962  67.318  0.00  0.00    -0.131 NA
ENDBRANCH  17  18
ENDBRANCH  16  17
ENDBRANCH  14  16
ENDBRANCH  13  14
ENDBRANCH   3  13
TORSDOF 6
ENDMDL
MODEL 6
REMARK VINA RESULT:      -5.5      2.847      5.134
REMARK  Name = 
REMARK  6 active torsions:
REMARK  status: ('A' for Active; 'I' for Inactive)
REMARK    1  A    between atoms: O_2  and  C_3
REMARK    2  A    between atoms: C_11  and  N_12
REMARK    3  A    between atoms: N_12  and  C_13
REMARK    4  A    between atoms: C_13  and  C_15
REMARK    5  A    between atoms: C_15  and  C_16
REMARK    6  A    between atoms: C_16  and  C_17
REMARK                            x       y       z     vdW  Elec       q    Type
REMARK                         _______ _______ _______ _____ _____    ______ ____
ROOT
ATOM      1  C   UNL     1     -11.399  12.154  67.797  0.00  0.00    +0.140 A 
ATOM      2  C   UNL     1     -11.956  13.211  68.496  0.00  0.00    +0.054 A 
ATOM      3  C   UNL     1     -12.032  13.104  69.851  0.00  0.00    +0.086 A 
ATOM      4  C   UNL     1     -12.098  11.816  70.374  0.00  0.00    +0.096 A 
ATOM      5  C   UNL     1     -11.509  10.732  69.731  0.00  0.00    +0.022 A 
ATOM      6  C   UNL     1     -11.400   9.491  70.342  0.00  0.00    +0.003 A 
ATOM      7  C   UNL     1     -12.175   9.323  71.484  0.00  0.00    +0.021 A 
ATOM      8  C   UNL     1     -13.137  10.274  71.809  0.00  0.00    +0.099 A 
ATOM      9  N   UNL     1     -12.851  11.557  71.476  0.00  0.00    -0.243 NA
ATOM     10  C   UNL     1     -11.078  10.962  68.434  0.00  0.00    +0.038 A 
ENDROOT
BRANCH   1  12
ATOM     11  C   UNL     1     -11.543  12.142  65.960  0.00  0.00    +0.252 C 
ATOM     12  O   UNL     1     -11.527  12.157  66.402  0.00  0.00    -0.471 OA
ENDBRANCH   1  12
BRANCH   3  13
ATOM     13  N   UNL     1     -12.071  14.103  70.812  0.00  0.00    -0.238 NA
BRANCH  13  14
ATOM     14  C   UNL     1     -12.510  15.549  70.405  0.00  0.00    +0.093 C 
ATOM     15  C   UNL     1     -10.972  16.090  70.213  0.00  0.00    +0.023 C 
BRANCH  14  16
ATOM     16  C   UNL     1     -12.529  16.037  71.974  0.00  0.00    +0.023 C 
BRANCH  16  17
ATOM     17  C   UNL     1     -12.257  14.811  72.796  0.00  0.00    +0.022 C 
BRANCH  17  18
ATOM     18  C   UNL     1     -12.440  15.227  74.251  0.00  0.00    +0.109 C 
ATOM     19  N   UNL     1     -12.555  16.665  74.260  0.00  0.00    -0.131 NA
ENDBRANCH  17  18
ENDBRANCH  16  17
ENDBRANCH  14  16
ENDBRANCH  13  14
ENDBRANCH   3  13
TORSDOF 6
ENDMDL
MODEL 7
REMARK VINA RESULT:      -5.5      3.085      6.329
REMARK  Name = 
REMARK  6 active torsions:
REMARK  status: ('A' for Active; 'I' for Inactive)
REMARK    1  A    between atoms: O_2  and  C_3
REMARK    2  A    between atoms: C_11  and  N_12
REMARK    3  A    between atoms: N_12  and  C_13
REMARK    4  A    between atoms: C_13  and  C_15
REMARK    5  A    between atoms: C_15  and  C_16
REMARK    6  A    between atoms: C_16  and  C_17
REMARK                            x       y       z     vdW  Elec       q    Type
REMARK                         _______ _______ _______ _____ _____    ______ ____
ROOT
ATOM      1  C   UNL     1      -9.248  17.217  67.800  0.00  0.00    +0.140 A 
ATOM      2  C   UNL     1     -10.408  17.330  68.548  0.00  0.00    +0.054 A 
ATOM      3  C   UNL     1     -11.160  16.208  68.722  0.00  0.00    +0.086 A 
ATOM      4  C   UNL     1     -11.064  15.231  67.736  0.00  0.00    +0.096 A 
ATOM      5  C   UNL     1      -9.900  15.049  66.996  0.00  0.00    +0.022 A 
ATOM      6  C   UNL     1      -9.730  13.956  66.157  0.00  0.00    +0.003 A 
ATOM      7  C   UNL     1     -10.889  13.241  65.875  0.00  0.00    +0.021 A 
ATOM      8  C   UNL     1     -12.126  13.760  66.244  0.00  0.00    +0.099 A 
ATOM      9  N   UNL     1     -12.152  14.499  67.381  0.00  0.00    -0.243 NA
ATOM     10  C   UNL     1      -8.945  16.046  67.118  0.00  0.00    +0.038 A 
ENDROOT
BRANCH   1  12
ATOM     11  C   UNL     1      -8.377  18.758  67.289  0.00  0.00    +0.252 C 
ATOM     12  O   UNL     1      -8.598  18.401  67.427  0.00  0.00    -0.471 OA
ENDBRANCH   1  12
BRANCH   3  13
ATOM     13  N   UNL     1     -12.041  15.889  69.744  0.00  0.00    -0.238 NA
BRANCH  13  14
ATOM     14  C   UNL     1     -11.497  15.220  71.051  0.00  0.00    +0.093 C 
ATOM     15  C   UNL     1     -12.350  13.833  70.837  0.00  0.00    +0.023 C 
BRANCH  14  16
ATOM     16  C   UNL     1     -12.709  15.874  71.948  0.00  0.00    +0.023 C 
BRANCH  16  17
ATOM     17  C   UNL     1     -13.106  14.824  72.944  0.00  0.00    +0.022 C 
BRANCH  17  18
ATOM     18  C   UNL     1     -12.403  15.188  74.247  0.00  0.00    +0.109 C 
ATOM     19  N   UNL     1     -12.561  16.611  74.420  0.00  0.00    -0.131 NA
ENDBRANCH  17  18
ENDBRANCH  16  17
ENDBRANCH  14  16
ENDBRANCH  13  14
ENDBRANCH   3  13
TORSDOF 6
ENDMDL
MODEL 8
REMARK VINA RESULT:      -5.5      1.453      1.730
REMARK  Name = 
REMARK  6 active torsions:
REMARK  status: ('A' for Active; 'I' for Inactive)
REMARK    1  A    between atoms: O_2  and  C_3
REMARK    2  A    between atoms: C_11  and  N_12
REMARK    3  A    between atoms: N_12  and  C_13
REMARK    4  A    between atoms: C_13  and  C_15
REMARK    5  A    between atoms: C_15  and  C_16
REMARK    6  A    between atoms: C_16  and  C_17
REMARK                            x       y       z     vdW  Elec       q    Type
REMARK                         _______ _______ _______ _____ _____    ______ ____
ROOT
ATOM      1  C   UNL     1     -12.413  14.191  70.957  0.00  0.00    +0.140 A 
ATOM      2  C   UNL     1     -11.724  14.020  69.768  0.00  0.00    +0.054 A 
ATOM      3  C   UNL     1     -11.778  12.795  69.177  0.00  0.00    +0.086 A 
ATOM      4  C   UNL     1     -11.996  11.705  70.013  0.00  0.00    +0.096 A 
ATOM      5  C   UNL     1     -12.726  11.821  71.192  0.00  0.00    +0.022 A 
ATOM      6  C   UNL     1     -13.114  10.707  71.924  0.00  0.00    +0.003 A 
ATOM      7  C   UNL     1     -12.477   9.520  71.578  0.00  0.00    +0.021 A 
ATOM      8  C   UNL     1     -11.383   9.551  70.719  0.00  0.00    +0.099 A 
ATOM      9  N   UNL     1     -11.396  10.512  69.763  0.00  0.00    -0.243 NA
ATOM     10  C   UNL     1     -13.001  13.114  71.607  0.00  0.00    +0.038 A 
ENDROOT
BRANCH   1  12
ATOM     11  C   UNL     1     -12.079  15.744  71.892  0.00  0.00    +0.252 C 
ATOM     12  O   UNL     1     -12.175  15.366  71.683  0.00  0.00    -0.471 OA
ENDBRANCH   1  12
BRANCH   3  13
ATOM     13  N   UNL     1     -11.628  12.456  67.840  0.00  0.00    -0.238 NA
BRANCH  13  14
ATOM     14  C   UNL     1     -10.901  13.446  66.869  0.00  0.00    +0.093 C 
ATOM     15  C   UNL     1     -12.297  14.094  66.296  0.00  0.00    +0.023 C 
BRANCH  14  16
ATOM     16  C   UNL     1     -10.881  12.326  65.666  0.00  0.00    +0.023 C 
BRANCH  16  17
ATOM     17  C   UNL     1     -10.760  13.095  64.383  0.00  0.00    +0.022 C 
BRANCH  17  18
ATOM     18  C   UNL     1     -11.277  12.171  63.285  0.00  0.00    +0.109 C 
ATOM     19  N   UNL     1     -12.710  12.110  63.435  0.00  0.00    -0.131 NA
ENDBRANCH  17  18
ENDBRANCH  16  17
ENDBRANCH  14  16
ENDBRANCH  13  14
ENDBRANCH   3  13
TORSDOF 6
ENDMDL
MODEL 9
REMARK VINA RESULT:      -5.3      2.541      4.715
REMARK  Name = 
REMARK  6 active torsions:
REMARK  status: ('A' for Active; 'I' for Inactive)
REMARK    1  A    between atoms: O_2  and  C_3
REMARK    2  A    between atoms: C_11  and  N_12
REMARK    3  A    between atoms: N_12  and  C_13
REMARK    4  A    between atoms: C_13  and  C_15
REMARK    5  A    between atoms: C_15  and  C_16
REMARK    6  A    between atoms: C_16  and  C_17
REMARK                            x       y       z     vdW  Elec       q    Type
REMARK                         _______ _______ _______ _____ _____    ______ ____
ROOT
ATOM      1  C   UNL     1     -12.091  15.225  70.145  0.00  0.00    +0.140 A 
ATOM      2  C   UNL     1     -12.103  14.209  69.203  0.00  0.00    +0.054 A 
ATOM      3  C   UNL     1     -11.179  14.262  68.205  0.00  0.00    +0.086 A 
ATOM      4  C   UNL     1     -10.704  15.523  67.858  0.00  0.00    +0.096 A 
ATOM      5  C   UNL     1     -10.627  16.558  68.784  0.00  0.00    +0.022 A 
ATOM      6  C   UNL     1      -9.973  17.749  68.498  0.00  0.00    +0.003 A 
ATOM      7  C   UNL     1      -9.679  17.954  67.154  0.00  0.00    +0.021 A 
ATOM      8  C   UNL     1     -10.225  17.110  66.193  0.00  0.00    +0.099 A 
ATOM      9  N   UNL     1     -10.412  15.819  66.563  0.00  0.00    -0.243 NA
ATOM     10  C   UNL     1     -11.277  16.339  69.988  0.00  0.00    +0.038 A 
ENDROOT
BRANCH   1  12
ATOM     11  C   UNL     1     -13.506  15.298  71.323  0.00  0.00    +0.252 C 
ATOM     12  O   UNL     1     -13.173  15.301  71.032  0.00  0.00    -0.471 OA
ENDBRANCH   1  12
BRANCH   3  13
ATOM     13  N   UNL     1     -10.638  13.232  67.450  0.00  0.00    -0.238 NA
BRANCH  13  14
ATOM     14  C   UNL     1     -11.468  11.924  67.223  0.00  0.00    +0.093 C 
ATOM     15  C   UNL     1     -10.242  11.137  66.466  0.00  0.00    +0.023 C 
BRANCH  14  16
ATOM     16  C   UNL     1     -12.047  12.483  65.790  0.00  0.00    +0.023 C 
BRANCH  16  17
ATOM     17  C   UNL     1     -10.886  12.475  64.839  0.00  0.00    +0.022 C 
BRANCH  17  18
ATOM     18  C   UNL     1     -11.486  12.437  63.438  0.00  0.00    +0.109 C 
ATOM     19  N   UNL     1     -12.905  12.238  63.599  0.00  0.00    -0.131 NA
ENDBRANCH  17  18
ENDBRANCH  16  17
ENDBRANCH  14  16
ENDBRANCH  13  14
ENDBRANCH   3  13
TORSDOF 6
ENDMDL
