MODEL 1
REMARK VINA RESULT:      -6.5      0.000      0.000
REMARK  Name = 
REMARK  9 active torsions:
REMARK  status: ('A' for Active; 'I' for Inactive)
REMARK    1  A    between atoms: C_2  and  C_3
REMARK    2  A    between atoms: N_5  and  C_6
REMARK    3  A    between atoms: N_5  and  C_12
REMARK    4  A    between atoms: C_12  and  C_13
REMARK    5  A    between atoms: C_13  and  O_14
REMARK    6  A    between atoms: N_18  and  C_19
REMARK    7  A    between atoms: C_19  and  C_20
REMARK    8  A    between atoms: C_20  and  N_21
REMARK    9  A    between atoms: N_24  and  C_25
REMARK                            x       y       z     vdW  Elec       q    Type
REMARK                         _______ _______ _______ _____ _____    ______ ____
ROOT
ATOM      1  C   UNL     1      -9.672  15.226  66.653  0.00  0.00    +0.094 C 
ATOM      2  C   UNL     1     -10.781  15.116  67.693  0.00  0.00    +0.038 C 
ATOM      3  C   UNL     1     -10.221  14.359  68.891  0.00  0.00    +0.074 C 
ATOM      4  N   UNL     1     -10.181  12.946  68.523  0.00  0.00    -0.271 NA
ATOM      5  C   UNL     1      -9.517  12.874  67.239  0.00  0.00    +0.074 C 
ATOM      6  C   UNL     1      -8.680  14.120  66.977  0.00  0.00    +0.038 C 
ENDROOT
BRANCH   1   8
ATOM      7  C   UNL     1      -7.658  16.721  66.407  0.00  0.00    +0.229 C 
ATOM      8  N   UNL     1      -9.044  16.521  66.658  0.00  0.00    -0.259 N 
ATOM      9  O   UNL     1      -7.344  17.592  65.544  0.00  0.00    -0.275 OA
BRANCH   8  10
ATOM     10  C   UNL     1      -9.777  17.680  67.076  0.00  0.00    +0.054 A 
ATOM     11  C   UNL     1      -9.676  18.219  68.330  0.00  0.00    +0.015 A 
ATOM     12  C   UNL     1      -9.797  19.595  68.477  0.00  0.00    +0.001 A 
ATOM     13  C   UNL     1     -10.062  20.426  67.398  0.00  0.00    +0.000 A 
ATOM     14  C   UNL     1     -10.417  19.838  66.190  0.00  0.00    +0.001 A 
ATOM     15  C   UNL     1     -10.405  18.451  66.111  0.00  0.00    +0.015 A 
ENDBRANCH   8  10
BRANCH   7  17
ATOM     16  C   UNL     1      -6.493  16.722  68.609  0.00  0.00    +0.010 C 
ATOM     17  C   UNL     1      -6.575  16.146  67.224  0.00  0.00    +0.086 C 
ENDBRANCH   7  17
ENDBRANCH   1   8
BRANCH   1  18
ATOM     18  C   UNL     1     -10.238  14.950  65.271  0.00  0.00    +0.161 C 
BRANCH  18  19
ATOM     19  O   UNL     1     -11.618  14.833  65.280  0.00  0.00    -0.349 OA
ATOM     20  C   UNL     1     -11.987  13.829  64.375  0.00  0.00    +0.174 C 
ENDBRANCH  18  19
ENDBRANCH   1  18
BRANCH   4  21
ATOM     21  C   UNL     1     -11.545  12.486  68.484  0.00  0.00    +0.099 C 
BRANCH  21  22
ATOM     22  C   UNL     1     -11.668  10.990  68.374  0.00  0.00    +0.151 C 
BRANCH  22  23
ATOM     23  N   UNL     1     -11.961  10.478  69.711  0.00  0.00    -0.180 N 
ATOM     24  C   UNL     1     -11.029   9.832  70.450  0.00  0.00    +0.366 A 
ATOM     25  O   UNL     1      -9.909   9.434  70.036  0.00  0.00    -0.243 OA
ATOM     26  N   UNL     1     -11.621   9.434  71.600  0.00  0.00    -0.182 N 
ATOM     27  N   UNL     1     -12.675  10.242  71.717  0.00  0.00    -0.042 NA
ATOM     28  N   UNL     1     -12.838  10.927  70.595  0.00  0.00    -0.042 NA
BRANCH  26  29
ATOM     29  C   UNL     1     -11.389   8.195  72.333  0.00  0.00    +0.134 C 
ATOM     30  C   UNL     1     -12.074   7.020  71.646  0.00  0.00    +0.029 C 
ENDBRANCH  26  29
ENDBRANCH  22  23
ENDBRANCH  21  22
ENDBRANCH   4  21
TORSDOF 9
ENDMDL
MODEL 2
REMARK VINA RESULT:      -6.4      3.440      4.298
REMARK  Name = 
REMARK  9 active torsions:
REMARK  status: ('A' for Active; 'I' for Inactive)
REMARK    1  A    between atoms: C_2  and  C_3
REMARK    2  A    between atoms: N_5  and  C_6
REMARK    3  A    between atoms: N_5  and  C_12
REMARK    4  A    between atoms: C_12  and  C_13
REMARK    5  A    between atoms: C_13  and  O_14
REMARK    6  A    between atoms: N_18  and  C_19
REMARK    7  A    between atoms: C_19  and  C_20
REMARK    8  A    between atoms: C_20  and  N_21
REMARK    9  A    between atoms: N_24  and  C_25
REMARK                            x       y       z     vdW  Elec       q    Type
REMARK                         _______ _______ _______ _____ _____    ______ ____
ROOT
ATOM      1  C   UNL     1      -9.889  15.191  66.666  0.00  0.00    +0.094 C 
ATOM      2  C   UNL     1     -10.151  14.712  65.243  0.00  0.00    +0.038 C 
ATOM      3  C   UNL     1     -11.598  15.046  64.899  0.00  0.00    +0.074 C 
ATOM      4  N   UNL     1     -12.437  14.061  65.576  0.00  0.00    -0.271 NA
ATOM      5  C   UNL     1     -12.003  14.030  66.957  0.00  0.00    +0.074 C 
ATOM      6  C   UNL     1     -11.253  15.304  67.330  0.00  0.00    +0.038 C 
ENDROOT
BRANCH   1   8
ATOM      7  C   UNL     1      -7.778  16.555  66.470  0.00  0.00    +0.229 C 
ATOM      8  N   UNL     1      -9.178  16.442  66.700  0.00  0.00    -0.259 N 
ATOM      9  O   UNL     1      -7.397  17.416  65.625  0.00  0.00    -0.275 OA
BRANCH   8  10
ATOM     10  C   UNL     1      -9.840  17.640  67.126  0.00  0.00    +0.054 A 
ATOM     11  C   UNL     1      -9.684  18.180  68.374  0.00  0.00    +0.015 A 
ATOM     12  C   UNL     1      -9.729  19.561  68.515  0.00  0.00    +0.001 A 
ATOM     13  C   UNL     1      -9.974  20.399  67.437  0.00  0.00    +0.000 A 
ATOM     14  C   UNL     1     -10.385  19.824  66.241  0.00  0.00    +0.001 A 
ATOM     15  C   UNL     1     -10.448  18.438  66.170  0.00  0.00    +0.015 A 
ENDBRANCH   8  10
BRANCH   7  17
ATOM     16  C   UNL     1      -6.404  16.653  68.545  0.00  0.00    +0.010 C 
ATOM     17  C   UNL     1      -6.747  15.899  67.292  0.00  0.00    +0.086 C 
ENDBRANCH   7  17
ENDBRANCH   1   8
BRANCH   1  18
ATOM     18  C   UNL     1      -9.092  14.142  67.420  0.00  0.00    +0.161 C 
BRANCH  18  19
ATOM     19  O   UNL     1      -8.640  13.128  66.593  0.00  0.00    -0.349 OA
ATOM     20  C   UNL     1      -7.949  12.190  67.372  0.00  0.00    +0.174 C 
ENDBRANCH  18  19
ENDBRANCH   1  18
BRANCH   4  21
ATOM     21  C   UNL     1     -12.244  12.808  64.893  0.00  0.00    +0.099 C 
BRANCH  21  22
ATOM     22  C   UNL     1     -11.546  11.771  65.733  0.00  0.00    +0.151 C 
BRANCH  22  23
ATOM     23  N   UNL     1     -10.591  11.082  64.868  0.00  0.00    -0.180 N 
ATOM     24  C   UNL     1     -10.016   9.911  65.230  0.00  0.00    +0.366 A 
ATOM     25  O   UNL     1     -10.071   9.387  66.372  0.00  0.00    -0.243 OA
ATOM     26  N   UNL     1      -9.143   9.564  64.254  0.00  0.00    -0.182 N 
ATOM     27  N   UNL     1      -9.573  10.234  63.185  0.00  0.00    -0.042 NA
ATOM     28  N   UNL     1     -10.501  11.107  63.549  0.00  0.00    -0.042 NA
BRANCH  26  29
ATOM     29  C   UNL     1      -7.845   8.920  64.415  0.00  0.00    +0.134 C 
ATOM     30  C   UNL     1      -6.731   9.956  64.492  0.00  0.00    +0.029 C 
ENDBRANCH  26  29
ENDBRANCH  22  23
ENDBRANCH  21  22
ENDBRANCH   4  21
TORSDOF 9
ENDMDL
MODEL 3
REMARK VINA RESULT:      -6.4      3.873      5.146
REMARK  Name = 
REMARK  9 active torsions:
REMARK  status: ('A' for Active; 'I' for Inactive)
REMARK    1  A    between atoms: C_2  and  C_3
REMARK    2  A    between atoms: N_5  and  C_6
REMARK    3  A    between atoms: N_5  and  C_12
REMARK    4  A    between atoms: C_12  and  C_13
REMARK    5  A    between atoms: C_13  and  O_14
REMARK    6  A    between atoms: N_18  and  C_19
REMARK    7  A    between atoms: C_19  and  C_20
REMARK    8  A    between atoms: C_20  and  N_21
REMARK    9  A    between atoms: N_24  and  C_25
REMARK                            x       y       z     vdW  Elec       q    Type
REMARK                         _______ _______ _______ _____ _____    ______ ____
ROOT
ATOM      1  C   UNL     1     -10.610  14.480  66.529  0.00  0.00    +0.094 C 
ATOM      2  C   UNL     1     -10.402  14.606  65.024  0.00  0.00    +0.038 C 
ATOM      3  C   UNL     1     -11.736  14.997  64.402  0.00  0.00    +0.074 C 
ATOM      4  N   UNL     1     -12.561  13.793  64.367  0.00  0.00    -0.271 NA
ATOM      5  C   UNL     1     -12.516  13.224  65.696  0.00  0.00    +0.074 C 
ATOM      6  C   UNL     1     -12.102  14.265  66.731  0.00  0.00    +0.038 C 
ENDROOT
BRANCH   1   8
ATOM      7  C   UNL     1     -10.315  15.816  68.646  0.00  0.00    +0.229 C 
ATOM      8  N   UNL     1     -10.139  15.636  67.245  0.00  0.00    -0.259 N 
ATOM      9  O   UNL     1      -9.291  16.121  69.324  0.00  0.00    -0.275 OA
BRANCH   8  10
ATOM     10  C   UNL     1      -9.592  16.755  66.535  0.00  0.00    +0.054 A 
ATOM     11  C   UNL     1     -10.258  17.941  66.377  0.00  0.00    +0.015 A 
ATOM     12  C   UNL     1      -9.523  19.119  66.342  0.00  0.00    +0.001 A 
ATOM     13  C   UNL     1      -8.138  19.121  66.416  0.00  0.00    +0.000 A 
ATOM     14  C   UNL     1      -7.475  17.904  66.314  0.00  0.00    +0.001 A 
ATOM     15  C   UNL     1      -8.242  16.748  66.226  0.00  0.00    +0.015 A 
ENDBRANCH   8  10
BRANCH   7  17
ATOM     16  C   UNL     1     -11.534  15.950  70.814  0.00  0.00    +0.010 C 
ATOM     17  C   UNL     1     -11.625  15.883  69.316  0.00  0.00    +0.086 C 
ENDBRANCH   7  17
ENDBRANCH   1   8
BRANCH   1  18
ATOM     18  C   UNL     1      -9.890  13.245  67.042  0.00  0.00    +0.161 C 
BRANCH  18  19
ATOM     19  O   UNL     1      -8.518  13.332  66.886  0.00  0.00    -0.349 OA
ATOM     20  C   UNL     1      -7.906  12.905  68.073  0.00  0.00    +0.174 C 
ENDBRANCH  18  19
ENDBRANCH   1  18
BRANCH   4  21
ATOM     21  C   UNL     1     -11.998  12.930  63.360  0.00  0.00    +0.099 C 
BRANCH  21  22
ATOM     22  C   UNL     1     -11.851  11.502  63.813  0.00  0.00    +0.151 C 
BRANCH  22  23
ATOM     23  N   UNL     1     -10.429  11.170  63.752  0.00  0.00    -0.180 N 
ATOM     24  C   UNL     1      -9.842  10.371  64.674  0.00  0.00    +0.366 A 
ATOM     25  O   UNL     1     -10.363   9.988  65.754  0.00  0.00    -0.243 OA
ATOM     26  N   UNL     1      -8.522  10.307  64.380  0.00  0.00    -0.182 N 
ATOM     27  N   UNL     1      -8.463  10.636  63.089  0.00  0.00    -0.042 NA
ATOM     28  N   UNL     1      -9.641  11.095  62.693  0.00  0.00    -0.042 NA
BRANCH  26  29
ATOM     29  C   UNL     1      -7.407  10.257  65.317  0.00  0.00    +0.134 C 
ATOM     30  C   UNL     1      -6.099   9.970  64.590  0.00  0.00    +0.029 C 
ENDBRANCH  26  29
ENDBRANCH  22  23
ENDBRANCH  21  22
ENDBRANCH   4  21
TORSDOF 9
ENDMDL
MODEL 4
REMARK VINA RESULT:      -6.3      2.899      8.492
REMARK  Name = 
REMARK  9 active torsions:
REMARK  status: ('A' for Active; 'I' for Inactive)
REMARK    1  A    between atoms: C_2  and  C_3
REMARK    2  A    between atoms: N_5  and  C_6
REMARK    3  A    between atoms: N_5  and  C_12
REMARK    4  A    between atoms: C_12  and  C_13
REMARK    5  A    between atoms: C_13  and  O_14
REMARK    6  A    between atoms: N_18  and  C_19
REMARK    7  A    between atoms: C_19  and  C_20
REMARK    8  A    between atoms: C_20  and  N_21
REMARK    9  A    between atoms: N_24  and  C_25
REMARK                            x       y       z     vdW  Elec       q    Type
REMARK                         _______ _______ _______ _____ _____    ______ ____
ROOT
ATOM      1  C   UNL     1     -10.439  14.630  67.848  0.00  0.00    +0.094 C 
ATOM      2  C   UNL     1     -10.852  15.864  67.055  0.00  0.00    +0.038 C 
ATOM      3  C   UNL     1      -9.641  16.331  66.257  0.00  0.00    +0.074 C 
ATOM      4  N   UNL     1      -8.750  17.012  67.192  0.00  0.00    -0.271 NA
ATOM      5  C   UNL     1      -8.581  16.123  68.321  0.00  0.00    +0.074 C 
ATOM      6  C   UNL     1      -8.922  14.684  67.950  0.00  0.00    +0.038 C 
ENDROOT
BRANCH   1   8
ATOM      7  C   UNL     1     -10.973  12.168  67.925  0.00  0.00    +0.229 C 
ATOM      8  N   UNL     1     -10.886  13.409  67.233  0.00  0.00    -0.259 N 
ATOM      9  O   UNL     1     -12.062  11.530  67.839  0.00  0.00    -0.275 OA
BRANCH   8  10
ATOM     10  C   UNL     1     -11.127  13.355  65.822  0.00  0.00    +0.054 A 
ATOM     11  C   UNL     1     -10.163  13.025  64.908  0.00  0.00    +0.015 A 
ATOM     12  C   UNL     1     -10.536  12.334  63.763  0.00  0.00    +0.001 A 
ATOM     13  C   UNL     1     -11.860  12.012  63.500  0.00  0.00    +0.000 A 
ATOM     14  C   UNL     1     -12.843  12.578  64.302  0.00  0.00    +0.001 A 
ATOM     15  C   UNL     1     -12.438  13.368  65.372  0.00  0.00    +0.015 A 
ENDBRANCH   8  10
BRANCH   7  17
ATOM     16  C   UNL     1      -8.972  10.727  67.570  0.00  0.00    +0.010 C 
ATOM     17  C   UNL     1      -9.826  11.484  68.547  0.00  0.00    +0.086 C 
ENDBRANCH   7  17
ENDBRANCH   1   8
BRANCH   1  18
ATOM     18  C   UNL     1     -11.000  14.717  69.257  0.00  0.00    +0.161 C 
BRANCH  18  19
ATOM     19  O   UNL     1     -11.910  15.750  69.399  0.00  0.00    -0.349 OA
ATOM     20  C   UNL     1     -12.616  15.562  70.595  0.00  0.00    +0.174 C 
ENDBRANCH  18  19
ENDBRANCH   1  18
BRANCH   4  21
ATOM     21  C   UNL     1      -9.382  18.258  67.540  0.00  0.00    +0.099 C 
BRANCH  21  22
ATOM     22  C   UNL     1      -9.243  19.315  66.478  0.00  0.00    +0.151 C 
BRANCH  22  23
ATOM     23  N   UNL     1      -7.959  19.980  66.692  0.00  0.00    -0.180 N 
ATOM     24  C   UNL     1      -6.897  19.762  65.881  0.00  0.00    +0.366 A 
ATOM     25  O   UNL     1      -6.815  18.865  65.003  0.00  0.00    -0.243 OA
ATOM     26  N   UNL     1      -5.853  20.469  66.373  0.00  0.00    -0.182 N 
ATOM     27  N   UNL     1      -6.426  21.415  67.118  0.00  0.00    -0.042 NA
ATOM     28  N   UNL     1      -7.718  21.154  67.252  0.00  0.00    -0.042 NA
BRANCH  26  29
ATOM     29  C   UNL     1      -4.449  20.076  66.394  0.00  0.00    +0.134 C 
ATOM     30  C   UNL     1      -3.632  20.930  65.432  0.00  0.00    +0.029 C 
ENDBRANCH  26  29
ENDBRANCH  22  23
ENDBRANCH  21  22
ENDBRANCH   4  21
TORSDOF 9
ENDMDL
MODEL 5
REMARK VINA RESULT:      -6.3      3.760      5.615
REMARK  Name = 
REMARK  9 active torsions:
REMARK  status: ('A' for Active; 'I' for Inactive)
REMARK    1  A    between atoms: C_2  and  C_3
REMARK    2  A    between atoms: N_5  and  C_6
REMARK    3  A    between atoms: N_5  and  C_12
REMARK    4  A    between atoms: C_12  and  C_13
REMARK    5  A    between atoms: C_13  and  O_14
REMARK    6  A    between atoms: N_18  and  C_19
REMARK    7  A    between atoms: C_19  and  C_20
REMARK    8  A    between atoms: C_20  and  N_21
REMARK    9  A    between atoms: N_24  and  C_25
REMARK                            x       y       z     vdW  Elec       q    Type
REMARK                         _______ _______ _______ _____ _____    ______ ____
ROOT
ATOM      1  C   UNL     1      -7.700  18.677  67.099  0.00  0.00    +0.094 C 
ATOM      2  C   UNL     1      -8.557  18.111  68.226  0.00  0.00    +0.038 C 
ATOM      3  C   UNL     1      -8.126  16.668  68.457  0.00  0.00    +0.074 C 
ATOM      4  N   UNL     1      -8.703  15.871  67.378  0.00  0.00    -0.271 NA
ATOM      5  C   UNL     1      -8.364  16.545  66.143  0.00  0.00    +0.074 C 
ATOM      6  C   UNL     1      -7.172  17.477  66.329  0.00  0.00    +0.038 C 
ENDROOT
BRANCH   1   8
ATOM      7  C   UNL     1      -6.047  20.561  66.833  0.00  0.00    +0.229 C 
ATOM      8  N   UNL     1      -6.631  19.506  67.589  0.00  0.00    -0.259 N 
ATOM      9  O   UNL     1      -5.946  21.690  67.395  0.00  0.00    -0.275 OA
BRANCH   8  10
ATOM     10  C   UNL     1      -5.989  19.200  68.833  0.00  0.00    +0.054 A 
ATOM     11  C   UNL     1      -4.851  18.444  68.924  0.00  0.00    +0.015 A 
ATOM     12  C   UNL     1      -3.933  18.737  69.924  0.00  0.00    +0.001 A 
ATOM     13  C   UNL     1      -4.159  19.739  70.856  0.00  0.00    +0.000 A 
ATOM     14  C   UNL     1      -5.424  20.313  70.905  0.00  0.00    +0.001 A 
ATOM     15  C   UNL     1      -6.363  19.908  69.964  0.00  0.00    +0.015 A 
ENDBRANCH   8  10
BRANCH   7  17
ATOM     16  C   UNL     1      -4.042  19.680  65.646  0.00  0.00    +0.010 C 
ATOM     17  C   UNL     1      -5.368  20.377  65.538  0.00  0.00    +0.086 C 
ENDBRANCH   7  17
ENDBRANCH   1   8
BRANCH   1  18
ATOM     18  C   UNL     1      -8.570  19.487  66.155  0.00  0.00    +0.161 C 
BRANCH  18  19
ATOM     19  O   UNL     1      -9.785  19.833  66.721  0.00  0.00    -0.349 OA
ATOM     20  C   UNL     1     -10.800  19.587  65.787  0.00  0.00    +0.174 C 
ENDBRANCH  18  19
ENDBRANCH   1  18
BRANCH   4  21
ATOM     21  C   UNL     1     -10.121  15.807  67.619  0.00  0.00    +0.099 C 
BRANCH  21  22
ATOM     22  C   UNL     1     -10.665  14.403  67.606  0.00  0.00    +0.151 C 
BRANCH  22  23
ATOM     23  N   UNL     1     -11.261  14.180  66.290  0.00  0.00    -0.180 N 
ATOM     24  C   UNL     1     -11.964  13.058  66.005  0.00  0.00    +0.366 A 
ATOM     25  O   UNL     1     -12.030  12.029  66.726  0.00  0.00    -0.243 OA
ATOM     26  N   UNL     1     -12.328  13.122  64.703  0.00  0.00    -0.182 N 
ATOM     27  N   UNL     1     -12.268  14.423  64.415  0.00  0.00    -0.042 NA
ATOM     28  N   UNL     1     -11.683  15.073  65.410  0.00  0.00    -0.042 NA
BRANCH  26  29
ATOM     29  C   UNL     1     -12.404  12.022  63.749  0.00  0.00    +0.134 C 
ATOM     30  C   UNL     1     -11.012  11.509  63.400  0.00  0.00    +0.029 C 
ENDBRANCH  26  29
ENDBRANCH  22  23
ENDBRANCH  21  22
ENDBRANCH   4  21
TORSDOF 9
ENDMDL
MODEL 6
REMARK VINA RESULT:      -6.3      2.522      4.072
REMARK  Name = 
REMARK  9 active torsions:
REMARK  status: ('A' for Active; 'I' for Inactive)
REMARK    1  A    between atoms: C_2  and  C_3
REMARK    2  A    between atoms: N_5  and  C_6
REMARK    3  A    between atoms: N_5  and  C_12
REMARK    4  A    between atoms: C_12  and  C_13
REMARK    5  A    between atoms: C_13  and  O_14
REMARK    6  A    between atoms: N_18  and  C_19
REMARK    7  A    between atoms: C_19  and  C_20
REMARK    8  A    between atoms: C_20  and  N_21
REMARK    9  A    between atoms: N_24  and  C_25
REMARK                            x       y       z     vdW  Elec       q    Type
REMARK                         _______ _______ _______ _____ _____    ______ ____
ROOT
ATOM      1  C   UNL     1     -10.412  12.376  66.477  0.00  0.00    +0.094 C 
ATOM      2  C   UNL     1     -11.353  11.267  66.934  0.00  0.00    +0.038 C 
ATOM      3  C   UNL     1     -11.398  11.293  68.457  0.00  0.00    +0.074 C 
ATOM      4  N   UNL     1     -10.159  10.682  68.932  0.00  0.00    -0.271 NA
ATOM      5  C   UNL     1      -9.080  11.334  68.222  0.00  0.00    +0.074 C 
ATOM      6  C   UNL     1      -9.518  12.685  67.668  0.00  0.00    +0.038 C 
ENDROOT
BRANCH   1   8
ATOM      7  C   UNL     1     -12.153  13.508  65.049  0.00  0.00    +0.229 C 
ATOM      8  N   UNL     1     -11.121  13.544  66.028  0.00  0.00    -0.259 N 
ATOM      9  O   UNL     1     -13.243  14.085  65.332  0.00  0.00    -0.275 OA
BRANCH   8  10
ATOM     10  C   UNL     1     -10.705  14.850  66.448  0.00  0.00    +0.054 A 
ATOM     11  C   UNL     1     -11.045  15.393  67.658  0.00  0.00    +0.015 A 
ATOM     12  C   UNL     1     -10.141  16.238  68.289  0.00  0.00    +0.001 A 
ATOM     13  C   UNL     1      -8.930  16.581  67.706  0.00  0.00    +0.000 A 
ATOM     14  C   UNL     1      -8.721  16.232  66.377  0.00  0.00    +0.001 A 
ATOM     15  C   UNL     1      -9.704  15.488  65.735  0.00  0.00    +0.015 A 
ENDBRANCH   8  10
BRANCH   7  17
ATOM     16  C   UNL     1     -12.706  11.767  63.355  0.00  0.00    +0.010 C 
ATOM     17  C   UNL     1     -11.967  13.037  63.665  0.00  0.00    +0.086 C 
ENDBRANCH   7  17
ENDBRANCH   1   8
BRANCH   1  18
ATOM     18  C   UNL     1      -9.527  11.864  65.355  0.00  0.00    +0.161 C 
BRANCH  18  19
ATOM     19  O   UNL     1      -9.829  10.561  64.997  0.00  0.00    -0.349 OA
ATOM     20  C   UNL     1      -9.283  10.308  63.731  0.00  0.00    +0.174 C 
ENDBRANCH  18  19
ENDBRANCH   1  18
BRANCH   4  21
ATOM     21  C   UNL     1     -10.254   9.273  68.649  0.00  0.00    +0.099 C 
BRANCH  21  22
ATOM     22  C   UNL     1      -9.748   8.404  69.769  0.00  0.00    +0.151 C 
BRANCH  22  23
ATOM     23  N   UNL     1     -10.837   8.257  70.732  0.00  0.00    -0.180 N 
ATOM     24  C   UNL     1     -11.634   7.163  70.749  0.00  0.00    +0.366 A 
ATOM     25  O   UNL     1     -11.671   6.267  69.866  0.00  0.00    -0.243 OA
ATOM     26  N   UNL     1     -12.574   7.354  71.705  0.00  0.00    -0.182 N 
ATOM     27  N   UNL     1     -12.032   8.268  72.510  0.00  0.00    -0.042 NA
ATOM     28  N   UNL     1     -10.940   8.765  71.950  0.00  0.00    -0.042 NA
BRANCH  26  29
ATOM     29  C   UNL     1     -13.973   6.949  71.665  0.00  0.00    +0.134 C 
ATOM     30  C   UNL     1     -14.892   8.165  71.668  0.00  0.00    +0.029 C 
ENDBRANCH  26  29
ENDBRANCH  22  23
ENDBRANCH  21  22
ENDBRANCH   4  21
TORSDOF 9
ENDMDL
MODEL 7
REMARK VINA RESULT:      -6.3      3.438      8.235
REMARK  Name = 
REMARK  9 active torsions:
REMARK  status: ('A' for Active; 'I' for Inactive)
REMARK    1  A    between atoms: C_2  and  C_3
REMARK    2  A    between atoms: N_5  and  C_6
REMARK    3  A    between atoms: N_5  and  C_12
REMARK    4  A    between atoms: C_12  and  C_13
REMARK    5  A    between atoms: C_13  and  O_14
REMARK    6  A    between atoms: N_18  and  C_19
REMARK    7  A    between atoms: C_19  and  C_20
REMARK    8  A    between atoms: C_20  and  N_21
REMARK    9  A    between atoms: N_24  and  C_25
REMARK                            x       y       z     vdW  Elec       q    Type
REMARK                         _______ _______ _______ _____ _____    ______ ____
ROOT
ATOM      1  C   UNL     1     -10.061  16.131  68.278  0.00  0.00    +0.094 C 
ATOM      2  C   UNL     1     -10.278  17.639  68.261  0.00  0.00    +0.038 C 
ATOM      3  C   UNL     1     -10.587  18.048  66.826  0.00  0.00    +0.074 C 
ATOM      4  N   UNL     1      -9.321  18.042  66.097  0.00  0.00    -0.271 NA
ATOM      5  C   UNL     1      -8.694  16.768  66.374  0.00  0.00    +0.074 C 
ATOM      6  C   UNL     1      -9.713  15.739  66.850  0.00  0.00    +0.038 C 
ENDROOT
BRANCH   1   8
ATOM      7  C   UNL     1     -11.854  15.702  69.997  0.00  0.00    +0.229 C 
ATOM      8  N   UNL     1     -11.216  15.418  68.757  0.00  0.00    -0.259 N 
ATOM      9  O   UNL     1     -13.108  15.869  69.979  0.00  0.00    -0.275 OA
BRANCH   8  10
ATOM     10  C   UNL     1     -11.694  14.261  68.059  0.00  0.00    +0.054 A 
ATOM     11  C   UNL     1     -12.234  14.314  66.802  0.00  0.00    +0.015 A 
ATOM     12  C   UNL     1     -12.032  13.241  65.944  0.00  0.00    +0.001 A 
ATOM     13  C   UNL     1     -11.343  12.104  66.341  0.00  0.00    +0.000 A 
ATOM     14  C   UNL     1     -11.034  11.964  67.688  0.00  0.00    +0.001 A 
ATOM     15  C   UNL     1     -11.360  13.008  68.546  0.00  0.00    +0.015 A 
ENDBRANCH   8  10
BRANCH   7  17
ATOM     16  C   UNL     1     -12.073  16.010  72.459  0.00  0.00    +0.010 C 
ATOM     17  C   UNL     1     -11.195  15.602  71.311  0.00  0.00    +0.086 C 
ENDBRANCH   7  17
ENDBRANCH   1   8
BRANCH   1  18
ATOM     18  C   UNL     1      -8.867  15.796  69.154  0.00  0.00    +0.161 C 
BRANCH  18  19
ATOM     19  O   UNL     1      -8.319  14.562  68.850  0.00  0.00    -0.349 OA
ATOM     20  C   UNL     1      -7.019  14.510  69.371  0.00  0.00    +0.174 C 
ENDBRANCH  18  19
ENDBRANCH   1  18
BRANCH   4  21
ATOM     21  C   UNL     1      -8.558  19.166  66.576  0.00  0.00    +0.099 C 
BRANCH  21  22
ATOM     22  C   UNL     1      -7.072  18.931  66.555  0.00  0.00    +0.151 C 
BRANCH  22  23
ATOM     23  N   UNL     1      -6.565  19.229  67.893  0.00  0.00    -0.180 N 
ATOM     24  C   UNL     1      -6.230  20.487  68.266  0.00  0.00    +0.366 A 
ATOM     25  O   UNL     1      -6.128  21.479  67.498  0.00  0.00    -0.243 OA
ATOM     26  N   UNL     1      -5.743  20.424  69.528  0.00  0.00    -0.182 N 
ATOM     27  N   UNL     1      -6.244  19.287  70.010  0.00  0.00    -0.042 NA
ATOM     28  N   UNL     1      -6.804  18.595  69.029  0.00  0.00    -0.042 NA
BRANCH  26  29
ATOM     29  C   UNL     1      -4.650  21.204  70.095  0.00  0.00    +0.134 C 
ATOM     30  C   UNL     1      -4.454  20.872  71.569  0.00  0.00    +0.029 C 
ENDBRANCH  26  29
ENDBRANCH  22  23
ENDBRANCH  21  22
ENDBRANCH   4  21
TORSDOF 9
ENDMDL
MODEL 8
REMARK VINA RESULT:      -6.3      2.586      8.170
REMARK  Name = 
REMARK  9 active torsions:
REMARK  status: ('A' for Active; 'I' for Inactive)
REMARK    1  A    between atoms: C_2  and  C_3
REMARK    2  A    between atoms: N_5  and  C_6
REMARK    3  A    between atoms: N_5  and  C_12
REMARK    4  A    between atoms: C_12  and  C_13
REMARK    5  A    between atoms: C_13  and  O_14
REMARK    6  A    between atoms: N_18  and  C_19
REMARK    7  A    between atoms: C_19  and  C_20
REMARK    8  A    between atoms: C_20  and  N_21
REMARK    9  A    between atoms: N_24  and  C_25
REMARK                            x       y       z     vdW  Elec       q    Type
REMARK                         _______ _______ _______ _____ _____    ______ ____
ROOT
ATOM      1  C   UNL     1     -10.102  13.610  67.292  0.00  0.00    +0.094 C 
ATOM      2  C   UNL     1     -10.400  14.351  68.589  0.00  0.00    +0.038 C 
ATOM      3  C   UNL     1     -11.370  15.481  68.267  0.00  0.00    +0.074 C 
ATOM      4  N   UNL     1     -10.593  16.543  67.631  0.00  0.00    -0.271 NA
ATOM      5  C   UNL     1      -9.827  15.916  66.576  0.00  0.00    +0.074 C 
ATOM      6  C   UNL     1     -10.435  14.579  66.168  0.00  0.00    +0.038 C 
ENDROOT
BRANCH   1   8
ATOM      7  C   UNL     1     -11.099  11.513  68.272  0.00  0.00    +0.229 C 
ATOM      8  N   UNL     1     -10.849  12.386  67.176  0.00  0.00    -0.259 N 
ATOM      9  O   UNL     1     -12.295  11.147  68.462  0.00  0.00    -0.275 OA
BRANCH   8  10
ATOM     10  C   UNL     1     -11.256  11.904  65.889  0.00  0.00    +0.054 A 
ATOM     11  C   UNL     1     -12.269  12.470  65.162  0.00  0.00    +0.015 A 
ATOM     12  C   UNL     1     -12.175  12.472  63.777  0.00  0.00    +0.001 A 
ATOM     13  C   UNL     1     -11.111  11.879  63.113  0.00  0.00    +0.000 A 
ATOM     14  C   UNL     1     -10.237  11.091  63.851  0.00  0.00    +0.001 A 
ATOM     15  C   UNL     1     -10.431  11.010  65.225  0.00  0.00    +0.015 A 
ENDBRANCH   8  10
BRANCH   7  17
ATOM     16  C   UNL     1     -10.576   9.974  70.159  0.00  0.00    +0.010 C 
ATOM     17  C   UNL     1     -10.046  10.846  69.057  0.00  0.00    +0.086 C 
ENDBRANCH   7  17
ENDBRANCH   1   8
BRANCH   1  18
ATOM     18  C   UNL     1      -8.617  13.301  67.211  0.00  0.00    +0.161 C 
BRANCH  18  19
ATOM     19  O   UNL     1      -7.942  13.649  68.367  0.00  0.00    -0.349 OA
ATOM     20  C   UNL     1      -6.664  14.107  68.018  0.00  0.00    +0.174 C 
ENDBRANCH  18  19
ENDBRANCH   1  18
BRANCH   4  21
ATOM     21  C   UNL     1      -9.772  17.131  68.657  0.00  0.00    +0.099 C 
BRANCH  21  22
ATOM     22  C   UNL     1      -9.866  18.632  68.710  0.00  0.00    +0.151 C 
BRANCH  22  23
ATOM     23  N   UNL     1      -8.652  19.166  68.096  0.00  0.00    -0.180 N 
ATOM     24  C   UNL     1      -8.660  19.719  66.860  0.00  0.00    +0.366 A 
ATOM     25  O   UNL     1      -9.613  19.673  66.040  0.00  0.00    -0.243 OA
ATOM     26  N   UNL     1      -7.385  20.059  66.555  0.00  0.00    -0.182 N 
ATOM     27  N   UNL     1      -6.785  20.154  67.742  0.00  0.00    -0.042 NA
ATOM     28  N   UNL     1      -7.583  19.676  68.685  0.00  0.00    -0.042 NA
BRANCH  26  29
ATOM     29  C   UNL     1      -6.734  19.977  65.254  0.00  0.00    +0.134 C 
ATOM     30  C   UNL     1      -6.057  18.624  65.069  0.00  0.00    +0.029 C 
ENDBRANCH  26  29
ENDBRANCH  22  23
ENDBRANCH  21  22
ENDBRANCH   4  21
TORSDOF 9
ENDMDL
MODEL 9
REMARK VINA RESULT:      -6.3      3.607      8.241
REMARK  Name = 
REMARK  9 active torsions:
REMARK  status: ('A' for Active; 'I' for Inactive)
REMARK    1  A    between atoms: C_2  and  C_3
REMARK    2  A    between atoms: N_5  and  C_6
REMARK    3  A    between atoms: N_5  and  C_12
REMARK    4  A    between atoms: C_12  and  C_13
REMARK    5  A    between atoms: C_13  and  O_14
REMARK    6  A    between atoms: N_18  and  C_19
REMARK    7  A    between atoms: C_19  and  C_20
REMARK    8  A    between atoms: C_20  and  N_21
REMARK    9  A    between atoms: N_24  and  C_25
REMARK                            x       y       z     vdW  Elec       q    Type
REMARK                         _______ _______ _______ _____ _____    ______ ____
ROOT
ATOM      1  C   UNL     1      -9.640  15.915  66.754  0.00  0.00    +0.094 C 
ATOM      2  C   UNL     1      -9.597  16.469  68.173  0.00  0.00    +0.038 C 
ATOM      3  C   UNL     1     -10.834  17.337  68.371  0.00  0.00    +0.074 C 
ATOM      4  N   UNL     1     -10.586  18.599  67.679  0.00  0.00    -0.271 NA
ATOM      5  C   UNL     1     -10.141  18.257  66.346  0.00  0.00    +0.074 C 
ATOM      6  C   UNL     1     -10.556  16.839  65.968  0.00  0.00    +0.038 C 
ENDROOT
BRANCH   1   8
ATOM      7  C   UNL     1      -9.820  13.599  67.733  0.00  0.00    +0.229 C 
ATOM      8  N   UNL     1     -10.099  14.552  66.713  0.00  0.00    -0.259 N 
ATOM      9  O   UNL     1     -10.798  12.946  68.200  0.00  0.00    -0.275 OA
BRANCH   8  10
ATOM     10  C   UNL     1     -10.747  14.040  65.541  0.00  0.00    +0.054 A 
ATOM     11  C   UNL     1     -10.078  13.393  64.537  0.00  0.00    +0.015 A 
ATOM     12  C   UNL     1     -10.728  12.375  63.851  0.00  0.00    +0.001 A 
ATOM     13  C   UNL     1     -12.043  12.030  64.125  0.00  0.00    +0.000 A 
ATOM     14  C   UNL     1     -12.779  12.864  64.958  0.00  0.00    +0.001 A 
ATOM     15  C   UNL     1     -12.129  13.950  65.534  0.00  0.00    +0.015 A 
ENDBRANCH   8  10
BRANCH   7  17
ATOM     16  C   UNL     1      -7.846  12.184  67.177  0.00  0.00    +0.010 C 
ATOM     17  C   UNL     1      -8.464  13.174  68.123  0.00  0.00    +0.086 C 
ENDBRANCH   7  17
ENDBRANCH   1   8
BRANCH   1  18
ATOM     18  C   UNL     1      -8.257  15.996  66.133  0.00  0.00    +0.161 C 
BRANCH  18  19
ATOM     19  O   UNL     1      -7.289  16.377  67.046  0.00  0.00    -0.349 OA
ATOM     20  C   UNL     1      -6.358  17.198  66.395  0.00  0.00    +0.174 C 
ENDBRANCH  18  19
ENDBRANCH   1  18
BRANCH   4  21
ATOM     21  C   UNL     1      -9.594  19.307  68.445  0.00  0.00    +0.099 C 
BRANCH  21  22
ATOM     22  C   UNL     1      -8.622  20.079  67.594  0.00  0.00    +0.151 C 
BRANCH  22  23
ATOM     23  N   UNL     1      -7.319  20.013  68.253  0.00  0.00    -0.180 N 
ATOM     24  C   UNL     1      -6.327  20.888  67.964  0.00  0.00    +0.366 A 
ATOM     25  O   UNL     1      -6.323  21.705  67.007  0.00  0.00    -0.243 OA
ATOM     26  N   UNL     1      -5.240  20.529  68.687  0.00  0.00    -0.182 N 
ATOM     27  N   UNL     1      -5.743  19.810  69.690  0.00  0.00    -0.042 NA
ATOM     28  N   UNL     1      -7.023  19.557  69.459  0.00  0.00    -0.042 NA
BRANCH  26  29
ATOM     29  C   UNL     1      -3.843  20.591  68.276  0.00  0.00    +0.134 C 
ATOM     30  C   UNL     1      -3.495  19.427  67.356  0.00  0.00    +0.029 C 
ENDBRANCH  26  29
ENDBRANCH  22  23
ENDBRANCH  21  22
ENDBRANCH   4  21
TORSDOF 9
ENDMDL
