MODEL 1
REMARK VINA RESULT:      -6.6      0.000      0.000
REMARK  Name = 
REMARK  6 active torsions:
REMARK  status: ('A' for Active; 'I' for Inactive)
REMARK    1  A    between atoms: N_2  and  C_4
REMARK    2  A    between atoms: C_4  and  C_5
REMARK    3  A    between atoms: C_5  and  C_6
REMARK    4  A    between atoms: C_6  and  C_7
REMARK    5  A    between atoms: C_7  and  C_8
REMARK    6  A    between atoms: C_19  and  C_20
REMARK                            x       y       z     vdW  Elec       q    Type
REMARK                         _______ _______ _______ _____ _____    ______ ____
ROOT
ATOM      1  C   UNL     1     -10.556  15.844  68.924  0.00  0.00    +0.130 C 
ATOM      2  C   UNL     1     -10.022  17.137  68.424  0.00  0.00    +0.004 A 
ATOM      3  C   UNL     1      -8.675  16.884  68.192  0.00  0.00    +0.006 A 
ATOM      4  C   UNL     1      -7.875  17.832  67.578  0.00  0.00    +0.008 A 
ATOM      5  C   UNL     1      -8.364  19.103  67.420  0.00  0.00    +0.068 A 
ATOM      6  C   UNL     1      -9.743  19.267  67.424  0.00  0.00    +0.010 A 
ATOM      7  C   UNL     1      -8.422  15.567  68.856  0.00  0.00    +0.169 C 
ATOM      8  C   UNL     1     -10.561  18.171  67.667  0.00  0.00    -0.001 A 
ATOM      9  O   UNL     1      -9.513  15.400  69.723  0.00  0.00    -0.346 OA
ENDROOT
BRANCH   1  10
ATOM     10  C   UNL     1     -10.720  14.924  67.784  0.00  0.00    +0.006 A 
ATOM     11  C   UNL     1     -10.859  15.391  66.501  0.00  0.00    +0.001 A 
ATOM     12  C   UNL     1     -11.435  14.602  65.521  0.00  0.00    +0.029 A 
ATOM     13  C   UNL     1     -11.971  13.379  65.898  0.00  0.00    +0.140 A 
ATOM     14  F   UNL     1     -12.994  12.807  65.218  0.00  0.00    -0.204 F 
ATOM     15  C   UNL     1     -11.402  12.787  67.009  0.00  0.00    +0.029 A 
ATOM     16  C   UNL     1     -10.772  13.557  67.978  0.00  0.00    +0.001 A 
ENDBRANCH   1  10
BRANCH   5  17
ATOM     17  C   UNL     1      -7.529  20.279  67.458  0.00  0.00    +0.100 C 
ATOM     18  N   UNL     1      -6.910  21.241  67.362  0.00  0.00    -0.191 NA
ENDBRANCH   5  17
BRANCH   1  19
ATOM     19  C   UNL     1     -11.858  15.983  69.654  0.00  0.00    +0.037 C 
BRANCH  19  20
ATOM     20  C   UNL     1     -11.650  15.922  71.153  0.00  0.00    +0.020 C 
BRANCH  20  21
ATOM     21  C   UNL     1     -12.428  14.718  71.654  0.00  0.00    +0.072 C 
BRANCH  21  23
ATOM     22  C   UNL     1     -13.911  15.656  72.670  0.00  0.00    +0.090 C 
ATOM     23  N   UNL     1     -13.253  15.035  72.798  0.00  0.00    -0.270 NA
ATOM     24  C   UNL     1     -12.372  15.308  73.931  0.00  0.00    +0.090 C 
ENDBRANCH  21  23
ENDBRANCH  20  21
ENDBRANCH  19  20
ENDBRANCH   1  19
TORSDOF 6
ENDMDL
MODEL 2
REMARK VINA RESULT:      -6.4      3.166      5.227
REMARK  Name = 
REMARK  6 active torsions:
REMARK  status: ('A' for Active; 'I' for Inactive)
REMARK    1  A    between atoms: N_2  and  C_4
REMARK    2  A    between atoms: C_4  and  C_5
REMARK    3  A    between atoms: C_5  and  C_6
REMARK    4  A    between atoms: C_6  and  C_7
REMARK    5  A    between atoms: C_7  and  C_8
REMARK    6  A    between atoms: C_19  and  C_20
REMARK                            x       y       z     vdW  Elec       q    Type
REMARK                         _______ _______ _______ _____ _____    ______ ____
ROOT
ATOM      1  C   UNL     1     -10.294  16.555  68.549  0.00  0.00    +0.130 C 
ATOM      2  C   UNL     1     -10.633  15.478  67.584  0.00  0.00    +0.004 A 
ATOM      3  C   UNL     1     -10.553  16.096  66.341  0.00  0.00    +0.006 A 
ATOM      4  C   UNL     1     -10.668  15.356  65.176  0.00  0.00    +0.008 A 
ATOM      5  C   UNL     1     -11.097  14.056  65.263  0.00  0.00    +0.068 A 
ATOM      6  C   UNL     1     -10.935  13.404  66.477  0.00  0.00    +0.010 A 
ATOM      7  C   UNL     1     -10.482  17.557  66.653  0.00  0.00    +0.169 C 
ATOM      8  C   UNL     1     -10.429  14.103  67.566  0.00  0.00    -0.001 A 
ATOM      9  O   UNL     1     -10.926  17.651  67.982  0.00  0.00    -0.346 OA
ENDROOT
BRANCH   1  10
ATOM     10  C   UNL     1      -8.836  16.770  68.529  0.00  0.00    +0.006 A 
ATOM     11  C   UNL     1      -7.955  15.720  68.595  0.00  0.00    +0.001 A 
ATOM     12  C   UNL     1      -6.650  15.917  69.009  0.00  0.00    +0.029 A 
ATOM     13  C   UNL     1      -6.293  17.179  69.465  0.00  0.00    +0.140 A 
ATOM     14  F   UNL     1      -5.299  17.357  70.368  0.00  0.00    -0.204 F 
ATOM     15  C   UNL     1      -7.016  18.235  68.945  0.00  0.00    +0.029 A 
ATOM     16  C   UNL     1      -8.309  18.046  68.475  0.00  0.00    +0.001 A 
ENDBRANCH   1  10
BRANCH   5  17
ATOM     17  C   UNL     1     -11.883  13.417  64.235  0.00  0.00    +0.100 C 
ATOM     18  N   UNL     1     -12.455  13.000  63.332  0.00  0.00    -0.191 NA
ENDBRANCH   5  17
BRANCH   1  19
ATOM     19  C   UNL     1     -10.743  16.258  69.949  0.00  0.00    +0.037 C 
BRANCH  19  20
ATOM     20  C   UNL     1     -12.203  15.858  69.979  0.00  0.00    +0.020 C 
BRANCH  20  21
ATOM     21  C   UNL     1     -12.445  15.186  71.318  0.00  0.00    +0.072 C 
BRANCH  21  23
ATOM     22  C   UNL     1     -13.540  15.820  72.902  0.00  0.00    +0.090 C 
ATOM     23  N   UNL     1     -13.605  15.719  71.997  0.00  0.00    -0.270 NA
ATOM     24  C   UNL     1     -14.777  14.968  71.553  0.00  0.00    +0.090 C 
ENDBRANCH  21  23
ENDBRANCH  20  21
ENDBRANCH  19  20
ENDBRANCH   1  19
TORSDOF 6
ENDMDL
MODEL 3
REMARK VINA RESULT:      -6.2      1.419      1.912
REMARK  Name = 
REMARK  6 active torsions:
REMARK  status: ('A' for Active; 'I' for Inactive)
REMARK    1  A    between atoms: N_2  and  C_4
REMARK    2  A    between atoms: C_4  and  C_5
REMARK    3  A    between atoms: C_5  and  C_6
REMARK    4  A    between atoms: C_6  and  C_7
REMARK    5  A    between atoms: C_7  and  C_8
REMARK    6  A    between atoms: C_19  and  C_20
REMARK                            x       y       z     vdW  Elec       q    Type
REMARK                         _______ _______ _______ _____ _____    ______ ____
ROOT
ATOM      1  C   UNL     1     -10.683  13.962  67.981  0.00  0.00    +0.130 C 
ATOM      2  C   UNL     1     -10.239  15.375  68.102  0.00  0.00    +0.004 A 
ATOM      3  C   UNL     1      -8.895  15.342  67.748  0.00  0.00    +0.006 A 
ATOM      4  C   UNL     1      -8.174  16.515  67.606  0.00  0.00    +0.008 A 
ATOM      5  C   UNL     1      -8.732  17.688  68.049  0.00  0.00    +0.068 A 
ATOM      6  C   UNL     1     -10.115  17.740  68.160  0.00  0.00    +0.010 A 
ATOM      7  C   UNL     1      -8.544  13.887  67.743  0.00  0.00    +0.169 C 
ATOM      8  C   UNL     1     -10.865  16.599  67.905  0.00  0.00    -0.001 A 
ATOM      9  O   UNL     1      -9.580  13.278  68.469  0.00  0.00    -0.346 OA
ENDROOT
BRANCH   1  10
ATOM     10  C   UNL     1     -10.862  13.641  66.554  0.00  0.00    +0.006 A 
ATOM     11  C   UNL     1     -11.577  14.462  65.718  0.00  0.00    +0.001 A 
ATOM     12  C   UNL     1     -12.109  13.978  64.537  0.00  0.00    +0.029 A 
ATOM     13  C   UNL     1     -12.001  12.618  64.281  0.00  0.00    +0.140 A 
ATOM     14  F   UNL     1     -12.904  11.962  63.512  0.00  0.00    -0.204 F 
ATOM     15  C   UNL     1     -10.923  11.978  64.861  0.00  0.00    +0.029 A 
ATOM     16  C   UNL     1     -10.340  12.479  66.018  0.00  0.00    +0.001 A 
ENDBRANCH   1  10
BRANCH   5  17
ATOM     17  C   UNL     1      -7.954  18.775  68.591  0.00  0.00    +0.100 C 
ATOM     18  N   UNL     1      -7.225  19.566  68.990  0.00  0.00    -0.191 NA
ENDBRANCH   5  17
BRANCH   1  19
ATOM     19  C   UNL     1     -11.950  13.673  68.728  0.00  0.00    +0.037 C 
BRANCH  19  20
ATOM     20  C   UNL     1     -11.772  13.907  70.214  0.00  0.00    +0.020 C 
BRANCH  20  21
ATOM     21  C   UNL     1     -13.041  14.578  70.706  0.00  0.00    +0.072 C 
BRANCH  21  23
ATOM     22  C   UNL     1     -11.888  15.985  71.603  0.00  0.00    +0.090 C 
ATOM     23  N   UNL     1     -12.767  15.773  71.475  0.00  0.00    -0.270 NA
ATOM     24  C   UNL     1     -13.564  15.719  72.698  0.00  0.00    +0.090 C 
ENDBRANCH  21  23
ENDBRANCH  20  21
ENDBRANCH  19  20
ENDBRANCH   1  19
TORSDOF 6
ENDMDL
MODEL 4
REMARK VINA RESULT:      -6.1      2.839      5.694
REMARK  Name = 
REMARK  6 active torsions:
REMARK  status: ('A' for Active; 'I' for Inactive)
REMARK    1  A    between atoms: N_2  and  C_4
REMARK    2  A    between atoms: C_4  and  C_5
REMARK    3  A    between atoms: C_5  and  C_6
REMARK    4  A    between atoms: C_6  and  C_7
REMARK    5  A    between atoms: C_7  and  C_8
REMARK    6  A    between atoms: C_19  and  C_20
REMARK                            x       y       z     vdW  Elec       q    Type
REMARK                         _______ _______ _______ _____ _____    ______ ____
ROOT
ATOM      1  C   UNL     1     -10.079  14.030  68.226  0.00  0.00    +0.130 C 
ATOM      2  C   UNL     1     -10.880  14.255  69.456  0.00  0.00    +0.004 A 
ATOM      3  C   UNL     1     -10.852  15.634  69.634  0.00  0.00    +0.006 A 
ATOM      4  C   UNL     1     -11.622  16.234  70.616  0.00  0.00    +0.008 A 
ATOM      5  C   UNL     1     -12.221  15.439  71.559  0.00  0.00    +0.068 A 
ATOM      6  C   UNL     1     -12.440  14.108  71.234  0.00  0.00    +0.010 A 
ATOM      7  C   UNL     1      -9.791  16.112  68.693  0.00  0.00    +0.169 C 
ATOM      8  C   UNL     1     -11.978  13.616  70.019  0.00  0.00    -0.001 A 
ATOM      9  O   UNL     1      -9.059  14.956  68.380  0.00  0.00    -0.346 OA
ENDROOT
BRANCH   1  10
ATOM     10  C   UNL     1     -10.894  14.397  67.053  0.00  0.00    +0.006 A 
ATOM     11  C   UNL     1     -12.181  13.942  66.904  0.00  0.00    +0.001 A 
ATOM     12  C   UNL     1     -12.779  13.910  65.657  0.00  0.00    +0.029 A 
ATOM     13  C   UNL     1     -12.004  14.238  64.553  0.00  0.00    +0.140 A 
ATOM     14  F   UNL     1     -12.266  13.733  63.323  0.00  0.00    -0.204 F 
ATOM     15  C   UNL     1     -10.953  15.102  64.788  0.00  0.00    +0.029 A 
ATOM     16  C   UNL     1     -10.374  15.188  66.047  0.00  0.00    +0.001 A 
ENDBRANCH   1  10
BRANCH   5  17
ATOM     17  C   UNL     1     -12.440  15.862  72.921  0.00  0.00    +0.100 C 
ATOM     18  N   UNL     1     -12.746  16.165  73.985  0.00  0.00    -0.191 NA
ENDBRANCH   5  17
BRANCH   1  19
ATOM     19  C   UNL     1      -9.595  12.618  68.084  0.00  0.00    +0.037 C 
BRANCH  19  20
ATOM     20  C   UNL     1      -8.544  12.509  66.999  0.00  0.00    +0.020 C 
BRANCH  20  21
ATOM     21  C   UNL     1      -8.595  11.084  66.481  0.00  0.00    +0.072 C 
BRANCH  21  23
ATOM     22  C   UNL     1     -10.150   9.911  65.915  0.00  0.00    +0.090 C 
ATOM     23  N   UNL     1      -9.860  10.775  65.851  0.00  0.00    -0.270 NA
ATOM     24  C   UNL     1      -9.832  11.307  64.491  0.00  0.00    +0.090 C 
ENDBRANCH  21  23
ENDBRANCH  20  21
ENDBRANCH  19  20
ENDBRANCH   1  19
TORSDOF 6
ENDMDL
MODEL 5
REMARK VINA RESULT:      -6.1      3.853      6.721
REMARK  Name = 
REMARK  6 active torsions:
REMARK  status: ('A' for Active; 'I' for Inactive)
REMARK    1  A    between atoms: N_2  and  C_4
REMARK    2  A    between atoms: C_4  and  C_5
REMARK    3  A    between atoms: C_5  and  C_6
REMARK    4  A    between atoms: C_6  and  C_7
REMARK    5  A    between atoms: C_7  and  C_8
REMARK    6  A    between atoms: C_19  and  C_20
REMARK                            x       y       z     vdW  Elec       q    Type
REMARK                         _______ _______ _______ _____ _____    ______ ____
ROOT
ATOM      1  C   UNL     1     -11.283  12.814  67.425  0.00  0.00    +0.130 C 
ATOM      2  C   UNL     1     -11.766  13.760  68.463  0.00  0.00    +0.004 A 
ATOM      3  C   UNL     1     -11.948  12.965  69.590  0.00  0.00    +0.006 A 
ATOM      4  C   UNL     1     -12.261  13.535  70.812  0.00  0.00    +0.008 A 
ATOM      5  C   UNL     1     -12.625  14.858  70.847  0.00  0.00    +0.068 A 
ATOM      6  C   UNL     1     -12.210  15.667  69.798  0.00  0.00    +0.010 A 
ATOM      7  C   UNL     1     -11.864  11.562  69.077  0.00  0.00    +0.169 C 
ATOM      8  C   UNL     1     -11.526  15.102  68.728  0.00  0.00    -0.001 A 
ATOM      9  O   UNL     1     -12.046  11.688  67.690  0.00  0.00    -0.346 OA
ENDROOT
BRANCH   1  10
ATOM     10  C   UNL     1      -9.863  12.510  67.682  0.00  0.00    +0.006 A 
ATOM     11  C   UNL     1      -8.936  13.507  67.857  0.00  0.00    +0.001 A 
ATOM     12  C   UNL     1      -7.589  13.261  67.664  0.00  0.00    +0.029 A 
ATOM     13  C   UNL     1      -7.216  12.016  67.177  0.00  0.00    +0.140 A 
ATOM     14  F   UNL     1      -6.085  11.843  66.450  0.00  0.00    -0.204 F 
ATOM     15  C   UNL     1      -8.069  10.971  67.474  0.00  0.00    +0.029 A 
ATOM     16  C   UNL     1      -9.414  11.204  67.724  0.00  0.00    +0.001 A 
ENDBRANCH   1  10
BRANCH   5  17
ATOM     17  C   UNL     1     -13.573  15.389  71.795  0.00  0.00    +0.100 C 
ATOM     18  N   UNL     1     -14.288  15.936  72.507  0.00  0.00    -0.191 NA
ENDBRANCH   5  17
BRANCH   1  19
ATOM     19  C   UNL     1     -11.443  13.336  66.028  0.00  0.00    +0.037 C 
BRANCH  19  20
ATOM     20  C   UNL     1     -11.712  12.208  65.054  0.00  0.00    +0.020 C 
BRANCH  20  21
ATOM     21  C   UNL     1     -10.597  12.242  64.025  0.00  0.00    +0.072 C 
BRANCH  21  23
ATOM     22  C   UNL     1     -10.029  10.309  64.250  0.00  0.00    +0.090 C 
ATOM     23  N   UNL     1     -10.208  10.918  63.593  0.00  0.00    -0.270 NA
ATOM     24  C   UNL     1      -9.156  11.058  62.590  0.00  0.00    +0.090 C 
ENDBRANCH  21  23
ENDBRANCH  20  21
ENDBRANCH  19  20
ENDBRANCH   1  19
TORSDOF 6
ENDMDL
MODEL 6
REMARK VINA RESULT:      -6.0      2.561      3.401
REMARK  Name = 
REMARK  6 active torsions:
REMARK  status: ('A' for Active; 'I' for Inactive)
REMARK    1  A    between atoms: N_2  and  C_4
REMARK    2  A    between atoms: C_4  and  C_5
REMARK    3  A    between atoms: C_5  and  C_6
REMARK    4  A    between atoms: C_6  and  C_7
REMARK    5  A    between atoms: C_7  and  C_8
REMARK    6  A    between atoms: C_19  and  C_20
REMARK                            x       y       z     vdW  Elec       q    Type
REMARK                         _______ _______ _______ _____ _____    ______ ____
ROOT
ATOM      1  C   UNL     1     -10.962  13.313  68.389  0.00  0.00    +0.130 C 
ATOM      2  C   UNL     1     -10.577  14.746  68.453  0.00  0.00    +0.004 A 
ATOM      3  C   UNL     1      -9.437  14.829  67.662  0.00  0.00    +0.006 A 
ATOM      4  C   UNL     1      -8.870  16.058  67.368  0.00  0.00    +0.008 A 
ATOM      5  C   UNL     1      -9.302  17.163  68.056  0.00  0.00    +0.068 A 
ATOM      6  C   UNL     1     -10.563  17.108  68.634  0.00  0.00    +0.010 A 
ATOM      7  C   UNL     1      -9.034  13.406  67.434  0.00  0.00    +0.169 C 
ATOM      8  C   UNL     1     -11.296  15.930  68.567  0.00  0.00    -0.001 A 
ATOM      9  O   UNL     1      -9.725  12.687  68.423  0.00  0.00    -0.346 OA
ENDROOT
BRANCH   1  10
ATOM     10  C   UNL     1     -11.603  13.050  67.088  0.00  0.00    +0.006 A 
ATOM     11  C   UNL     1     -11.371  11.887  66.396  0.00  0.00    +0.001 A 
ATOM     12  C   UNL     1     -11.599  11.817  65.034  0.00  0.00    +0.029 A 
ATOM     13  C   UNL     1     -11.953  12.984  64.371  0.00  0.00    +0.140 A 
ATOM     14  F   UNL     1     -11.666  13.176  63.060  0.00  0.00    -0.204 F 
ATOM     15  C   UNL     1     -12.610  13.934  65.129  0.00  0.00    +0.029 A 
ATOM     16  C   UNL     1     -12.436  13.986  66.506  0.00  0.00    +0.001 A 
ENDBRANCH   1  10
BRANCH   5  17
ATOM     17  C   UNL     1      -8.443  18.276  68.379  0.00  0.00    +0.100 C 
ATOM     18  N   UNL     1      -7.874  19.231  68.663  0.00  0.00    -0.191 NA
ENDBRANCH   5  17
BRANCH   1  19
ATOM     19  C   UNL     1     -11.879  12.895  69.499  0.00  0.00    +0.037 C 
BRANCH  19  20
ATOM     20  C   UNL     1     -11.688  11.432  69.841  0.00  0.00    +0.020 C 
BRANCH  20  21
ATOM     21  C   UNL     1     -12.607  11.133  71.011  0.00  0.00    +0.072 C 
BRANCH  21  23
ATOM     22  C   UNL     1     -11.633   9.373  71.266  0.00  0.00    +0.090 C 
ATOM     23  N   UNL     1     -12.275   9.886  71.664  0.00  0.00    -0.270 NA
ATOM     24  C   UNL     1     -13.520   9.181  71.959  0.00  0.00    +0.090 C 
ENDBRANCH  21  23
ENDBRANCH  20  21
ENDBRANCH  19  20
ENDBRANCH   1  19
TORSDOF 6
ENDMDL
MODEL 7
REMARK VINA RESULT:      -6.0      3.109      6.334
REMARK  Name = 
REMARK  6 active torsions:
REMARK  status: ('A' for Active; 'I' for Inactive)
REMARK    1  A    between atoms: N_2  and  C_4
REMARK    2  A    between atoms: C_4  and  C_5
REMARK    3  A    between atoms: C_5  and  C_6
REMARK    4  A    between atoms: C_6  and  C_7
REMARK    5  A    between atoms: C_7  and  C_8
REMARK    6  A    between atoms: C_19  and  C_20
REMARK                            x       y       z     vdW  Elec       q    Type
REMARK                         _______ _______ _______ _____ _____    ______ ____
ROOT
ATOM      1  C   UNL     1     -10.037  13.787  67.098  0.00  0.00    +0.130 C 
ATOM      2  C   UNL     1     -10.022  12.578  67.962  0.00  0.00    +0.004 A 
ATOM      3  C   UNL     1     -11.362  12.353  68.257  0.00  0.00    +0.006 A 
ATOM      4  C   UNL     1     -11.752  11.210  68.935  0.00  0.00    +0.008 A 
ATOM      5  C   UNL     1     -10.787  10.429  69.517  0.00  0.00    +0.068 A 
ATOM      6  C   UNL     1      -9.495  10.524  69.018  0.00  0.00    +0.010 A 
ATOM      7  C   UNL     1     -12.058  13.603  67.820  0.00  0.00    +0.169 C 
ATOM      8  C   UNL     1      -9.214  11.450  68.022  0.00  0.00    -0.001 A 
ATOM      9  O   UNL     1     -11.028  14.549  67.698  0.00  0.00    -0.346 OA
ENDROOT
BRANCH   1  10
ATOM     10  C   UNL     1     -10.477  13.399  65.745  0.00  0.00    +0.006 A 
ATOM     11  C   UNL     1     -11.302  14.205  65.002  0.00  0.00    +0.001 A 
ATOM     12  C   UNL     1     -12.051  13.682  63.962  0.00  0.00    +0.029 A 
ATOM     13  C   UNL     1     -12.031  12.308  63.770  0.00  0.00    +0.140 A 
ATOM     14  F   UNL     1     -13.076  11.650  63.211  0.00  0.00    -0.204 F 
ATOM     15  C   UNL     1     -10.888  11.656  64.189  0.00  0.00    +0.029 A 
ATOM     16  C   UNL     1     -10.094  12.191  65.194  0.00  0.00    +0.001 A 
ENDBRANCH   1  10
BRANCH   5  17
ATOM     17  C   UNL     1     -11.004   9.685  70.734  0.00  0.00    +0.100 C 
ATOM     18  N   UNL     1     -11.310   9.116  71.683  0.00  0.00    -0.191 NA
ENDBRANCH   5  17
BRANCH   1  19
ATOM     19  C   UNL     1      -8.709  14.476  67.021  0.00  0.00    +0.037 C 
BRANCH  19  20
ATOM     20  C   UNL     1      -8.762  15.837  67.685  0.00  0.00    +0.020 C 
BRANCH  20  21
ATOM     21  C   UNL     1      -8.932  16.859  66.576  0.00  0.00    +0.072 C 
BRANCH  21  23
ATOM     22  C   UNL     1     -10.248  18.343  66.155  0.00  0.00    +0.090 C 
ATOM     23  N   UNL     1     -10.133  17.649  66.737  0.00  0.00    -0.270 NA
ATOM     24  C   UNL     1     -10.252  18.011  68.147  0.00  0.00    +0.090 C 
ENDBRANCH  21  23
ENDBRANCH  20  21
ENDBRANCH  19  20
ENDBRANCH   1  19
TORSDOF 6
ENDMDL
MODEL 8
REMARK VINA RESULT:      -5.9      3.186      4.310
REMARK  Name = 
REMARK  6 active torsions:
REMARK  status: ('A' for Active; 'I' for Inactive)
REMARK    1  A    between atoms: N_2  and  C_4
REMARK    2  A    between atoms: C_4  and  C_5
REMARK    3  A    between atoms: C_5  and  C_6
REMARK    4  A    between atoms: C_6  and  C_7
REMARK    5  A    between atoms: C_7  and  C_8
REMARK    6  A    between atoms: C_19  and  C_20
REMARK                            x       y       z     vdW  Elec       q    Type
REMARK                         _______ _______ _______ _____ _____    ______ ____
ROOT
ATOM      1  C   UNL     1     -10.822  11.975  67.959  0.00  0.00    +0.130 C 
ATOM      2  C   UNL     1     -10.803  13.459  68.023  0.00  0.00    +0.004 A 
ATOM      3  C   UNL     1      -9.526  13.803  67.592  0.00  0.00    +0.006 A 
ATOM      4  C   UNL     1      -9.185  15.128  67.382  0.00  0.00    +0.008 A 
ATOM      5  C   UNL     1     -10.038  16.105  67.830  0.00  0.00    +0.068 A 
ATOM      6  C   UNL     1     -11.369  15.760  68.021  0.00  0.00    +0.010 A 
ATOM      7  C   UNL     1      -8.768  12.513  67.599  0.00  0.00    +0.169 C 
ATOM      8  C   UNL     1     -11.767  14.442  67.835  0.00  0.00    -0.001 A 
ATOM      9  O   UNL     1      -9.545  11.658  68.397  0.00  0.00    -0.346 OA
ENDROOT
BRANCH   1  10
ATOM     10  C   UNL     1     -10.970  11.561  66.552  0.00  0.00    +0.006 A 
ATOM     11  C   UNL     1     -10.287  10.483  66.046  0.00  0.00    +0.001 A 
ATOM     12  C   UNL     1     -10.076  10.355  64.685  0.00  0.00    +0.029 A 
ATOM     13  C   UNL     1     -10.470  11.402  63.862  0.00  0.00    +0.140 A 
ATOM     14  F   UNL     1      -9.856  11.650  62.680  0.00  0.00    -0.204 F 
ATOM     15  C   UNL     1     -11.519  12.172  64.325  0.00  0.00    +0.029 A 
ATOM     16  C   UNL     1     -11.780  12.270  65.686  0.00  0.00    +0.001 A 
ENDBRANCH   1  10
BRANCH   5  17
ATOM     17  C   UNL     1      -9.584  17.391  68.302  0.00  0.00    +0.100 C 
ATOM     18  N   UNL     1      -9.354  18.444  68.694  0.00  0.00    -0.191 NA
ENDBRANCH   5  17
BRANCH   1  19
ATOM     19  C   UNL     1     -11.912  11.361  68.785  0.00  0.00    +0.037 C 
BRANCH  19  20
ATOM     20  C   UNL     1     -11.343  10.646  69.992  0.00  0.00    +0.020 C 
BRANCH  20  21
ATOM     21  C   UNL     1     -12.448  10.593  71.031  0.00  0.00    +0.072 C 
BRANCH  21  23
ATOM     22  C   UNL     1     -13.341   9.148  72.139  0.00  0.00    +0.090 C 
ATOM     23  N   UNL     1     -12.674   9.252  71.523  0.00  0.00    -0.270 NA
ATOM     24  C   UNL     1     -11.386   8.691  71.921  0.00  0.00    +0.090 C 
ENDBRANCH  21  23
ENDBRANCH  20  21
ENDBRANCH  19  20
ENDBRANCH   1  19
TORSDOF 6
ENDMDL
MODEL 9
REMARK VINA RESULT:      -5.8      3.027      6.106
REMARK  Name = 
REMARK  6 active torsions:
REMARK  status: ('A' for Active; 'I' for Inactive)
REMARK    1  A    between atoms: N_2  and  C_4
REMARK    2  A    between atoms: C_4  and  C_5
REMARK    3  A    between atoms: C_5  and  C_6
REMARK    4  A    between atoms: C_6  and  C_7
REMARK    5  A    between atoms: C_7  and  C_8
REMARK    6  A    between atoms: C_19  and  C_20
REMARK                            x       y       z     vdW  Elec       q    Type
REMARK                         _______ _______ _______ _____ _____    ______ ____
ROOT
ATOM      1  C   UNL     1     -10.631  15.212  68.345  0.00  0.00    +0.130 C 
ATOM      2  C   UNL     1     -10.913  14.205  67.290  0.00  0.00    +0.004 A 
ATOM      3  C   UNL     1      -9.937  13.233  67.477  0.00  0.00    +0.006 A 
ATOM      4  C   UNL     1      -9.971  12.051  66.756  0.00  0.00    +0.008 A 
ATOM      5  C   UNL     1     -10.832  11.954  65.693  0.00  0.00    +0.068 A 
ATOM      6  C   UNL     1     -11.933  12.800  65.678  0.00  0.00    +0.010 A 
ATOM      7  C   UNL     1      -8.955  13.862  68.415  0.00  0.00    +0.169 C 
ATOM      8  C   UNL     1     -12.075  13.755  66.677  0.00  0.00    -0.001 A 
ATOM      9  O   UNL     1      -9.245  15.234  68.351  0.00  0.00    -0.346 OA
ENDROOT
BRANCH   1  10
ATOM     10  C   UNL     1     -11.113  14.694  69.639  0.00  0.00    +0.006 A 
ATOM     11  C   UNL     1     -11.781  13.498  69.727  0.00  0.00    +0.001 A 
ATOM     12  C   UNL     1     -12.595  13.221  70.812  0.00  0.00    +0.029 A 
ATOM     13  C   UNL     1     -12.807  14.230  71.742  0.00  0.00    +0.140 A 
ATOM     14  F   UNL     1     -13.942  14.292  72.481  0.00  0.00    -0.204 F 
ATOM     15  C   UNL     1     -11.796  15.163  71.862  0.00  0.00    +0.029 A 
ATOM     16  C   UNL     1     -10.935  15.416  70.803  0.00  0.00    +0.001 A 
ENDBRANCH   1  10
BRANCH   5  17
ATOM     17  C   UNL     1     -10.543  11.177  64.513  0.00  0.00    +0.100 C 
ATOM     18  N   UNL     1     -10.181  10.566  63.611  0.00  0.00    -0.191 NA
ENDBRANCH   5  17
BRANCH   1  19
ATOM     19  C   UNL     1     -11.254  16.548  68.071  0.00  0.00    +0.037 C 
BRANCH  19  20
ATOM     20  C   UNL     1     -10.302  17.447  67.311  0.00  0.00    +0.020 C 
BRANCH  20  21
ATOM     21  C   UNL     1     -10.077  18.675  68.173  0.00  0.00    +0.072 C 
BRANCH  21  23
ATOM     22  C   UNL     1     -10.310  19.912  66.583  0.00  0.00    +0.090 C 
ATOM     23  N   UNL     1      -9.872  19.869  67.383  0.00  0.00    -0.270 NA
ATOM     24  C   UNL     1      -8.435  20.121  67.305  0.00  0.00    +0.090 C 
ENDBRANCH  21  23
ENDBRANCH  20  21
ENDBRANCH  19  20
ENDBRANCH   1  19
TORSDOF 6
ENDMDL
