MODEL 1
REMARK VINA RESULT:      -6.9      0.000      0.000
REMARK  Name = 
REMARK  5 active torsions:
REMARK  status: ('A' for Active; 'I' for Inactive)
REMARK    1  A    between atoms: C_2  and  O_4
REMARK    2  A    between atoms: O_4  and  C_5
REMARK    3  A    between atoms: C_5  and  C_6
REMARK    4  A    between atoms: C_23  and  C_24
REMARK    5  A    between atoms: C_27  and  N_28
REMARK                            x       y       z     vdW  Elec       q    Type
REMARK                         _______ _______ _______ _____ _____    ______ ____
ROOT
ATOM      1  C   UNL     1     -10.581  12.455  67.436  0.00  0.00    +0.186 C 
ATOM      2  C   UNL     1      -9.904  11.431  68.163  0.00  0.00    +0.041 C 
ATOM      3  C   UNL     1      -9.817  10.325  66.975  0.00  0.00    +0.008 C 
ATOM      4  C   UNL     1      -8.541   9.553  67.838  0.00  0.00    +0.019 C 
ATOM      5  C   UNL     1      -9.573   8.483  68.439  0.00  0.00    -0.045 C 
ATOM      6  C   UNL     1     -10.929   9.237  68.956  0.00  0.00    +0.040 C 
ATOM      7  C   UNL     1      -9.763   7.337  67.878  0.00  0.00    -0.033 C 
ATOM      8  C   UNL     1      -9.702   7.075  66.427  0.00  0.00    -0.024 C 
ATOM      9  C   UNL     1      -9.251   5.868  66.081  0.00  0.00    +0.033 C 
ATOM     10  C   UNL     1      -9.720   4.792  66.964  0.00  0.00    +0.173 C 
ATOM     11  C   UNL     1     -10.060   5.017  68.393  0.00  0.00    +0.074 C 
ATOM     12  O   UNL     1      -9.601   3.584  66.598  0.00  0.00    -0.291 OA
ATOM     13  C   UNL     1      -9.183   8.296  65.723  0.00  0.00    +0.026 C 
ATOM     14  C   UNL     1     -10.669   6.397  68.619  0.00  0.00    +0.034 C 
ATOM     15  C   UNL     1      -8.016   8.674  66.555  0.00  0.00    +0.009 C 
ATOM     16  C   UNL     1      -8.850  11.325  66.130  0.00  0.00    +0.004 C 
ATOM     17  C   UNL     1      -8.481  11.976  68.343  0.00  0.00    +0.004 C 
ATOM     18  C   UNL     1     -10.219  10.693  69.311  0.00  0.00    +0.012 C 
ATOM     19  C   UNL     1      -9.757  12.557  66.150  0.00  0.00    +0.047 C 
ENDROOT
BRANCH   6  20
ATOM     20  C   UNL     1     -10.739   8.687  70.472  0.00  0.00    -0.019 A 
ATOM     21  C   UNL     1      -9.520   8.832  71.036  0.00  0.00    -0.003 A 
ATOM     22  C   UNL     1      -9.392   8.443  72.363  0.00  0.00    +0.014 A 
ATOM     23  C   UNL     1     -10.421   7.767  72.995  0.00  0.00    +0.048 A 
ATOM     24  C   UNL     1     -11.680   7.826  72.417  0.00  0.00    +0.014 A 
ATOM     25  C   UNL     1     -11.879   8.369  71.150  0.00  0.00    -0.003 A 
BRANCH  23  26
ATOM     26  N   UNL     1     -10.092   6.846  74.041  0.00  0.00    -0.304 N 
ATOM     27  C   UNL     1      -8.802   6.938  74.691  0.00  0.00    +0.112 C 
ATOM     28  C   UNL     1     -10.599   5.488  73.857  0.00  0.00    +0.112 C 
ENDBRANCH  23  26
ENDBRANCH   6  20
BRANCH   1  29
ATOM     29  C   UNL     1     -10.504  13.733  68.220  0.00  0.00    +0.187 C 
ATOM     30  O   UNL     1      -9.934  14.643  67.684  0.00  0.00    -0.292 OA
ATOM     31  C   UNL     1     -11.537  13.941  69.252  0.00  0.00    +0.076 C 
ENDBRANCH   1  29
BRANCH   1  32
ATOM     32  O   UNL     1     -11.907  12.303  67.042  0.00  0.00    -0.449 OA
BRANCH  32  34
ATOM     33  C   UNL     1     -12.722  14.097  65.578  0.00  0.00    +0.121 C 
ATOM     34  C   UNL     1     -12.259  12.810  65.783  0.00  0.00    +0.318 C 
ATOM     35  O   UNL     1     -12.489  11.953  64.876  0.00  0.00    -0.250 OA
ENDBRANCH  32  34
ENDBRANCH   1  32
TORSDOF 5
ENDMDL
MODEL 2
REMARK VINA RESULT:      -6.7      4.714      8.931
REMARK  Name = 
REMARK  5 active torsions:
REMARK  status: ('A' for Active; 'I' for Inactive)
REMARK    1  A    between atoms: C_2  and  O_4
REMARK    2  A    between atoms: O_4  and  C_5
REMARK    3  A    between atoms: C_5  and  C_6
REMARK    4  A    between atoms: C_23  and  C_24
REMARK    5  A    between atoms: C_27  and  N_28
REMARK                            x       y       z     vdW  Elec       q    Type
REMARK                         _______ _______ _______ _____ _____    ______ ____
ROOT
ATOM      1  C   UNL     1     -10.680  13.418  66.941  0.00  0.00    +0.186 C 
ATOM      2  C   UNL     1      -9.883  14.117  67.896  0.00  0.00    +0.041 C 
ATOM      3  C   UNL     1     -10.148  15.627  67.356  0.00  0.00    +0.008 C 
ATOM      4  C   UNL     1      -9.651  16.224  68.893  0.00  0.00    +0.019 C 
ATOM      5  C   UNL     1      -8.185  16.527  68.321  0.00  0.00    -0.045 C 
ATOM      6  C   UNL     1      -7.656  15.263  67.427  0.00  0.00    +0.040 C 
ATOM      7  C   UNL     1      -7.862  17.691  67.867  0.00  0.00    -0.033 C 
ATOM      8  C   UNL     1      -8.774  18.619  67.169  0.00  0.00    -0.024 C 
ATOM      9  C   UNL     1      -8.540  19.916  67.376  0.00  0.00    +0.033 C 
ATOM     10  C   UNL     1      -7.111  20.253  67.430  0.00  0.00    +0.173 C 
ATOM     11  C   UNL     1      -6.075  19.286  67.878  0.00  0.00    +0.074 C 
ATOM     12  O   UNL     1      -6.749  21.464  67.342  0.00  0.00    -0.291 OA
ATOM     13  C   UNL     1     -10.177  18.091  67.250  0.00  0.00    +0.026 C 
ATOM     14  C   UNL     1      -6.423  17.856  67.475  0.00  0.00    +0.034 C 
ATOM     15  C   UNL     1     -10.298  17.718  68.679  0.00  0.00    +0.009 C 
ATOM     16  C   UNL     1     -11.721  15.479  67.747  0.00  0.00    +0.004 C 
ATOM     17  C   UNL     1     -10.670  13.989  69.207  0.00  0.00    +0.004 C 
ATOM     18  C   UNL     1      -8.521  14.090  68.219  0.00  0.00    +0.012 C 
ATOM     19  C   UNL     1     -12.005  14.185  66.981  0.00  0.00    +0.047 C 
ENDROOT
BRANCH   6  20
ATOM     20  C   UNL     1      -6.354  15.052  68.373  0.00  0.00    -0.019 A 
ATOM     21  C   UNL     1      -6.561  14.981  69.707  0.00  0.00    -0.003 A 
ATOM     22  C   UNL     1      -5.454  14.707  70.500  0.00  0.00    +0.014 A 
ATOM     23  C   UNL     1      -4.184  14.703  69.950  0.00  0.00    +0.048 A 
ATOM     24  C   UNL     1      -4.081  14.599  68.571  0.00  0.00    +0.014 A 
ATOM     25  C   UNL     1      -5.198  14.695  67.744  0.00  0.00    -0.003 A 
BRANCH  23  26
ATOM     26  N   UNL     1      -3.078  15.063  70.784  0.00  0.00    -0.304 N 
ATOM     27  C   UNL     1      -1.945  15.754  70.207  0.00  0.00    +0.112 C 
ATOM     28  C   UNL     1      -2.748  14.099  71.832  0.00  0.00    +0.112 C 
ENDBRANCH  23  26
ENDBRANCH   6  20
BRANCH   1  29
ATOM     29  C   UNL     1     -10.870  12.006  67.413  0.00  0.00    +0.187 C 
ATOM     30  O   UNL     1     -12.005  11.658  67.586  0.00  0.00    -0.292 OA
ATOM     31  C   UNL     1      -9.786  11.053  67.105  0.00  0.00    +0.076 C 
ENDBRANCH   1  29
BRANCH   1  32
ATOM     32  O   UNL     1     -10.306  13.349  65.602  0.00  0.00    -0.449 OA
BRANCH  32  34
ATOM     33  C   UNL     1     -11.724  12.304  63.892  0.00  0.00    +0.121 C 
ATOM     34  C   UNL     1     -11.336  13.393  64.652  0.00  0.00    +0.318 C 
ATOM     35  O   UNL     1     -11.670  14.545  64.238  0.00  0.00    -0.250 OA
ENDBRANCH  32  34
ENDBRANCH   1  32
TORSDOF 5
ENDMDL
MODEL 3
REMARK VINA RESULT:      -6.2      3.119      6.535
REMARK  Name = 
REMARK  5 active torsions:
REMARK  status: ('A' for Active; 'I' for Inactive)
REMARK    1  A    between atoms: C_2  and  O_4
REMARK    2  A    between atoms: O_4  and  C_5
REMARK    3  A    between atoms: C_5  and  C_6
REMARK    4  A    between atoms: C_23  and  C_24
REMARK    5  A    between atoms: C_27  and  N_28
REMARK                            x       y       z     vdW  Elec       q    Type
REMARK                         _______ _______ _______ _____ _____    ______ ____
ROOT
ATOM      1  C   UNL     1      -7.493   8.607  66.200  0.00  0.00    +0.186 C 
ATOM      2  C   UNL     1      -7.847   9.588  67.173  0.00  0.00    +0.041 C 
ATOM      3  C   UNL     1      -8.621   8.611  68.215  0.00  0.00    +0.008 C 
ATOM      4  C   UNL     1      -8.398   9.800  69.440  0.00  0.00    +0.019 C 
ATOM      5  C   UNL     1      -9.887  10.344  69.207  0.00  0.00    -0.045 C 
ATOM      6  C   UNL     1     -10.193  10.482  67.606  0.00  0.00    +0.040 C 
ATOM      7  C   UNL     1     -10.879   9.930  69.920  0.00  0.00    -0.033 C 
ATOM      8  C   UNL     1     -11.023   8.569  70.475  0.00  0.00    -0.024 C 
ATOM      9  C   UNL     1     -11.649   8.493  71.650  0.00  0.00    +0.033 C 
ATOM     10  C   UNL     1     -12.785   9.417  71.770  0.00  0.00    +0.173 C 
ATOM     11  C   UNL     1     -12.849  10.709  71.038  0.00  0.00    +0.074 C 
ATOM     12  O   UNL     1     -13.626   9.259  72.705  0.00  0.00    -0.291 OA
ATOM     13  C   UNL     1      -9.748   7.807  70.257  0.00  0.00    +0.026 C 
ATOM     14  C   UNL     1     -12.190  10.615  69.665  0.00  0.00    +0.034 C 
ATOM     15  C   UNL     1      -8.715   8.780  70.686  0.00  0.00    +0.009 C 
ATOM     16  C   UNL     1      -7.224   7.827  68.502  0.00  0.00    +0.004 C 
ATOM     17  C   UNL     1      -6.514   9.952  67.840  0.00  0.00    +0.004 C 
ATOM     18  C   UNL     1      -8.627  10.751  67.131  0.00  0.00    +0.012 C 
ATOM     19  C   UNL     1      -6.868   7.497  67.050  0.00  0.00    +0.047 C 
ENDROOT
BRANCH   6  20
ATOM     20  C   UNL     1     -10.508  12.070  67.733  0.00  0.00    -0.019 A 
ATOM     21  C   UNL     1      -9.531  12.858  68.235  0.00  0.00    -0.003 A 
ATOM     22  C   UNL     1      -9.775  14.225  68.254  0.00  0.00    +0.014 A 
ATOM     23  C   UNL     1     -11.034  14.714  67.949  0.00  0.00    +0.048 A 
ATOM     24  C   UNL     1     -11.906  13.872  67.276  0.00  0.00    +0.014 A 
ATOM     25  C   UNL     1     -11.617  12.523  67.083  0.00  0.00    -0.003 A 
BRANCH  23  26
ATOM     26  N   UNL     1     -11.456  15.938  68.560  0.00  0.00    -0.304 N 
ATOM     27  C   UNL     1     -10.678  17.141  68.359  0.00  0.00    +0.112 C 
ATOM     28  C   UNL     1     -12.051  15.798  69.888  0.00  0.00    +0.112 C 
ENDBRANCH  23  26
ENDBRANCH   6  20
BRANCH   1  29
ATOM     29  C   UNL     1      -6.476   9.197  65.267  0.00  0.00    +0.187 C 
ATOM     30  O   UNL     1      -5.410   8.648  65.237  0.00  0.00    -0.292 OA
ATOM     31  C   UNL     1      -6.995   9.984  64.132  0.00  0.00    +0.076 C 
ENDBRANCH   1  29
BRANCH   1  32
ATOM     32  O   UNL     1      -8.460   7.996  65.407  0.00  0.00    -0.449 OA
BRANCH  32  34
ATOM     33  C   UNL     1      -7.684   6.127  64.019  0.00  0.00    +0.121 C 
ATOM     34  C   UNL     1      -8.301   6.627  65.151  0.00  0.00    +0.318 C 
ATOM     35  O   UNL     1      -9.054   5.841  65.803  0.00  0.00    -0.250 OA
ENDBRANCH  32  34
ENDBRANCH   1  32
TORSDOF 5
ENDMDL
MODEL 4
REMARK VINA RESULT:      -6.0      4.524      7.835
REMARK  Name = 
REMARK  5 active torsions:
REMARK  status: ('A' for Active; 'I' for Inactive)
REMARK    1  A    between atoms: C_2  and  O_4
REMARK    2  A    between atoms: O_4  and  C_5
REMARK    3  A    between atoms: C_5  and  C_6
REMARK    4  A    between atoms: C_23  and  C_24
REMARK    5  A    between atoms: C_27  and  N_28
REMARK                            x       y       z     vdW  Elec       q    Type
REMARK                         _______ _______ _______ _____ _____    ______ ____
ROOT
ATOM      1  C   UNL     1      -8.017  17.532  67.588  0.00  0.00    +0.186 C 
ATOM      2  C   UNL     1      -8.993  16.587  67.150  0.00  0.00    +0.041 C 
ATOM      3  C   UNL     1      -9.741  16.351  68.574  0.00  0.00    +0.008 C 
ATOM      4  C   UNL     1     -11.104  15.742  67.715  0.00  0.00    +0.019 C 
ATOM      5  C   UNL     1     -10.622  14.237  67.983  0.00  0.00    -0.045 C 
ATOM      6  C   UNL     1      -9.016  14.101  67.704  0.00  0.00    +0.040 C 
ATOM      7  C   UNL     1     -11.064  13.553  68.984  0.00  0.00    -0.033 C 
ATOM      8  C   UNL     1     -11.429  14.107  70.303  0.00  0.00    -0.024 C 
ATOM      9  C   UNL     1     -12.432  13.487  70.927  0.00  0.00    +0.033 C 
ATOM     10  C   UNL     1     -12.409  12.027  70.767  0.00  0.00    +0.173 C 
ATOM     11  C   UNL     1     -11.820  11.359  69.577  0.00  0.00    +0.074 C 
ATOM     12  O   UNL     1     -13.124  11.302  71.522  0.00  0.00    -0.291 OA
ATOM     13  C   UNL     1     -11.405  15.607  70.236  0.00  0.00    +0.026 C 
ATOM     14  C   UNL     1     -10.613  12.123  69.039  0.00  0.00    +0.034 C 
ATOM     15  C   UNL     1     -12.141  15.884  68.979  0.00  0.00    +0.009 C 
ATOM     16  C   UNL     1     -10.230  17.903  68.563  0.00  0.00    +0.004 C 
ATOM     17  C   UNL     1      -9.959  17.416  66.294  0.00  0.00    +0.004 C 
ATOM     18  C   UNL     1      -8.911  15.312  66.577  0.00  0.00    +0.012 C 
ATOM     19  C   UNL     1      -8.859  18.552  68.361  0.00  0.00    +0.047 C 
ENDROOT
BRANCH   6  20
ATOM     20  C   UNL     1      -9.241  12.960  66.570  0.00  0.00    -0.019 A 
ATOM     21  C   UNL     1      -8.668  11.754  66.781  0.00  0.00    -0.003 A 
ATOM     22  C   UNL     1      -8.943  10.758  65.853  0.00  0.00    +0.014 A 
ATOM     23  C   UNL     1      -9.613  11.061  64.681  0.00  0.00    +0.048 A 
ATOM     24  C   UNL     1     -10.316  12.255  64.632  0.00  0.00    +0.014 A 
ATOM     25  C   UNL     1     -10.201  13.214  65.636  0.00  0.00    -0.003 A 
BRANCH  23  26
ATOM     26  N   UNL     1      -9.338  10.276  63.516  0.00  0.00    -0.304 N 
ATOM     27  C   UNL     1      -8.639   9.016  63.653  0.00  0.00    +0.112 C 
ATOM     28  C   UNL     1      -9.009  11.040  62.314  0.00  0.00    +0.112 C 
ENDBRANCH  23  26
ENDBRANCH   6  20
BRANCH   1  29
ATOM     29  C   UNL     1      -7.386  18.168  66.384  0.00  0.00    +0.187 C 
ATOM     30  O   UNL     1      -6.998  17.413  65.536  0.00  0.00    -0.292 OA
ATOM     31  C   UNL     1      -7.774  19.561  66.090  0.00  0.00    +0.076 C 
ENDBRANCH   1  29
BRANCH   1  32
ATOM     32  O   UNL     1      -6.980  17.156  68.436  0.00  0.00    -0.449 OA
BRANCH  32  34
ATOM     33  C   UNL     1      -4.737  18.134  68.243  0.00  0.00    +0.121 C 
ATOM     34  C   UNL     1      -6.025  18.135  68.746  0.00  0.00    +0.318 C 
ATOM     35  O   UNL     1      -6.248  18.830  69.783  0.00  0.00    -0.250 OA
ENDBRANCH  32  34
ENDBRANCH   1  32
TORSDOF 5
ENDMDL
MODEL 5
REMARK VINA RESULT:      -5.9      5.068      7.742
REMARK  Name = 
REMARK  5 active torsions:
REMARK  status: ('A' for Active; 'I' for Inactive)
REMARK    1  A    between atoms: C_2  and  O_4
REMARK    2  A    between atoms: O_4  and  C_5
REMARK    3  A    between atoms: C_5  and  C_6
REMARK    4  A    between atoms: C_23  and  C_24
REMARK    5  A    between atoms: C_27  and  N_28
REMARK                            x       y       z     vdW  Elec       q    Type
REMARK                         _______ _______ _______ _____ _____    ______ ____
ROOT
ATOM      1  C   UNL     1      -7.007  19.037  66.940  0.00  0.00    +0.186 C 
ATOM      2  C   UNL     1      -7.363  18.075  67.932  0.00  0.00    +0.041 C 
ATOM      3  C   UNL     1      -6.152  17.021  67.676  0.00  0.00    +0.008 C 
ATOM      4  C   UNL     1      -6.433  16.374  69.247  0.00  0.00    +0.019 C 
ATOM      5  C   UNL     1      -7.294  15.178  68.619  0.00  0.00    -0.045 C 
ATOM      6  C   UNL     1      -8.323  15.758  67.487  0.00  0.00    +0.040 C 
ATOM      7  C   UNL     1      -6.765  14.034  68.343  0.00  0.00    -0.033 C 
ATOM      8  C   UNL     1      -5.378  13.822  67.886  0.00  0.00    -0.024 C 
ATOM      9  C   UNL     1      -4.809  12.685  68.288  0.00  0.00    +0.033 C 
ATOM     10  C   UNL     1      -5.726  11.537  68.284  0.00  0.00    +0.173 C 
ATOM     11  C   UNL     1      -7.192  11.681  68.480  0.00  0.00    +0.074 C 
ATOM     12  O   UNL     1      -5.259  10.362  68.372  0.00  0.00    -0.291 OA
ATOM     13  C   UNL     1      -4.619  15.114  67.988  0.00  0.00    +0.026 C 
ATOM     14  C   UNL     1      -7.720  12.977  67.871  0.00  0.00    +0.034 C 
ATOM     15  C   UNL     1      -4.989  15.598  69.339  0.00  0.00    +0.009 C 
ATOM     16  C   UNL     1      -5.082  18.149  68.160  0.00  0.00    +0.004 C 
ATOM     17  C   UNL     1      -7.046  18.773  69.261  0.00  0.00    +0.004 C 
ATOM     18  C   UNL     1      -8.493  17.274  68.137  0.00  0.00    +0.012 C 
ATOM     19  C   UNL     1      -5.518  19.269  67.213  0.00  0.00    +0.047 C 
ENDROOT
BRANCH   6  20
ATOM     20  C   UNL     1      -9.622  15.189  68.277  0.00  0.00    -0.019 A 
ATOM     21  C   UNL     1      -9.800  15.598  69.553  0.00  0.00    -0.003 A 
ATOM     22  C   UNL     1     -10.962  15.181  70.189  0.00  0.00    +0.014 A 
ATOM     23  C   UNL     1     -11.784  14.239  69.596  0.00  0.00    +0.048 A 
ATOM     24  C   UNL     1     -11.631  14.017  68.236  0.00  0.00    +0.014 A 
ATOM     25  C   UNL     1     -10.568  14.564  67.520  0.00  0.00    -0.003 A 
BRANCH  23  26
ATOM     26  N   UNL     1     -12.548  13.371  70.440  0.00  0.00    -0.304 N 
ATOM     27  C   UNL     1     -13.018  13.855  71.720  0.00  0.00    +0.112 C 
ATOM     28  C   UNL     1     -12.146  11.967  70.417  0.00  0.00    +0.112 C 
ENDBRANCH  23  26
ENDBRANCH   6  20
BRANCH   1  29
ATOM     29  C   UNL     1      -7.793  20.292  67.181  0.00  0.00    +0.187 C 
ATOM     30  O   UNL     1      -7.154  21.304  67.262  0.00  0.00    -0.292 OA
ATOM     31  C   UNL     1      -9.209  20.279  66.764  0.00  0.00    +0.076 C 
ENDBRANCH   1  29
BRANCH   1  32
ATOM     32  O   UNL     1      -7.116  18.747  65.583  0.00  0.00    -0.449 OA
BRANCH  32  34
ATOM     33  C   UNL     1      -6.176  20.409  64.041  0.00  0.00    +0.121 C 
ATOM     34  C   UNL     1      -6.096  19.222  64.747  0.00  0.00    +0.318 C 
ATOM     35  O   UNL     1      -5.240  18.369  64.362  0.00  0.00    -0.250 OA
ENDBRANCH  32  34
ENDBRANCH   1  32
TORSDOF 5
ENDMDL
MODEL 6
REMARK VINA RESULT:      -5.9      3.676      8.013
REMARK  Name = 
REMARK  5 active torsions:
REMARK  status: ('A' for Active; 'I' for Inactive)
REMARK    1  A    between atoms: C_2  and  O_4
REMARK    2  A    between atoms: O_4  and  C_5
REMARK    3  A    between atoms: C_5  and  C_6
REMARK    4  A    between atoms: C_23  and  C_24
REMARK    5  A    between atoms: C_27  and  N_28
REMARK                            x       y       z     vdW  Elec       q    Type
REMARK                         _______ _______ _______ _____ _____    ______ ____
ROOT
ATOM      1  C   UNL     1      -8.716   7.623  68.871  0.00  0.00    +0.186 C 
ATOM      2  C   UNL     1      -8.290   8.666  67.995  0.00  0.00    +0.041 C 
ATOM      3  C   UNL     1      -9.644   9.566  68.034  0.00  0.00    +0.008 C 
ATOM      4  C   UNL     1      -8.722  10.910  67.479  0.00  0.00    +0.019 C 
ATOM      5  C   UNL     1      -9.217  10.651  65.977  0.00  0.00    -0.045 C 
ATOM      6  C   UNL     1      -9.130   9.056  65.622  0.00  0.00    +0.040 C 
ATOM      7  C   UNL     1     -10.239  11.266  65.485  0.00  0.00    -0.033 C 
ATOM      8  C   UNL     1     -11.436  11.678  66.245  0.00  0.00    -0.024 C 
ATOM      9  C   UNL     1     -12.017  12.805  65.831  0.00  0.00    +0.033 C 
ATOM     10  C   UNL     1     -12.036  12.953  64.370  0.00  0.00    +0.173 C 
ATOM     11  C   UNL     1     -11.004  12.347  63.489  0.00  0.00    +0.074 C 
ATOM     12  O   UNL     1     -12.790  13.821  63.837  0.00  0.00    -0.291 OA
ATOM     13  C   UNL     1     -11.194  11.457  67.711  0.00  0.00    +0.026 C 
ATOM     14  C   UNL     1     -10.511  11.008  64.032  0.00  0.00    +0.034 C 
ATOM     15  C   UNL     1      -9.841  12.033  67.903  0.00  0.00    +0.009 C 
ATOM     16  C   UNL     1      -9.396   9.851  69.618  0.00  0.00    +0.004 C 
ATOM     17  C   UNL     1      -7.243   9.436  68.810  0.00  0.00    +0.004 C 
ATOM     18  C   UNL     1      -7.885   8.695  66.655  0.00  0.00    +0.012 C 
ATOM     19  C   UNL     1      -9.267   8.395  70.073  0.00  0.00    +0.047 C 
ENDROOT
BRANCH   6  20
ATOM     20  C   UNL     1      -8.122   9.320  64.376  0.00  0.00    -0.019 A 
ATOM     21  C   UNL     1      -6.973   9.982  64.637  0.00  0.00    -0.003 A 
ATOM     22  C   UNL     1      -6.077  10.121  63.585  0.00  0.00    +0.014 A 
ATOM     23  C   UNL     1      -6.445   9.761  62.301  0.00  0.00    +0.048 A 
ATOM     24  C   UNL     1      -7.547   8.933  62.156  0.00  0.00    +0.014 A 
ATOM     25  C   UNL     1      -8.379   8.627  63.230  0.00  0.00    -0.003 A 
BRANCH  23  26
ATOM     26  N   UNL     1      -5.850  10.457  61.200  0.00  0.00    -0.304 N 
ATOM     27  C   UNL     1      -6.173  11.850  60.978  0.00  0.00    +0.112 C 
ATOM     28  C   UNL     1      -5.665   9.662  59.988  0.00  0.00    +0.112 C 
ENDBRANCH  23  26
ENDBRANCH   6  20
BRANCH   1  29
ATOM     29  C   UNL     1      -7.519   6.808  69.267  0.00  0.00    +0.187 C 
ATOM     30  O   UNL     1      -7.284   6.758  70.442  0.00  0.00    -0.292 OA
ATOM     31  C   UNL     1      -7.096   5.752  68.327  0.00  0.00    +0.076 C 
ENDBRANCH   1  29
BRANCH   1  32
ATOM     32  O   UNL     1      -9.708   6.724  68.493  0.00  0.00    -0.449 OA
BRANCH  32  34
ATOM     33  C   UNL     1     -10.242   4.969  70.123  0.00  0.00    +0.121 C 
ATOM     34  C   UNL     1     -10.501   6.184  69.515  0.00  0.00    +0.318 C 
ATOM     35  O   UNL     1     -11.671   6.659  69.631  0.00  0.00    -0.250 OA
ENDBRANCH  32  34
ENDBRANCH   1  32
TORSDOF 5
ENDMDL
MODEL 7
REMARK VINA RESULT:      -5.9      3.347      7.522
REMARK  Name = 
REMARK  5 active torsions:
REMARK  status: ('A' for Active; 'I' for Inactive)
REMARK    1  A    between atoms: C_2  and  O_4
REMARK    2  A    between atoms: O_4  and  C_5
REMARK    3  A    between atoms: C_5  and  C_6
REMARK    4  A    between atoms: C_23  and  C_24
REMARK    5  A    between atoms: C_27  and  N_28
REMARK                            x       y       z     vdW  Elec       q    Type
REMARK                         _______ _______ _______ _____ _____    ______ ____
ROOT
ATOM      1  C   UNL     1      -9.951   7.581  70.773  0.00  0.00    +0.186 C 
ATOM      2  C   UNL     1      -9.742   8.224  69.516  0.00  0.00    +0.041 C 
ATOM      3  C   UNL     1      -8.245   8.792  69.794  0.00  0.00    +0.008 C 
ATOM      4  C   UNL     1      -8.026   8.944  68.092  0.00  0.00    +0.019 C 
ATOM      5  C   UNL     1      -8.380  10.505  68.169  0.00  0.00    -0.045 C 
ATOM      6  C   UNL     1      -9.691  10.740  69.118  0.00  0.00    +0.040 C 
ATOM      7  C   UNL     1      -7.460  11.403  68.273  0.00  0.00    -0.033 C 
ATOM      8  C   UNL     1      -6.182  11.237  68.993  0.00  0.00    -0.024 C 
ATOM      9  C   UNL     1      -5.142  11.893  68.475  0.00  0.00    +0.033 C 
ATOM     10  C   UNL     1      -5.487  13.228  67.965  0.00  0.00    +0.173 C 
ATOM     11  C   UNL     1      -6.840  13.567  67.454  0.00  0.00    +0.074 C 
ATOM     12  O   UNL     1      -4.564  14.057  67.706  0.00  0.00    -0.291 OA
ATOM     13  C   UNL     1      -6.027   9.802  69.407  0.00  0.00    +0.026 C 
ATOM     14  C   UNL     1      -7.935  12.825  68.216  0.00  0.00    +0.034 C 
ATOM     15  C   UNL     1      -6.392   9.070  68.170  0.00  0.00    +0.009 C 
ATOM     16  C   UNL     1      -7.694   7.263  69.886  0.00  0.00    +0.004 C 
ATOM     17  C   UNL     1      -9.581   7.065  68.524  0.00  0.00    +0.004 C 
ATOM     18  C   UNL     1     -10.396   9.265  68.845  0.00  0.00    +0.012 C 
ATOM     19  C   UNL     1      -8.675   6.752  70.943  0.00  0.00    +0.047 C 
ENDROOT
BRANCH   6  20
ATOM     20  C   UNL     1     -10.521  11.447  67.914  0.00  0.00    -0.019 A 
ATOM     21  C   UNL     1     -10.544  10.812  66.721  0.00  0.00    -0.003 A 
ATOM     22  C   UNL     1     -11.331  11.376  65.726  0.00  0.00    +0.014 A 
ATOM     23  C   UNL     1     -11.899  12.624  65.907  0.00  0.00    +0.048 A 
ATOM     24  C   UNL     1     -11.981  13.111  67.203  0.00  0.00    +0.014 A 
ATOM     25  C   UNL     1     -11.344  12.475  68.266  0.00  0.00    -0.003 A 
BRANCH  23  26
ATOM     26  N   UNL     1     -12.127  13.445  64.756  0.00  0.00    -0.304 N 
ATOM     27  C   UNL     1     -12.096  12.848  63.439  0.00  0.00    +0.112 C 
ATOM     28  C   UNL     1     -11.581  14.798  64.838  0.00  0.00    +0.112 C 
ENDBRANCH  23  26
ENDBRANCH   6  20
BRANCH   1  29
ATOM     29  C   UNL     1     -11.153   6.689  70.664  0.00  0.00    +0.187 C 
ATOM     30  O   UNL     1     -10.940   5.511  70.735  0.00  0.00    -0.292 OA
ATOM     31  C   UNL     1     -12.454   7.284  71.024  0.00  0.00    +0.076 C 
ENDBRANCH   1  29
BRANCH   1  32
ATOM     32  O   UNL     1     -10.100   8.318  71.944  0.00  0.00    -0.449 OA
BRANCH  32  34
ATOM     33  C   UNL     1     -10.037   6.974  73.996  0.00  0.00    +0.121 C 
ATOM     34  C   UNL     1      -9.449   7.834  73.087  0.00  0.00    +0.318 C 
ATOM     35  O   UNL     1      -8.428   8.482  73.470  0.00  0.00    -0.250 OA
ENDBRANCH  32  34
ENDBRANCH   1  32
TORSDOF 5
ENDMDL
MODEL 8
REMARK VINA RESULT:      -5.8      3.331      5.661
REMARK  Name = 
REMARK  5 active torsions:
REMARK  status: ('A' for Active; 'I' for Inactive)
REMARK    1  A    between atoms: C_2  and  O_4
REMARK    2  A    between atoms: O_4  and  C_5
REMARK    3  A    between atoms: C_5  and  C_6
REMARK    4  A    between atoms: C_23  and  C_24
REMARK    5  A    between atoms: C_27  and  N_28
REMARK                            x       y       z     vdW  Elec       q    Type
REMARK                         _______ _______ _______ _____ _____    ______ ____
ROOT
ATOM      1  C   UNL     1      -9.890  15.211  67.170  0.00  0.00    +0.186 C 
ATOM      2  C   UNL     1      -9.526  13.860  66.892  0.00  0.00    +0.041 C 
ATOM      3  C   UNL     1     -10.500  13.132  67.970  0.00  0.00    +0.008 C 
ATOM      4  C   UNL     1     -10.342  11.671  67.071  0.00  0.00    +0.019 C 
ATOM      5  C   UNL     1      -9.218  11.149  68.086  0.00  0.00    -0.045 C 
ATOM      6  C   UNL     1      -8.148  12.344  68.407  0.00  0.00    +0.040 C 
ATOM      7  C   UNL     1      -9.509  10.391  69.089  0.00  0.00    -0.033 C 
ATOM      8  C   UNL     1     -10.765  10.444  69.862  0.00  0.00    -0.024 C 
ATOM      9  C   UNL     1     -11.192   9.275  70.342  0.00  0.00    +0.033 C 
ATOM     10  C   UNL     1     -10.109   8.411  70.831  0.00  0.00    +0.173 C 
ATOM     11  C   UNL     1      -8.728   8.468  70.284  0.00  0.00    +0.074 C 
ATOM     12  O   UNL     1     -10.386   7.409  71.556  0.00  0.00    -0.291 OA
ATOM     13  C   UNL     1     -11.731  11.369  69.179  0.00  0.00    +0.026 C 
ATOM     14  C   UNL     1      -8.338   9.887  69.880  0.00  0.00    +0.034 C 
ATOM     15  C   UNL     1     -11.639  10.940  67.763  0.00  0.00    +0.009 C 
ATOM     16  C   UNL     1     -11.797  13.679  67.152  0.00  0.00    +0.004 C 
ATOM     17  C   UNL     1     -10.136  13.584  65.511  0.00  0.00    +0.004 C 
ATOM     18  C   UNL     1      -8.321  13.151  66.968  0.00  0.00    +0.012 C 
ATOM     19  C   UNL     1     -11.421  15.163  67.134  0.00  0.00    +0.047 C 
ENDROOT
BRANCH   6  20
ATOM     20  C   UNL     1      -6.898  11.468  67.854  0.00  0.00    -0.019 A 
ATOM     21  C   UNL     1      -6.991  10.978  66.598  0.00  0.00    -0.003 A 
ATOM     22  C   UNL     1      -5.880  10.309  66.101  0.00  0.00    +0.014 A 
ATOM     23  C   UNL     1      -4.818  10.004  66.934  0.00  0.00    +0.048 A 
ATOM     24  C   UNL     1      -4.722  10.694  68.133  0.00  0.00    +0.014 A 
ATOM     25  C   UNL     1      -5.750  11.518  68.587  0.00  0.00    -0.003 A 
BRANCH  23  26
ATOM     26  N   UNL     1      -4.039   8.837  66.648  0.00  0.00    -0.304 N 
ATOM     27  C   UNL     1      -4.345   8.046  65.476  0.00  0.00    +0.112 C 
ATOM     28  C   UNL     1      -3.610   8.074  67.818  0.00  0.00    +0.112 C 
ENDBRANCH  23  26
ENDBRANCH   6  20
BRANCH   1  29
ATOM     29  C   UNL     1      -9.361  16.089  66.073  0.00  0.00    +0.187 C 
ATOM     30  O   UNL     1     -10.183  16.691  65.440  0.00  0.00    -0.292 OA
ATOM     31  C   UNL     1      -7.968  16.555  66.212  0.00  0.00    +0.076 C 
ENDBRANCH   1  29
BRANCH   1  32
ATOM     32  O   UNL     1      -9.545  15.818  68.374  0.00  0.00    -0.449 OA
BRANCH  32  34
ATOM     33  C   UNL     1     -10.093  18.192  68.667  0.00  0.00    +0.121 C 
ATOM     34  C   UNL     1     -10.379  16.849  68.829  0.00  0.00    +0.318 C 
ATOM     35  O   UNL     1     -11.231  16.534  69.715  0.00  0.00    -0.250 OA
ENDBRANCH  32  34
ENDBRANCH   1  32
TORSDOF 5
ENDMDL
MODEL 9
REMARK VINA RESULT:      -5.7      3.196      6.952
REMARK  Name = 
REMARK  5 active torsions:
REMARK  status: ('A' for Active; 'I' for Inactive)
REMARK    1  A    between atoms: C_2  and  O_4
REMARK    2  A    between atoms: O_4  and  C_5
REMARK    3  A    between atoms: C_5  and  C_6
REMARK    4  A    between atoms: C_23  and  C_24
REMARK    5  A    between atoms: C_27  and  N_28
REMARK                            x       y       z     vdW  Elec       q    Type
REMARK                         _______ _______ _______ _____ _____    ______ ____
ROOT
ATOM      1  C   UNL     1      -9.632   6.382  71.099  0.00  0.00    +0.186 C 
ATOM      2  C   UNL     1     -10.246   7.079  70.016  0.00  0.00    +0.041 C 
ATOM      3  C   UNL     1      -9.431   6.376  68.798  0.00  0.00    +0.008 C 
ATOM      4  C   UNL     1     -10.678   6.878  67.721  0.00  0.00    +0.019 C 
ATOM      5  C   UNL     1      -9.802   8.140  67.268  0.00  0.00    -0.045 C 
ATOM      6  C   UNL     1      -9.141   8.868  68.576  0.00  0.00    +0.040 C 
ATOM      7  C   UNL     1      -9.045   8.100  66.224  0.00  0.00    -0.033 C 
ATOM      8  C   UNL     1      -8.326   6.907  65.736  0.00  0.00    -0.024 C 
ATOM      9  C   UNL     1      -8.186   6.823  64.412  0.00  0.00    +0.033 C 
ATOM     10  C   UNL     1      -7.908   8.115  63.770  0.00  0.00    +0.173 C 
ATOM     11  C   UNL     1      -8.376   9.408  64.333  0.00  0.00    +0.074 C 
ATOM     12  O   UNL     1      -7.483   8.142  62.576  0.00  0.00    -0.291 OA
ATOM     13  C   UNL     1      -8.771   5.704  66.517  0.00  0.00    +0.026 C 
ATOM     14  C   UNL     1      -8.377   9.393  65.859  0.00  0.00    +0.034 C 
ATOM     15  C   UNL     1     -10.247   5.850  66.517  0.00  0.00    +0.009 C 
ATOM     16  C   UNL     1     -10.117   4.949  69.177  0.00  0.00    +0.004 C 
ATOM     17  C   UNL     1     -11.669   6.509  69.961  0.00  0.00    +0.004 C 
ATOM     18  C   UNL     1     -10.321   8.431  69.657  0.00  0.00    +0.012 C 
ATOM     19  C   UNL     1      -9.729   4.919  70.657  0.00  0.00    +0.047 C 
ENDROOT
BRANCH   6  20
ATOM     20  C   UNL     1      -9.866  10.282  68.240  0.00  0.00    -0.019 A 
ATOM     21  C   UNL     1     -11.215  10.284  68.158  0.00  0.00    -0.003 A 
ATOM     22  C   UNL     1     -11.830  11.514  67.962  0.00  0.00    +0.014 A 
ATOM     23  C   UNL     1     -11.072  12.636  67.677  0.00  0.00    +0.048 A 
ATOM     24  C   UNL     1      -9.716  12.586  67.962  0.00  0.00    +0.014 A 
ATOM     25  C   UNL     1      -9.089  11.399  68.333  0.00  0.00    -0.003 A 
BRANCH  23  26
ATOM     26  N   UNL     1     -11.658  13.670  66.879  0.00  0.00    -0.304 N 
ATOM     27  C   UNL     1     -12.288  13.329  65.622  0.00  0.00    +0.112 C 
ATOM     28  C   UNL     1     -10.943  14.945  66.889  0.00  0.00    +0.112 C 
ENDBRANCH  23  26
ENDBRANCH   6  20
BRANCH   1  29
ATOM     29  C   UNL     1     -10.440   6.616  72.342  0.00  0.00    +0.187 C 
ATOM     30  O   UNL     1     -10.940   5.643  72.834  0.00  0.00    -0.292 OA
ATOM     31  C   UNL     1     -10.116   7.823  73.126  0.00  0.00    +0.076 C 
ENDBRANCH   1  29
BRANCH   1  32
ATOM     32  O   UNL     1      -8.300   6.602  71.436  0.00  0.00    -0.449 OA
BRANCH  32  34
ATOM     33  C   UNL     1      -7.381   5.079  73.127  0.00  0.00    +0.121 C 
ATOM     34  C   UNL     1      -7.546   5.483  71.814  0.00  0.00    +0.318 C 
ATOM     35  O   UNL     1      -6.715   5.049  70.960  0.00  0.00    -0.250 OA
ENDBRANCH  32  34
ENDBRANCH   1  32
TORSDOF 5
ENDMDL
