MODEL 1
REMARK VINA RESULT:      -7.4      0.000      0.000
REMARK  Name = 
REMARK  5 active torsions:
REMARK  status: ('A' for Active; 'I' for Inactive)
REMARK    1  A    between atoms: C_7  and  O_8
REMARK    2  A    between atoms: O_8  and  C_9
REMARK    3  A    between atoms: C_9  and  C_11
REMARK    4  A    between atoms: C_11  and  C_13
REMARK    5  A    between atoms: C_11  and  C_19
REMARK                            x       y       z     vdW  Elec       q    Type
REMARK                         _______ _______ _______ _____ _____    ______ ____
ROOT
ATOM      1  C   UNL     1     -10.418  15.379  67.415  0.00  0.00    +0.252 C 
ATOM      2  O   UNL     1      -9.455  14.528  67.945  0.00  0.00    -0.205 OA
ENDROOT
BRANCH   1   3
ATOM      3  C   UNL     1      -9.778  16.661  67.065  0.00  0.00    +0.019 A 
ATOM      4  C   UNL     1     -10.459  17.486  66.179  0.00  0.00    -0.001 A 
ATOM      5  C   UNL     1     -10.135  18.833  66.090  0.00  0.00    -0.000 A 
ATOM      6  C   UNL     1      -8.887  19.174  66.596  0.00  0.00    -0.000 A 
ATOM      7  C   UNL     1      -7.992  18.202  67.004  0.00  0.00    -0.000 A 
ATOM      8  C   UNL     1      -8.437  16.922  67.231  0.00  0.00    -0.001 A 
ENDBRANCH   1   3
BRANCH   1   9
ATOM      9  C   UNL     1     -10.976  14.712  66.203  0.00  0.00    +0.019 A 
ATOM     10  C   UNL     1     -10.058  14.030  65.415  0.00  0.00    -0.001 A 
ATOM     11  C   UNL     1     -10.466  13.168  64.413  0.00  0.00    -0.000 A 
ATOM     12  C   UNL     1     -11.777  12.745  64.418  0.00  0.00    -0.000 A 
ATOM     13  C   UNL     1     -12.637  13.198  65.402  0.00  0.00    -0.000 A 
ATOM     14  C   UNL     1     -12.263  14.235  66.246  0.00  0.00    -0.001 A 
ENDBRANCH   1   9
BRANCH   1  15
ATOM     15  C   UNL     1     -11.466  15.528  68.465  0.00  0.00    +0.353 C 
ATOM     16  O   UNL     1     -11.711  16.717  68.836  0.00  0.00    -0.247 OA
BRANCH  15  17
ATOM     17  O   UNL     1     -11.350  14.651  69.554  0.00  0.00    -0.444 OA
BRANCH  17  21
ATOM     18  C   UNL     1     -12.583  14.858  72.900  0.00  0.00    +0.171 C 
ATOM     19  N   UNL     1     -12.577  14.857  72.861  0.00  0.00    +0.309 N 
ATOM     20  C   UNL     1     -11.675  15.105  71.789  0.00  0.00    +0.153 C 
ATOM     21  C   UNL     1     -12.578  14.659  70.485  0.00  0.00    +0.224 C 
ATOM     22  C   UNL     1     -12.394  13.061  70.829  0.00  0.00    +0.056 C 
ATOM     23  C   UNL     1     -13.363  12.800  71.964  0.00  0.00    +0.065 C 
ATOM     24  C   UNL     1     -13.762  14.131  72.561  0.00  0.00    +0.109 C 
ATOM     25  C   UNL     1     -12.638  15.826  73.905  0.00  0.00    +0.171 C 
ENDBRANCH  17  21
ENDBRANCH  15  17
ENDBRANCH   1  15
TORSDOF 5
ENDMDL
MODEL 2
REMARK VINA RESULT:      -7.1      2.253      3.700
REMARK  Name = 
REMARK  5 active torsions:
REMARK  status: ('A' for Active; 'I' for Inactive)
REMARK    1  A    between atoms: C_7  and  O_8
REMARK    2  A    between atoms: O_8  and  C_9
REMARK    3  A    between atoms: C_9  and  C_11
REMARK    4  A    between atoms: C_11  and  C_13
REMARK    5  A    between atoms: C_11  and  C_19
REMARK                            x       y       z     vdW  Elec       q    Type
REMARK                         _______ _______ _______ _____ _____    ______ ____
ROOT
ATOM      1  C   UNL     1     -10.588  13.966  67.909  0.00  0.00    +0.252 C 
ATOM      2  O   UNL     1      -9.296  14.471  67.806  0.00  0.00    -0.205 OA
ENDROOT
BRANCH   1   3
ATOM      3  C   UNL     1     -11.132  13.774  66.552  0.00  0.00    +0.019 A 
ATOM      4  C   UNL     1     -10.217  13.677  65.512  0.00  0.00    -0.001 A 
ATOM      5  C   UNL     1     -10.599  13.128  64.294  0.00  0.00    -0.000 A 
ATOM      6  C   UNL     1     -11.970  13.090  64.070  0.00  0.00    -0.000 A 
ATOM      7  C   UNL     1     -12.853  13.704  64.938  0.00  0.00    -0.000 A 
ATOM      8  C   UNL     1     -12.429  14.065  66.195  0.00  0.00    -0.001 A 
ENDBRANCH   1   3
BRANCH   1   9
ATOM      9  C   UNL     1     -10.496  12.667  68.636  0.00  0.00    +0.019 A 
ATOM     10  C   UNL     1     -11.662  11.912  68.671  0.00  0.00    -0.001 A 
ATOM     11  C   UNL     1     -11.656  10.593  69.087  0.00  0.00    -0.000 A 
ATOM     12  C   UNL     1     -10.444   9.943  69.156  0.00  0.00    -0.000 A 
ATOM     13  C   UNL     1      -9.285  10.620  68.825  0.00  0.00    -0.000 A 
ATOM     14  C   UNL     1      -9.298  11.996  68.640  0.00  0.00    -0.001 A 
ENDBRANCH   1   9
BRANCH   1  15
ATOM     15  C   UNL     1     -11.362  14.962  68.703  0.00  0.00    +0.353 C 
ATOM     16  O   UNL     1     -11.269  16.168  68.317  0.00  0.00    -0.247 OA
BRANCH  15  17
ATOM     17  O   UNL     1     -11.237  14.843  70.095  0.00  0.00    -0.444 OA
BRANCH  17  21
ATOM     18  C   UNL     1     -12.772  15.456  73.263  0.00  0.00    +0.171 C 
ATOM     19  N   UNL     1     -12.759  15.455  73.225  0.00  0.00    +0.309 N 
ATOM     20  C   UNL     1     -11.692  15.160  72.332  0.00  0.00    +0.153 C 
ATOM     21  C   UNL     1     -12.355  15.559  70.878  0.00  0.00    +0.224 C 
ATOM     22  C   UNL     1     -13.297  14.210  70.870  0.00  0.00    +0.056 C 
ATOM     23  C   UNL     1     -14.436  14.534  71.814  0.00  0.00    +0.065 C 
ATOM     24  C   UNL     1     -14.032  15.725  72.652  0.00  0.00    +0.109 C 
ATOM     25  C   UNL     1     -12.429  16.108  74.449  0.00  0.00    +0.171 C 
ENDBRANCH  17  21
ENDBRANCH  15  17
ENDBRANCH   1  15
TORSDOF 5
ENDMDL
MODEL 3
REMARK VINA RESULT:      -7.1      1.193      3.902
REMARK  Name = 
REMARK  5 active torsions:
REMARK  status: ('A' for Active; 'I' for Inactive)
REMARK    1  A    between atoms: C_7  and  O_8
REMARK    2  A    between atoms: O_8  and  C_9
REMARK    3  A    between atoms: C_9  and  C_11
REMARK    4  A    between atoms: C_11  and  C_13
REMARK    5  A    between atoms: C_11  and  C_19
REMARK                            x       y       z     vdW  Elec       q    Type
REMARK                         _______ _______ _______ _____ _____    ______ ____
ROOT
ATOM      1  C   UNL     1     -10.846  16.295  68.277  0.00  0.00    +0.252 C 
ATOM      2  O   UNL     1     -12.173  16.602  68.556  0.00  0.00    -0.205 OA
ENDROOT
BRANCH   1   3
ATOM      3  C   UNL     1     -10.809  15.249  67.237  0.00  0.00    +0.019 A 
ATOM      4  C   UNL     1     -11.898  14.390  67.166  0.00  0.00    -0.001 A 
ATOM      5  C   UNL     1     -12.126  13.645  66.016  0.00  0.00    -0.000 A 
ATOM      6  C   UNL     1     -11.027  13.507  65.177  0.00  0.00    -0.000 A 
ATOM      7  C   UNL     1      -9.775  13.950  65.560  0.00  0.00    -0.000 A 
ATOM      8  C   UNL     1      -9.657  14.824  66.614  0.00  0.00    -0.001 A 
ENDBRANCH   1   3
BRANCH   1   9
ATOM      9  C   UNL     1     -10.196  17.549  67.796  0.00  0.00    +0.019 A 
ATOM     10  C   UNL     1     -10.586  17.984  66.536  0.00  0.00    -0.001 A 
ATOM     11  C   UNL     1     -10.259  19.247  66.075  0.00  0.00    -0.000 A 
ATOM     12  C   UNL     1      -9.829  20.179  66.993  0.00  0.00    -0.000 A 
ATOM     13  C   UNL     1      -9.726  19.827  68.327  0.00  0.00    -0.000 A 
ATOM     14  C   UNL     1      -9.834  18.499  68.719  0.00  0.00    -0.001 A 
ENDBRANCH   1   9
BRANCH   1  15
ATOM     15  C   UNL     1     -10.241  15.848  69.564  0.00  0.00    +0.353 C 
ATOM     16  O   UNL     1      -9.033  15.462  69.501  0.00  0.00    -0.247 OA
BRANCH  15  17
ATOM     17  O   UNL     1     -11.033  14.976  70.326  0.00  0.00    -0.444 OA
BRANCH  17  21
ATOM     18  C   UNL     1     -12.744  15.345  73.441  0.00  0.00    +0.171 C 
ATOM     19  N   UNL     1     -12.728  15.347  73.403  0.00  0.00    +0.309 N 
ATOM     20  C   UNL     1     -11.624  15.069  72.551  0.00  0.00    +0.153 C 
ATOM     21  C   UNL     1     -12.148  15.688  71.117  0.00  0.00    +0.224 C 
ATOM     22  C   UNL     1     -13.186  14.432  70.885  0.00  0.00    +0.056 C 
ATOM     23  C   UNL     1     -14.363  14.739  71.788  0.00  0.00    +0.065 C 
ATOM     24  C   UNL     1     -13.932  15.787  72.788  0.00  0.00    +0.109 C 
ATOM     25  C   UNL     1     -12.440  15.823  74.716  0.00  0.00    +0.171 C 
ENDBRANCH  17  21
ENDBRANCH  15  17
ENDBRANCH   1  15
TORSDOF 5
ENDMDL
MODEL 4
REMARK VINA RESULT:      -6.9      2.281      6.053
REMARK  Name = 
REMARK  5 active torsions:
REMARK  status: ('A' for Active; 'I' for Inactive)
REMARK    1  A    between atoms: C_7  and  O_8
REMARK    2  A    between atoms: O_8  and  C_9
REMARK    3  A    between atoms: C_9  and  C_11
REMARK    4  A    between atoms: C_11  and  C_13
REMARK    5  A    between atoms: C_11  and  C_19
REMARK                            x       y       z     vdW  Elec       q    Type
REMARK                         _______ _______ _______ _____ _____    ______ ____
ROOT
ATOM      1  C   UNL     1     -11.647  15.417  69.249  0.00  0.00    +0.252 C 
ATOM      2  O   UNL     1     -12.465  16.343  68.612  0.00  0.00    -0.205 OA
ENDROOT
BRANCH   1   3
ATOM      3  C   UNL     1     -12.064  15.304  70.659  0.00  0.00    +0.019 A 
ATOM      4  C   UNL     1     -13.119  14.445  70.938  0.00  0.00    -0.001 A 
ATOM      5  C   UNL     1     -13.327  13.992  72.235  0.00  0.00    -0.000 A 
ATOM      6  C   UNL     1     -12.714  14.747  73.227  0.00  0.00    -0.000 A 
ATOM      7  C   UNL     1     -12.086  15.943  72.931  0.00  0.00    -0.000 A 
ATOM      8  C   UNL     1     -11.766  16.236  71.627  0.00  0.00    -0.001 A 
ENDBRANCH   1   3
BRANCH   1   9
ATOM      9  C   UNL     1     -11.816  14.117  68.536  0.00  0.00    +0.019 A 
ATOM     10  C   UNL     1     -11.978  14.202  67.159  0.00  0.00    -0.001 A 
ATOM     11  C   UNL     1     -11.895  13.082  66.351  0.00  0.00    -0.000 A 
ATOM     12  C   UNL     1     -11.332  11.943  66.882  0.00  0.00    -0.000 A 
ATOM     13  C   UNL     1     -10.884  11.948  68.190  0.00  0.00    -0.000 A 
ATOM     14  C   UNL     1     -11.193  13.002  69.040  0.00  0.00    -0.001 A 
ENDBRANCH   1   9
BRANCH   1  15
ATOM     15  C   UNL     1     -10.252  15.921  69.101  0.00  0.00    +0.353 C 
ATOM     16  O   UNL     1      -9.390  15.392  69.869  0.00  0.00    -0.247 OA
BRANCH  15  17
ATOM     17  O   UNL     1     -10.123  17.317  69.048  0.00  0.00    -0.444 OA
BRANCH  17  21
ATOM     18  C   UNL     1      -8.135  19.899  67.583  0.00  0.00    +0.171 C 
ATOM     19  N   UNL     1      -8.156  19.866  67.594  0.00  0.00    +0.309 N 
ATOM     20  C   UNL     1      -8.669  19.059  68.646  0.00  0.00    +0.153 C 
ATOM     21  C   UNL     1      -9.358  17.818  67.808  0.00  0.00    +0.224 C 
ATOM     22  C   UNL     1     -10.625  18.758  67.341  0.00  0.00    +0.056 C 
ATOM     23  C   UNL     1     -10.075  19.608  66.214  0.00  0.00    +0.065 C 
ATOM     24  C   UNL     1      -8.566  19.549  66.269  0.00  0.00    +0.109 C 
ATOM     25  C   UNL     1      -6.857  20.428  67.770  0.00  0.00    +0.171 C 
ENDBRANCH  17  21
ENDBRANCH  15  17
ENDBRANCH   1  15
TORSDOF 5
ENDMDL
MODEL 5
REMARK VINA RESULT:      -6.9      2.410      6.062
REMARK  Name = 
REMARK  5 active torsions:
REMARK  status: ('A' for Active; 'I' for Inactive)
REMARK    1  A    between atoms: C_7  and  O_8
REMARK    2  A    between atoms: O_8  and  C_9
REMARK    3  A    between atoms: C_9  and  C_11
REMARK    4  A    between atoms: C_11  and  C_13
REMARK    5  A    between atoms: C_11  and  C_19
REMARK                            x       y       z     vdW  Elec       q    Type
REMARK                         _______ _______ _______ _____ _____    ______ ____
ROOT
ATOM      1  C   UNL     1     -10.512  14.046  66.807  0.00  0.00    +0.252 C 
ATOM      2  O   UNL     1      -9.234  13.684  67.218  0.00  0.00    -0.205 OA
ENDROOT
BRANCH   1   3
ATOM      3  C   UNL     1     -10.918  13.170  65.692  0.00  0.00    +0.019 A 
ATOM      4  C   UNL     1     -12.280  13.023  65.468  0.00  0.00    -0.001 A 
ATOM      5  C   UNL     1     -12.740  12.545  64.248  0.00  0.00    -0.000 A 
ATOM      6  C   UNL     1     -11.795  11.868  63.486  0.00  0.00    -0.000 A 
ATOM      7  C   UNL     1     -10.547  11.568  63.999  0.00  0.00    -0.000 A 
ATOM      8  C   UNL     1     -10.102  12.217  65.126  0.00  0.00    -0.001 A 
ENDBRANCH   1   3
BRANCH   1   9
ATOM      9  C   UNL     1     -11.417  13.872  67.979  0.00  0.00    +0.019 A 
ATOM     10  C   UNL     1     -11.252  12.695  68.699  0.00  0.00    -0.001 A 
ATOM     11  C   UNL     1     -11.840  12.517  69.938  0.00  0.00    -0.000 A 
ATOM     12  C   UNL     1     -12.319  13.630  70.592  0.00  0.00    -0.000 A 
ATOM     13  C   UNL     1     -12.210  14.873  69.995  0.00  0.00    -0.000 A 
ATOM     14  C   UNL     1     -11.832  14.988  68.664  0.00  0.00    -0.001 A 
ENDBRANCH   1   9
BRANCH   1  15
ATOM     15  C   UNL     1     -10.432  15.481  66.411  0.00  0.00    +0.353 C 
ATOM     16  O   UNL     1     -10.554  15.719  65.169  0.00  0.00    -0.247 OA
BRANCH  15  17
ATOM     17  O   UNL     1      -9.372  16.201  66.982  0.00  0.00    -0.444 OA
BRANCH  17  21
ATOM     18  C   UNL     1      -7.995  19.451  67.534  0.00  0.00    +0.171 C 
ATOM     19  N   UNL     1      -8.013  19.417  67.521  0.00  0.00    +0.309 N 
ATOM     20  C   UNL     1      -8.027  17.995  67.513  0.00  0.00    +0.153 C 
ATOM     21  C   UNL     1      -9.332  17.681  66.557  0.00  0.00    +0.224 C 
ATOM     22  C   UNL     1     -10.383  18.106  67.749  0.00  0.00    +0.056 C 
ATOM     23  C   UNL     1     -10.371  19.621  67.746  0.00  0.00    +0.065 C 
ATOM     24  C   UNL     1      -9.150  20.083  66.986  0.00  0.00    +0.109 C 
ATOM     25  C   UNL     1      -6.747  20.062  67.400  0.00  0.00    +0.171 C 
ENDBRANCH  17  21
ENDBRANCH  15  17
ENDBRANCH   1  15
TORSDOF 5
ENDMDL
MODEL 6
REMARK VINA RESULT:      -6.7      2.452      5.952
REMARK  Name = 
REMARK  5 active torsions:
REMARK  status: ('A' for Active; 'I' for Inactive)
REMARK    1  A    between atoms: C_7  and  O_8
REMARK    2  A    between atoms: O_8  and  C_9
REMARK    3  A    between atoms: C_9  and  C_11
REMARK    4  A    between atoms: C_11  and  C_13
REMARK    5  A    between atoms: C_11  and  C_19
REMARK                            x       y       z     vdW  Elec       q    Type
REMARK                         _______ _______ _______ _____ _____    ______ ____
ROOT
ATOM      1  C   UNL     1     -11.199  13.488  67.084  0.00  0.00    +0.252 C 
ATOM      2  O   UNL     1     -12.050  14.563  66.850  0.00  0.00    -0.205 OA
ENDROOT
BRANCH   1   3
ATOM      3  C   UNL     1     -11.603  12.827  68.339  0.00  0.00    +0.019 A 
ATOM      4  C   UNL     1     -11.791  11.452  68.297  0.00  0.00    -0.001 A 
ATOM      5  C   UNL     1     -11.795  10.711  69.472  0.00  0.00    -0.000 A 
ATOM      6  C   UNL     1     -12.016  11.446  70.630  0.00  0.00    -0.000 A 
ATOM      7  C   UNL     1     -12.363  12.784  70.573  0.00  0.00    -0.000 A 
ATOM      8  C   UNL     1     -12.167  13.486  69.409  0.00  0.00    -0.001 A 
ENDBRANCH   1   3
BRANCH   1   9
ATOM      9  C   UNL     1     -11.334  12.560  65.924  0.00  0.00    +0.019 A 
ATOM     10  C   UNL     1     -12.384  12.831  65.055  0.00  0.00    -0.001 A 
ATOM     11  C   UNL     1     -12.476  12.215  63.820  0.00  0.00    -0.000 A 
ATOM     12  C   UNL     1     -11.357  11.582  63.328  0.00  0.00    -0.000 A 
ATOM     13  C   UNL     1     -10.194  11.569  64.077  0.00  0.00    -0.000 A 
ATOM     14  C   UNL     1     -10.201  11.988  65.401  0.00  0.00    -0.001 A 
ENDBRANCH   1   9
BRANCH   1  15
ATOM     15  C   UNL     1      -9.821  14.053  67.149  0.00  0.00    +0.353 C 
ATOM     16  O   UNL     1      -9.327  14.168  68.313  0.00  0.00    -0.247 OA
BRANCH  15  17
ATOM     17  O   UNL     1      -9.608  15.200  66.371  0.00  0.00    -0.444 OA
BRANCH  17  21
ATOM     18  C   UNL     1      -9.594  18.760  66.677  0.00  0.00    +0.171 C 
ATOM     19  N   UNL     1      -9.592  18.720  66.680  0.00  0.00    +0.309 N 
ATOM     20  C   UNL     1     -10.100  17.450  66.290  0.00  0.00    +0.153 C 
ATOM     21  C   UNL     1      -9.172  16.430  67.192  0.00  0.00    +0.224 C 
ATOM     22  C   UNL     1      -7.861  16.674  66.228  0.00  0.00    +0.056 C 
ATOM     23  C   UNL     1      -7.319  18.023  66.655  0.00  0.00    +0.065 C 
ATOM     24  C   UNL     1      -8.393  18.736  67.444  0.00  0.00    +0.109 C 
ATOM     25  C   UNL     1     -10.537  19.764  66.905  0.00  0.00    +0.171 C 
ENDBRANCH  17  21
ENDBRANCH  15  17
ENDBRANCH   1  15
TORSDOF 5
ENDMDL
MODEL 7
REMARK VINA RESULT:      -6.6      2.301      5.843
REMARK  Name = 
REMARK  5 active torsions:
REMARK  status: ('A' for Active; 'I' for Inactive)
REMARK    1  A    between atoms: C_7  and  O_8
REMARK    2  A    between atoms: O_8  and  C_9
REMARK    3  A    between atoms: C_9  and  C_11
REMARK    4  A    between atoms: C_11  and  C_13
REMARK    5  A    between atoms: C_11  and  C_19
REMARK                            x       y       z     vdW  Elec       q    Type
REMARK                         _______ _______ _______ _____ _____    ______ ____
ROOT
ATOM      1  C   UNL     1     -11.143  14.728  68.185  0.00  0.00    +0.252 C 
ATOM      2  O   UNL     1     -12.076  15.665  68.614  0.00  0.00    -0.205 OA
ENDROOT
BRANCH   1   3
ATOM      3  C   UNL     1     -11.338  13.480  68.948  0.00  0.00    +0.019 A 
ATOM      4  C   UNL     1     -11.910  13.593  70.208  0.00  0.00    -0.001 A 
ATOM      5  C   UNL     1     -12.469  12.480  70.823  0.00  0.00    -0.000 A 
ATOM      6  C   UNL     1     -12.057  11.256  70.312  0.00  0.00    -0.000 A 
ATOM      7  C   UNL     1     -11.045  11.177  69.373  0.00  0.00    -0.000 A 
ATOM      8  C   UNL     1     -10.667  12.306  68.687  0.00  0.00    -0.001 A 
ENDBRANCH   1   3
BRANCH   1   9
ATOM      9  C   UNL     1     -11.380  14.506  66.729  0.00  0.00    +0.019 A 
ATOM     10  C   UNL     1     -10.241  14.322  65.954  0.00  0.00    -0.001 A 
ATOM     11  C   UNL     1     -10.320  13.864  64.651  0.00  0.00    -0.000 A 
ATOM     12  C   UNL     1     -11.501  13.286  64.240  0.00  0.00    -0.000 A 
ATOM     13  C   UNL     1     -12.561  13.194  65.124  0.00  0.00    -0.000 A 
ATOM     14  C   UNL     1     -12.531  13.868  66.338  0.00  0.00    -0.001 A 
ENDBRANCH   1   9
BRANCH   1  15
ATOM     15  C   UNL     1      -9.802  15.338  68.414  0.00  0.00    +0.353 C 
ATOM     16  O   UNL     1      -9.057  14.736  69.249  0.00  0.00    -0.247 OA
BRANCH  15  17
ATOM     17  O   UNL     1      -9.803  16.726  68.614  0.00  0.00    -0.444 OA
BRANCH  17  21
ATOM     18  C   UNL     1      -8.212  19.739  67.540  0.00  0.00    +0.171 C 
ATOM     19  N   UNL     1      -8.228  19.702  67.546  0.00  0.00    +0.309 N 
ATOM     20  C   UNL     1      -8.582  18.674  68.462  0.00  0.00    +0.153 C 
ATOM     21  C   UNL     1      -9.176  17.517  67.450  0.00  0.00    +0.224 C 
ATOM     22  C   UNL     1     -10.567  18.361  67.205  0.00  0.00    +0.056 C 
ATOM     23  C   UNL     1     -10.185  19.448  66.221  0.00  0.00    +0.065 C 
ATOM     24  C   UNL     1      -8.678  19.564  66.204  0.00  0.00    +0.109 C 
ATOM     25  C   UNL     1      -6.992  20.380  67.765  0.00  0.00    +0.171 C 
ENDBRANCH  17  21
ENDBRANCH  15  17
ENDBRANCH   1  15
TORSDOF 5
ENDMDL
MODEL 8
REMARK VINA RESULT:      -6.6      2.063      5.767
REMARK  Name = 
REMARK  5 active torsions:
REMARK  status: ('A' for Active; 'I' for Inactive)
REMARK    1  A    between atoms: C_7  and  O_8
REMARK    2  A    between atoms: O_8  and  C_9
REMARK    3  A    between atoms: C_9  and  C_11
REMARK    4  A    between atoms: C_11  and  C_13
REMARK    5  A    between atoms: C_11  and  C_19
REMARK                            x       y       z     vdW  Elec       q    Type
REMARK                         _______ _______ _______ _____ _____    ______ ____
ROOT
ATOM      1  C   UNL     1     -11.682  14.788  68.871  0.00  0.00    +0.252 C 
ATOM      2  O   UNL     1     -12.148  16.007  68.390  0.00  0.00    -0.205 OA
ENDROOT
BRANCH   1   3
ATOM      3  C   UNL     1     -12.410  14.458  70.110  0.00  0.00    +0.019 A 
ATOM      4  C   UNL     1     -12.915  15.519  70.848  0.00  0.00    -0.001 A 
ATOM      5  C   UNL     1     -13.911  15.302  71.792  0.00  0.00    -0.000 A 
ATOM      6  C   UNL     1     -14.043  13.986  72.216  0.00  0.00    -0.000 A 
ATOM      7  C   UNL     1     -13.135  13.016  71.833  0.00  0.00    -0.000 A 
ATOM      8  C   UNL     1     -12.294  13.256  70.773  0.00  0.00    -0.001 A 
ENDBRANCH   1   3
BRANCH   1   9
ATOM      9  C   UNL     1     -11.941  13.770  67.812  0.00  0.00    +0.019 A 
ATOM     10  C   UNL     1     -12.316  14.272  66.572  0.00  0.00    -0.001 A 
ATOM     11  C   UNL     1     -12.343  13.470  65.445  0.00  0.00    -0.000 A 
ATOM     12  C   UNL     1     -11.687  12.260  65.498  0.00  0.00    -0.000 A 
ATOM     13  C   UNL     1     -11.042  11.882  66.662  0.00  0.00    -0.000 A 
ATOM     14  C   UNL     1     -11.230  12.595  67.838  0.00  0.00    -0.001 A 
ENDBRANCH   1   9
BRANCH   1  15
ATOM     15  C   UNL     1     -10.218  14.959  69.091  0.00  0.00    +0.353 C 
ATOM     16  O   UNL     1      -9.871  15.270  70.273  0.00  0.00    -0.247 OA
BRANCH  15  17
ATOM     17  O   UNL     1      -9.554  15.732  68.127  0.00  0.00    -0.444 OA
BRANCH  17  21
ATOM     18  C   UNL     1      -8.885  19.191  67.530  0.00  0.00    +0.171 C 
ATOM     19  N   UNL     1      -8.891  19.153  67.544  0.00  0.00    +0.309 N 
ATOM     20  C   UNL     1      -9.582  17.919  67.401  0.00  0.00    +0.153 C 
ATOM     21  C   UNL     1      -8.996  17.059  68.678  0.00  0.00    +0.224 C 
ATOM     22  C   UNL     1      -7.549  16.821  67.932  0.00  0.00    +0.056 C 
ATOM     23  C   UNL     1      -6.814  18.136  68.097  0.00  0.00    +0.065 C 
ATOM     24  C   UNL     1      -7.821  19.196  68.480  0.00  0.00    +0.109 C 
ATOM     25  C   UNL     1      -9.634  20.351  67.330  0.00  0.00    +0.171 C 
ENDBRANCH  17  21
ENDBRANCH  15  17
ENDBRANCH   1  15
TORSDOF 5
ENDMDL
MODEL 9
REMARK VINA RESULT:      -6.4      3.671      5.679
REMARK  Name = 
REMARK  5 active torsions:
REMARK  status: ('A' for Active; 'I' for Inactive)
REMARK    1  A    between atoms: C_7  and  O_8
REMARK    2  A    between atoms: O_8  and  C_9
REMARK    3  A    between atoms: C_9  and  C_11
REMARK    4  A    between atoms: C_11  and  C_13
REMARK    5  A    between atoms: C_11  and  C_19
REMARK                            x       y       z     vdW  Elec       q    Type
REMARK                         _______ _______ _______ _____ _____    ______ ____
ROOT
ATOM      1  C   UNL     1     -10.975  11.375  67.812  0.00  0.00    +0.252 C 
ATOM      2  O   UNL     1     -12.318  11.188  68.124  0.00  0.00    -0.205 OA
ENDROOT
BRANCH   1   3
ATOM      3  C   UNL     1     -10.850  11.581  66.358  0.00  0.00    +0.019 A 
ATOM      4  C   UNL     1     -11.872  12.279  65.728  0.00  0.00    -0.001 A 
ATOM      5  C   UNL     1     -11.666  12.840  64.474  0.00  0.00    -0.000 A 
ATOM      6  C   UNL     1     -10.590  12.319  63.766  0.00  0.00    -0.000 A 
ATOM      7  C   UNL     1      -9.894  11.218  64.230  0.00  0.00    -0.000 A 
ATOM      8  C   UNL     1     -10.033  10.831  65.542  0.00  0.00    -0.001 A 
ENDBRANCH   1   3
BRANCH   1   9
ATOM      9  C   UNL     1     -10.513  12.577  68.564  0.00  0.00    +0.019 A 
ATOM     10  C   UNL     1      -9.386  13.210  68.055  0.00  0.00    -0.001 A 
ATOM     11  C   UNL     1      -8.999  14.463  68.496  0.00  0.00    -0.000 A 
ATOM     12  C   UNL     1      -9.915  15.210  69.202  0.00  0.00    -0.000 A 
ATOM     13  C   UNL     1     -11.171  14.690  69.456  0.00  0.00    -0.000 A 
ATOM     14  C   UNL     1     -11.446  13.352  69.208  0.00  0.00    -0.001 A 
ENDBRANCH   1   9
BRANCH   1  15
ATOM     15  C   UNL     1     -10.263  10.153  68.283  0.00  0.00    +0.353 C 
ATOM     16  O   UNL     1     -10.689   9.052  67.815  0.00  0.00    -0.247 OA
BRANCH  15  17
ATOM     17  O   UNL     1     -10.041  10.086  69.667  0.00  0.00    -0.444 OA
BRANCH  17  21
ATOM     18  C   UNL     1     -12.337   8.878  72.123  0.00  0.00    +0.171 C 
ATOM     19  N   UNL     1     -12.311   8.885  72.093  0.00  0.00    +0.309 N 
ATOM     20  C   UNL     1     -11.792   9.802  71.138  0.00  0.00    +0.153 C 
ATOM     21  C   UNL     1     -10.698   8.864  70.338  0.00  0.00    +0.224 C 
ATOM     22  C   UNL     1      -9.639   8.921  71.596  0.00  0.00    +0.056 C 
ATOM     23  C   UNL     1     -10.193   7.935  72.605  0.00  0.00    +0.065 C 
ATOM     24  C   UNL     1     -11.632   7.645  72.243  0.00  0.00    +0.109 C 
ATOM     25  C   UNL     1     -13.719   8.903  72.322  0.00  0.00    +0.171 C 
ENDBRANCH  17  21
ENDBRANCH  15  17
ENDBRANCH   1  15
TORSDOF 5
ENDMDL
