MODEL 1
REMARK VINA RESULT:      -7.1      0.000      0.000
REMARK  Name = 
REMARK  12 active torsions:
REMARK  status: ('A' for Active; 'I' for Inactive)
REMARK    1  A    between atoms: C_2  and  O_3
REMARK    2  A    between atoms: O_3  and  C_4
REMARK    3  A    between atoms: C_4  and  C_6
REMARK    4  A    between atoms: C_6  and  C_8
REMARK    5  A    between atoms: C_8  and  C_9
REMARK    6  A    between atoms: C_9  and  C_10
REMARK    7  A    between atoms: C_9  and  N_23
REMARK    8  A    between atoms: C_10  and  C_11
REMARK    9  A    between atoms: C_14  and  C_15
REMARK   10  A    between atoms: C_24  and  C_26
REMARK   11  A    between atoms: C_26  and  C_27
REMARK   12  A    between atoms: C_27  and  C_28
REMARK                            x       y       z     vdW  Elec       q    Type
REMARK                         _______ _______ _______ _____ _____    ______ ____
ROOT
ATOM      1  C   UNL     1     -10.690  14.677  67.077  0.00  0.00    +0.100 C 
ENDROOT
BRANCH   1   2
ATOM      2  N   UNL     1     -11.588  15.514  68.098  0.00  0.00    -0.207 NA
ATOM      3  C   UNL     1     -11.371  15.404  69.452  0.00  0.00    +0.242 C 
ATOM      4  O   UNL     1     -10.163  15.423  69.779  0.00  0.00    -0.273 OA
BRANCH   3   5
ATOM      5  C   UNL     1     -12.505  15.569  70.415  0.00  0.00    +0.099 C 
BRANCH   5   6
ATOM      6  C   UNL     1     -11.979  15.986  71.760  0.00  0.00    +0.124 C 
BRANCH   6   7
ATOM      7  C   UNL     1     -13.117  15.738  72.705  0.00  0.00    +0.365 C 
ATOM      8  O   UNL     1     -13.029  14.744  73.668  0.00  0.00    -0.246 OA
ATOM      9  O   UNL     1     -14.260  15.882  72.171  0.00  0.00    -0.246 OA
ENDBRANCH   6   7
ENDBRANCH   5   6
ENDBRANCH   3   5
ENDBRANCH   1   2
BRANCH   1  10
ATOM     10  C   UNL     1     -11.918  13.721  66.458  0.00  0.00    +0.033 C 
BRANCH  10  11
ATOM     11  C   UNL     1     -10.865  12.714  65.657  0.00  0.00    +0.101 C 
ATOM     12  C   UNL     1     -11.248  11.432  66.645  0.00  0.00    +0.012 C 
BRANCH  11  13
ATOM     13  C   UNL     1     -11.966  12.306  64.529  0.00  0.00    +0.316 C 
ATOM     14  O   UNL     1     -13.140  12.526  64.764  0.00  0.00    -0.250 OA
BRANCH  13  15
ATOM     15  O   UNL     1     -11.478  11.408  63.578  0.00  0.00    -0.449 OA
BRANCH  15  17
ATOM     16  C   UNL     1      -9.397  10.389  63.135  0.00  0.00    +0.051 C 
ATOM     17  C   UNL     1     -10.135  11.576  63.186  0.00  0.00    +0.209 C 
ENDBRANCH  15  17
ENDBRANCH  13  15
ENDBRANCH  11  13
ENDBRANCH  10  11
ENDBRANCH   1  10
BRANCH   1  18
ATOM     18  C   UNL     1     -10.905  15.831  65.886  0.00  0.00    +0.048 C 
BRANCH  18  19
ATOM     19  C   UNL     1      -9.987  16.902  66.342  0.00  0.00    -0.020 A 
ATOM     20  C   UNL     1      -8.620  16.659  66.398  0.00  0.00    -0.004 A 
ATOM     21  C   UNL     1      -7.797  17.774  66.373  0.00  0.00    -0.000 A 
ATOM     22  C   UNL     1      -8.268  19.025  66.688  0.00  0.00    -0.000 A 
ATOM     23  C   UNL     1      -9.621  19.268  66.507  0.00  0.00    -0.000 A 
ATOM     24  C   UNL     1     -10.455  18.202  66.193  0.00  0.00    -0.004 A 
BRANCH  22  25
ATOM     25  C   UNL     1      -7.520  19.971  67.529  0.00  0.00    -0.000 A 
ATOM     26  C   UNL     1      -7.315  19.738  68.877  0.00  0.00    -0.000 A 
ATOM     27  C   UNL     1      -6.124  20.028  69.473  0.00  0.00    +0.000 A 
ATOM     28  C   UNL     1      -5.131  20.724  68.794  0.00  0.00    +0.000 A 
ATOM     29  C   UNL     1      -5.464  21.262  67.557  0.00  0.00    +0.000 A 
ATOM     30  C   UNL     1      -6.638  20.860  66.931  0.00  0.00    -0.000 A 
ENDBRANCH  22  25
ENDBRANCH  18  19
ENDBRANCH   1  18
TORSDOF 12
ENDMDL
MODEL 2
REMARK VINA RESULT:      -7.0      3.331      7.598
REMARK  Name = 
REMARK  12 active torsions:
REMARK  status: ('A' for Active; 'I' for Inactive)
REMARK    1  A    between atoms: C_2  and  O_3
REMARK    2  A    between atoms: O_3  and  C_4
REMARK    3  A    between atoms: C_4  and  C_6
REMARK    4  A    between atoms: C_6  and  C_8
REMARK    5  A    between atoms: C_8  and  C_9
REMARK    6  A    between atoms: C_9  and  C_10
REMARK    7  A    between atoms: C_9  and  N_23
REMARK    8  A    between atoms: C_10  and  C_11
REMARK    9  A    between atoms: C_14  and  C_15
REMARK   10  A    between atoms: C_24  and  C_26
REMARK   11  A    between atoms: C_26  and  C_27
REMARK   12  A    between atoms: C_27  and  C_28
REMARK                            x       y       z     vdW  Elec       q    Type
REMARK                         _______ _______ _______ _____ _____    ______ ____
ROOT
ATOM      1  C   UNL     1     -10.871  14.811  66.792  0.00  0.00    +0.100 C 
ENDROOT
BRANCH   1   2
ATOM      2  N   UNL     1     -10.118  16.211  66.638  0.00  0.00    -0.207 NA
ATOM      3  C   UNL     1     -10.649  17.343  67.209  0.00  0.00    +0.242 C 
ATOM      4  O   UNL     1     -11.076  17.176  68.374  0.00  0.00    -0.273 OA
BRANCH   3   5
ATOM      5  C   UNL     1     -10.426  18.683  66.581  0.00  0.00    +0.099 C 
BRANCH   5   6
ATOM      6  C   UNL     1      -9.744  19.600  67.558  0.00  0.00    +0.124 C 
BRANCH   6   7
ATOM      7  C   UNL     1      -8.411  19.893  66.935  0.00  0.00    +0.365 C 
ATOM      8  O   UNL     1      -7.991  19.196  65.811  0.00  0.00    -0.246 OA
ATOM      9  O   UNL     1      -7.504  20.165  67.780  0.00  0.00    -0.246 OA
ENDBRANCH   6   7
ENDBRANCH   5   6
ENDBRANCH   3   5
ENDBRANCH   1   2
BRANCH   1  10
ATOM     10  C   UNL     1     -10.522  14.220  65.263  0.00  0.00    +0.033 C 
BRANCH  10  11
ATOM     11  C   UNL     1     -11.606  12.967  65.392  0.00  0.00    +0.101 C 
ATOM     12  C   UNL     1     -12.862  14.010  65.710  0.00  0.00    +0.012 C 
BRANCH  11  13
ATOM     13  C   UNL     1     -11.903  12.935  63.792  0.00  0.00    +0.316 C 
ATOM     14  O   UNL     1     -12.557  13.842  63.309  0.00  0.00    -0.250 OA
BRANCH  13  15
ATOM     15  O   UNL     1     -11.694  11.682  63.213  0.00  0.00    -0.449 OA
BRANCH  15  17
ATOM     16  C   UNL     1      -9.415  11.228  62.809  0.00  0.00    +0.051 C 
ATOM     17  C   UNL     1     -10.534  10.991  63.614  0.00  0.00    +0.209 C 
ENDBRANCH  15  17
ENDBRANCH  13  15
ENDBRANCH  11  13
ENDBRANCH  10  11
ENDBRANCH   1  10
BRANCH   1  18
ATOM     18  C   UNL     1      -9.503  14.105  67.444  0.00  0.00    +0.048 C 
BRANCH  18  19
ATOM     19  C   UNL     1     -10.096  13.149  68.410  0.00  0.00    -0.020 A 
ATOM     20  C   UNL     1     -11.274  13.478  69.071  0.00  0.00    -0.004 A 
ATOM     21  C   UNL     1     -12.009  12.418  69.577  0.00  0.00    -0.000 A 
ATOM     22  C   UNL     1     -11.444  11.184  69.790  0.00  0.00    -0.000 A 
ATOM     23  C   UNL     1     -10.338  10.842  69.027  0.00  0.00    -0.000 A 
ATOM     24  C   UNL     1      -9.753  11.815  68.225  0.00  0.00    -0.004 A 
BRANCH  22  25
ATOM     25  C   UNL     1     -11.705  10.385  70.996  0.00  0.00    -0.000 A 
ATOM     26  C   UNL     1     -12.943  10.387  71.613  0.00  0.00    -0.000 A 
ATOM     27  C   UNL     1     -13.483   9.242  72.119  0.00  0.00    +0.000 A 
ATOM     28  C   UNL     1     -12.743   8.069  72.190  0.00  0.00    +0.000 A 
ATOM     29  C   UNL     1     -11.389   8.150  71.891  0.00  0.00    +0.000 A 
ATOM     30  C   UNL     1     -10.893   9.295  71.276  0.00  0.00    -0.000 A 
ENDBRANCH  22  25
ENDBRANCH  18  19
ENDBRANCH   1  18
TORSDOF 12
ENDMDL
MODEL 3
REMARK VINA RESULT:      -7.0      3.847      8.389
REMARK  Name = 
REMARK  12 active torsions:
REMARK  status: ('A' for Active; 'I' for Inactive)
REMARK    1  A    between atoms: C_2  and  O_3
REMARK    2  A    between atoms: O_3  and  C_4
REMARK    3  A    between atoms: C_4  and  C_6
REMARK    4  A    between atoms: C_6  and  C_8
REMARK    5  A    between atoms: C_8  and  C_9
REMARK    6  A    between atoms: C_9  and  C_10
REMARK    7  A    between atoms: C_9  and  N_23
REMARK    8  A    between atoms: C_10  and  C_11
REMARK    9  A    between atoms: C_14  and  C_15
REMARK   10  A    between atoms: C_24  and  C_26
REMARK   11  A    between atoms: C_26  and  C_27
REMARK   12  A    between atoms: C_27  and  C_28
REMARK                            x       y       z     vdW  Elec       q    Type
REMARK                         _______ _______ _______ _____ _____    ______ ____
ROOT
ATOM      1  C   UNL     1     -11.142  13.226  67.703  0.00  0.00    +0.100 C 
ENDROOT
BRANCH   1   2
ATOM      2  N   UNL     1     -10.192  14.380  68.265  0.00  0.00    -0.207 NA
ATOM      3  C   UNL     1     -10.684  15.654  68.428  0.00  0.00    +0.242 C 
ATOM      4  O   UNL     1     -11.822  15.700  68.947  0.00  0.00    -0.273 OA
BRANCH   3   5
ATOM      5  C   UNL     1      -9.780  16.837  68.278  0.00  0.00    +0.099 C 
BRANCH   5   6
ATOM      6  C   UNL     1     -10.491  17.934  67.533  0.00  0.00    +0.124 C 
BRANCH   6   7
ATOM      7  C   UNL     1      -9.955  17.850  66.135  0.00  0.00    +0.365 C 
ATOM      8  O   UNL     1     -10.563  17.031  65.196  0.00  0.00    -0.246 OA
ATOM      9  O   UNL     1      -8.688  17.906  66.074  0.00  0.00    -0.246 OA
ENDBRANCH   6   7
ENDBRANCH   5   6
ENDBRANCH   3   5
ENDBRANCH   1   2
BRANCH   1  10
ATOM     10  C   UNL     1     -10.706  13.367  66.091  0.00  0.00    +0.033 C 
BRANCH  10  11
ATOM     11  C   UNL     1     -12.085  12.614  65.550  0.00  0.00    +0.101 C 
ATOM     12  C   UNL     1     -12.889  14.063  65.407  0.00  0.00    +0.012 C 
BRANCH  11  13
ATOM     13  C   UNL     1     -11.591  12.617  63.999  0.00  0.00    +0.316 C 
ATOM     14  O   UNL     1     -12.436  12.690  63.125  0.00  0.00    -0.250 OA
BRANCH  13  15
ATOM     15  O   UNL     1     -10.283  12.161  63.833  0.00  0.00    -0.449 OA
BRANCH  15  17
ATOM     16  C   UNL     1      -9.729   9.980  64.539  0.00  0.00    +0.051 C 
ATOM     17  C   UNL     1     -10.130  10.805  63.484  0.00  0.00    +0.209 C 
ENDBRANCH  15  17
ENDBRANCH  13  15
ENDBRANCH  11  13
ENDBRANCH  10  11
ENDBRANCH   1  10
BRANCH   1  18
ATOM     18  C   UNL     1      -9.965  12.071  67.984  0.00  0.00    +0.048 C 
BRANCH  18  19
ATOM     19  C   UNL     1     -10.633  11.204  68.983  0.00  0.00    -0.020 A 
ATOM     20  C   UNL     1      -9.944  10.129  69.533  0.00  0.00    -0.004 A 
ATOM     21  C   UNL     1     -10.414   9.657  70.748  0.00  0.00    -0.000 A 
ATOM     22  C   UNL     1     -11.688   9.930  71.184  0.00  0.00    -0.000 A 
ATOM     23  C   UNL     1     -12.301  11.077  70.704  0.00  0.00    -0.000 A 
ATOM     24  C   UNL     1     -11.682  11.788  69.684  0.00  0.00    -0.004 A 
BRANCH  22  25
ATOM     25  C   UNL     1     -12.549   8.919  71.816  0.00  0.00    -0.000 A 
ATOM     26  C   UNL     1     -13.871   9.184  72.125  0.00  0.00    -0.000 A 
ATOM     27  C   UNL     1     -14.842   8.246  71.939  0.00  0.00    +0.000 A 
ATOM     28  C   UNL     1     -14.523   6.938  71.596  0.00  0.00    +0.000 A 
ATOM     29  C   UNL     1     -13.180   6.583  71.623  0.00  0.00    +0.000 A 
ATOM     30  C   UNL     1     -12.212   7.577  71.708  0.00  0.00    -0.000 A 
ENDBRANCH  22  25
ENDBRANCH  18  19
ENDBRANCH   1  18
TORSDOF 12
ENDMDL
MODEL 4
REMARK VINA RESULT:      -6.9      4.354      9.350
REMARK  Name = 
REMARK  12 active torsions:
REMARK  status: ('A' for Active; 'I' for Inactive)
REMARK    1  A    between atoms: C_2  and  O_3
REMARK    2  A    between atoms: O_3  and  C_4
REMARK    3  A    between atoms: C_4  and  C_6
REMARK    4  A    between atoms: C_6  and  C_8
REMARK    5  A    between atoms: C_8  and  C_9
REMARK    6  A    between atoms: C_9  and  C_10
REMARK    7  A    between atoms: C_9  and  N_23
REMARK    8  A    between atoms: C_10  and  C_11
REMARK    9  A    between atoms: C_14  and  C_15
REMARK   10  A    between atoms: C_24  and  C_26
REMARK   11  A    between atoms: C_26  and  C_27
REMARK   12  A    between atoms: C_27  and  C_28
REMARK                            x       y       z     vdW  Elec       q    Type
REMARK                         _______ _______ _______ _____ _____    ______ ____
ROOT
ATOM      1  C   UNL     1     -10.968  13.223  68.834  0.00  0.00    +0.100 C 
ENDROOT
BRANCH   1   2
ATOM      2  N   UNL     1     -11.189  13.067  67.260  0.00  0.00    -0.207 NA
ATOM      3  C   UNL     1     -10.118  13.168  66.404  0.00  0.00    +0.242 C 
ATOM      4  O   UNL     1      -9.097  12.555  66.788  0.00  0.00    -0.273 OA
BRANCH   3   5
ATOM      5  C   UNL     1     -10.307  13.700  65.018  0.00  0.00    +0.099 C 
BRANCH   5   6
ATOM      6  C   UNL     1     -10.292  15.204  65.040  0.00  0.00    +0.124 C 
BRANCH   6   7
ATOM      7  C   UNL     1     -11.643  15.603  64.526  0.00  0.00    +0.365 C 
ATOM      8  O   UNL     1     -12.509  14.650  64.009  0.00  0.00    -0.246 OA
ATOM      9  O   UNL     1     -11.650  16.726  63.933  0.00  0.00    -0.246 OA
ENDBRANCH   6   7
ENDBRANCH   5   6
ENDBRANCH   3   5
ENDBRANCH   1   2
BRANCH   1  10
ATOM     10  C   UNL     1     -11.847  14.636  69.027  0.00  0.00    +0.033 C 
BRANCH  10  11
ATOM     11  C   UNL     1     -10.819  15.234  70.188  0.00  0.00    +0.101 C 
ATOM     12  C   UNL     1     -10.555  16.628  69.319  0.00  0.00    +0.012 C 
BRANCH  11  13
ATOM     13  C   UNL     1     -12.030  15.885  71.060  0.00  0.00    +0.316 C 
ATOM     14  O   UNL     1     -11.752  16.440  72.107  0.00  0.00    -0.250 OA
BRANCH  13  15
ATOM     15  O   UNL     1     -13.291  15.409  70.697  0.00  0.00    -0.449 OA
BRANCH  15  17
ATOM     16  C   UNL     1     -14.072  13.789  72.223  0.00  0.00    +0.051 C 
ATOM     17  C   UNL     1     -14.173  15.102  71.752  0.00  0.00    +0.209 C 
ENDBRANCH  15  17
ENDBRANCH  13  15
ENDBRANCH  11  13
ENDBRANCH  10  11
ENDBRANCH   1  10
BRANCH   1  18
ATOM     18  C   UNL     1     -12.307  12.274  69.153  0.00  0.00    +0.048 C 
BRANCH  18  19
ATOM     19  C   UNL     1     -11.701  11.150  69.906  0.00  0.00    -0.020 A 
ATOM     20  C   UNL     1     -12.266  10.742  71.108  0.00  0.00    -0.004 A 
ATOM     21  C   UNL     1     -11.971   9.452  71.518  0.00  0.00    -0.000 A 
ATOM     22  C   UNL     1     -10.890   8.766  71.020  0.00  0.00    -0.000 A 
ATOM     23  C   UNL     1     -10.426   9.122  69.763  0.00  0.00    -0.000 A 
ATOM     24  C   UNL     1     -10.950  10.255  69.153  0.00  0.00    -0.004 A 
BRANCH  22  25
ATOM     25  C   UNL     1      -9.997   7.961  71.866  0.00  0.00    -0.000 A 
ATOM     26  C   UNL     1      -8.666   8.296  72.039  0.00  0.00    -0.000 A 
ATOM     27  C   UNL     1      -8.059   8.175  73.254  0.00  0.00    +0.000 A 
ATOM     28  C   UNL     1      -8.698   7.554  74.319  0.00  0.00    +0.000 A 
ATOM     29  C   UNL     1      -9.900   6.910  74.052  0.00  0.00    +0.000 A 
ATOM     30  C   UNL     1     -10.544   7.140  72.842  0.00  0.00    -0.000 A 
ENDBRANCH  22  25
ENDBRANCH  18  19
ENDBRANCH   1  18
TORSDOF 12
ENDMDL
MODEL 5
REMARK VINA RESULT:      -6.9      4.617      9.970
REMARK  Name = 
REMARK  12 active torsions:
REMARK  status: ('A' for Active; 'I' for Inactive)
REMARK    1  A    between atoms: C_2  and  O_3
REMARK    2  A    between atoms: O_3  and  C_4
REMARK    3  A    between atoms: C_4  and  C_6
REMARK    4  A    between atoms: C_6  and  C_8
REMARK    5  A    between atoms: C_8  and  C_9
REMARK    6  A    between atoms: C_9  and  C_10
REMARK    7  A    between atoms: C_9  and  N_23
REMARK    8  A    between atoms: C_10  and  C_11
REMARK    9  A    between atoms: C_14  and  C_15
REMARK   10  A    between atoms: C_24  and  C_26
REMARK   11  A    between atoms: C_26  and  C_27
REMARK   12  A    between atoms: C_27  and  C_28
REMARK                            x       y       z     vdW  Elec       q    Type
REMARK                         _______ _______ _______ _____ _____    ______ ____
ROOT
ATOM      1  C   UNL     1     -11.044  12.155  68.437  0.00  0.00    +0.100 C 
ENDROOT
BRANCH   1   2
ATOM      2  N   UNL     1     -11.527  11.503  67.061  0.00  0.00    -0.207 NA
ATOM      3  C   UNL     1     -10.609  11.218  66.078  0.00  0.00    +0.242 C 
ATOM      4  O   UNL     1      -9.559  10.682  66.498  0.00  0.00    -0.273 OA
BRANCH   3   5
ATOM      5  C   UNL     1     -11.005  11.272  64.636  0.00  0.00    +0.099 C 
BRANCH   5   6
ATOM      6  C   UNL     1     -10.762  12.652  64.089  0.00  0.00    +0.124 C 
BRANCH   6   7
ATOM      7  C   UNL     1     -12.090  13.079  63.538  0.00  0.00    +0.365 C 
ATOM      8  O   UNL     1     -12.606  14.332  63.838  0.00  0.00    -0.246 OA
ATOM      9  O   UNL     1     -12.940  12.138  63.475  0.00  0.00    -0.246 OA
ENDBRANCH   6   7
ENDBRANCH   5   6
ENDBRANCH   3   5
ENDBRANCH   1   2
BRANCH   1  10
ATOM     10  C   UNL     1     -11.764  13.652  68.219  0.00  0.00    +0.033 C 
BRANCH  10  11
ATOM     11  C   UNL     1     -11.332  14.190  69.732  0.00  0.00    +0.101 C 
ATOM     12  C   UNL     1      -9.898  14.812  69.164  0.00  0.00    +0.012 C 
BRANCH  11  13
ATOM     13  C   UNL     1     -12.129  15.599  69.561  0.00  0.00    +0.316 C 
ATOM     14  O   UNL     1     -11.829  16.321  68.628  0.00  0.00    -0.250 OA
BRANCH  13  15
ATOM     15  O   UNL     1     -12.808  15.995  70.715  0.00  0.00    -0.449 OA
BRANCH  15  17
ATOM     16  C   UNL     1     -14.747  14.971  71.584  0.00  0.00    +0.051 C 
ATOM     17  C   UNL     1     -13.351  14.967  71.509  0.00  0.00    +0.209 C 
ENDBRANCH  15  17
ENDBRANCH  13  15
ENDBRANCH  11  13
ENDBRANCH  10  11
ENDBRANCH   1  10
BRANCH   1  18
ATOM     18  C   UNL     1     -12.388  11.556  69.233  0.00  0.00    +0.048 C 
BRANCH  18  19
ATOM     19  C   UNL     1     -11.798  10.441  70.012  0.00  0.00    -0.020 A 
ATOM     20  C   UNL     1     -10.444  10.152  69.885  0.00  0.00    -0.004 A 
ATOM     21  C   UNL     1      -9.866   9.451  70.931  0.00  0.00    -0.000 A 
ATOM     22  C   UNL     1     -10.624   8.730  71.822  0.00  0.00    -0.000 A 
ATOM     23  C   UNL     1     -11.940   9.121  72.011  0.00  0.00    -0.000 A 
ATOM     24  C   UNL     1     -12.476  10.092  71.174  0.00  0.00    -0.004 A 
BRANCH  22  25
ATOM     25  C   UNL     1     -10.245   7.389  72.289  0.00  0.00    -0.000 A 
ATOM     26  C   UNL     1      -9.830   7.165  73.590  0.00  0.00    -0.000 A 
ATOM     27  C   UNL     1     -10.217   6.051  74.274  0.00  0.00    +0.000 A 
ATOM     28  C   UNL     1     -10.898   5.019  73.641  0.00  0.00    +0.000 A 
ATOM     29  C   UNL     1     -11.013   5.086  72.258  0.00  0.00    +0.000 A 
ATOM     30  C   UNL     1     -10.709   6.275  71.604  0.00  0.00    -0.000 A 
ENDBRANCH  22  25
ENDBRANCH  18  19
ENDBRANCH   1  18
TORSDOF 12
ENDMDL
MODEL 6
REMARK VINA RESULT:      -6.9      1.779      5.621
REMARK  Name = 
REMARK  12 active torsions:
REMARK  status: ('A' for Active; 'I' for Inactive)
REMARK    1  A    between atoms: C_2  and  O_3
REMARK    2  A    between atoms: O_3  and  C_4
REMARK    3  A    between atoms: C_4  and  C_6
REMARK    4  A    between atoms: C_6  and  C_8
REMARK    5  A    between atoms: C_8  and  C_9
REMARK    6  A    between atoms: C_9  and  C_10
REMARK    7  A    between atoms: C_9  and  N_23
REMARK    8  A    between atoms: C_10  and  C_11
REMARK    9  A    between atoms: C_14  and  C_15
REMARK   10  A    between atoms: C_24  and  C_26
REMARK   11  A    between atoms: C_26  and  C_27
REMARK   12  A    between atoms: C_27  and  C_28
REMARK                            x       y       z     vdW  Elec       q    Type
REMARK                         _______ _______ _______ _____ _____    ______ ____
ROOT
ATOM      1  C   UNL     1      -9.971  16.308  66.862  0.00  0.00    +0.100 C 
ENDROOT
BRANCH   1   2
ATOM      2  N   UNL     1     -10.424  15.292  65.717  0.00  0.00    -0.207 NA
ATOM      3  C   UNL     1     -11.368  15.676  64.793  0.00  0.00    +0.242 C 
ATOM      4  O   UNL     1     -11.203  16.833  64.344  0.00  0.00    -0.273 OA
BRANCH   3   5
ATOM      5  C   UNL     1     -12.288  14.663  64.187  0.00  0.00    +0.099 C 
BRANCH   5   6
ATOM      6  C   UNL     1     -12.268  13.399  65.003  0.00  0.00    +0.124 C 
BRANCH   6   7
ATOM      7  C   UNL     1     -11.986  12.313  64.008  0.00  0.00    +0.365 C 
ATOM      8  O   UNL     1     -10.760  12.251  63.362  0.00  0.00    -0.246 OA
ATOM      9  O   UNL     1     -12.992  11.997  63.302  0.00  0.00    -0.246 OA
ENDBRANCH   6   7
ENDBRANCH   5   6
ENDBRANCH   3   5
ENDBRANCH   1   2
BRANCH   1  10
ATOM     10  C   UNL     1      -9.981  15.209  68.127  0.00  0.00    +0.033 C 
BRANCH  10  11
ATOM     11  C   UNL     1     -11.637  15.244  68.275  0.00  0.00    +0.101 C 
ATOM     12  C   UNL     1     -11.694  13.627  68.659  0.00  0.00    +0.012 C 
BRANCH  11  13
ATOM     13  C   UNL     1     -11.582  15.716  69.832  0.00  0.00    +0.316 C 
ATOM     14  O   UNL     1     -10.580  15.461  70.476  0.00  0.00    -0.250 OA
BRANCH  13  15
ATOM     15  O   UNL     1     -12.835  16.030  70.361  0.00  0.00    -0.449 OA
BRANCH  15  17
ATOM     16  C   UNL     1     -14.545  15.097  71.690  0.00  0.00    +0.051 C 
ATOM     17  C   UNL     1     -13.184  15.394  71.568  0.00  0.00    +0.209 C 
ENDBRANCH  15  17
ENDBRANCH  13  15
ENDBRANCH  11  13
ENDBRANCH  10  11
ENDBRANCH   1  10
BRANCH   1  18
ATOM     18  C   UNL     1      -8.358  16.012  66.537  0.00  0.00    +0.048 C 
BRANCH  18  19
ATOM     19  C   UNL     1      -7.698  17.098  67.301  0.00  0.00    -0.020 A 
ATOM     20  C   UNL     1      -6.311  17.135  67.387  0.00  0.00    -0.004 A 
ATOM     21  C   UNL     1      -5.749  18.365  67.690  0.00  0.00    -0.000 A 
ATOM     22  C   UNL     1      -6.483  19.371  68.270  0.00  0.00    -0.000 A 
ATOM     23  C   UNL     1      -7.854  19.368  68.064  0.00  0.00    -0.000 A 
ATOM     24  C   UNL     1      -8.434  18.268  67.444  0.00  0.00    -0.004 A 
BRANCH  22  25
ATOM     25  C   UNL     1      -5.967  20.206  69.364  0.00  0.00    -0.000 A 
ATOM     26  C   UNL     1      -6.367  20.013  70.674  0.00  0.00    -0.000 A 
ATOM     27  C   UNL     1      -5.481  20.109  71.706  0.00  0.00    +0.000 A 
ATOM     28  C   UNL     1      -4.187  20.571  71.502  0.00  0.00    +0.000 A 
ATOM     29  C   UNL     1      -3.888  21.093  70.249  0.00  0.00    +0.000 A 
ATOM     30  C   UNL     1      -4.767  20.883  69.194  0.00  0.00    -0.000 A 
ENDBRANCH  22  25
ENDBRANCH  18  19
ENDBRANCH   1  18
TORSDOF 12
ENDMDL
MODEL 7
REMARK VINA RESULT:      -6.8      2.308      2.857
REMARK  Name = 
REMARK  12 active torsions:
REMARK  status: ('A' for Active; 'I' for Inactive)
REMARK    1  A    between atoms: C_2  and  O_3
REMARK    2  A    between atoms: O_3  and  C_4
REMARK    3  A    between atoms: C_4  and  C_6
REMARK    4  A    between atoms: C_6  and  C_8
REMARK    5  A    between atoms: C_8  and  C_9
REMARK    6  A    between atoms: C_9  and  C_10
REMARK    7  A    between atoms: C_9  and  N_23
REMARK    8  A    between atoms: C_10  and  C_11
REMARK    9  A    between atoms: C_14  and  C_15
REMARK   10  A    between atoms: C_24  and  C_26
REMARK   11  A    between atoms: C_26  and  C_27
REMARK   12  A    between atoms: C_27  and  C_28
REMARK                            x       y       z     vdW  Elec       q    Type
REMARK                         _______ _______ _______ _____ _____    ______ ____
ROOT
ATOM      1  C   UNL     1     -10.684  14.336  68.037  0.00  0.00    +0.100 C 
ENDROOT
BRANCH   1   2
ATOM      2  N   UNL     1     -11.216  13.238  69.068  0.00  0.00    -0.207 NA
ATOM      3  C   UNL     1     -11.032  11.902  68.803  0.00  0.00    +0.242 C 
ATOM      4  O   UNL     1      -9.890  11.617  68.377  0.00  0.00    -0.273 OA
BRANCH   3   5
ATOM      5  C   UNL     1     -12.022  10.891  69.292  0.00  0.00    +0.099 C 
BRANCH   5   6
ATOM      6  C   UNL     1     -11.696  10.498  70.707  0.00  0.00    +0.124 C 
BRANCH   6   7
ATOM      7  C   UNL     1     -12.972  10.718  71.464  0.00  0.00    +0.365 C 
ATOM      8  O   UNL     1     -13.275  11.967  71.985  0.00  0.00    -0.246 OA
ATOM      9  O   UNL     1     -13.313   9.729  72.182  0.00  0.00    -0.246 OA
ENDBRANCH   6   7
ENDBRANCH   5   6
ENDBRANCH   3   5
ENDBRANCH   1   2
BRANCH   1  10
ATOM     10  C   UNL     1     -11.990  14.284  66.989  0.00  0.00    +0.033 C 
BRANCH  10  11
ATOM     11  C   UNL     1     -11.184  15.101  65.786  0.00  0.00    +0.101 C 
ATOM     12  C   UNL     1      -9.911  14.031  65.833  0.00  0.00    +0.012 C 
BRANCH  11  13
ATOM     13  C   UNL     1     -11.950  14.297  64.597  0.00  0.00    +0.316 C 
ATOM     14  O   UNL     1     -12.655  14.932  63.833  0.00  0.00    -0.250 OA
BRANCH  13  15
ATOM     15  O   UNL     1     -12.012  12.919  64.809  0.00  0.00    -0.449 OA
BRANCH  15  17
ATOM     16  C   UNL     1     -10.895  11.330  63.470  0.00  0.00    +0.051 C 
ATOM     17  C   UNL     1     -12.043  12.107  63.658  0.00  0.00    +0.209 C 
ENDBRANCH  15  17
ENDBRANCH  13  15
ENDBRANCH  11  13
ENDBRANCH  10  11
ENDBRANCH   1  10
BRANCH   1  18
ATOM     18  C   UNL     1     -11.375  15.566  68.934  0.00  0.00    +0.048 C 
BRANCH  18  19
ATOM     19  C   UNL     1     -10.345  16.627  68.824  0.00  0.00    -0.020 A 
ATOM     20  C   UNL     1      -9.003  16.304  68.986  0.00  0.00    -0.004 A 
ATOM     21  C   UNL     1      -8.089  17.186  68.432  0.00  0.00    -0.000 A 
ATOM     22  C   UNL     1      -8.434  18.478  68.116  0.00  0.00    -0.000 A 
ATOM     23  C   UNL     1      -9.767  18.740  67.844  0.00  0.00    -0.000 A 
ATOM     24  C   UNL     1     -10.705  17.742  68.076  0.00  0.00    -0.004 A 
BRANCH  22  25
ATOM     25  C   UNL     1      -7.565  19.628  68.404  0.00  0.00    -0.000 A 
ATOM     26  C   UNL     1      -6.691  19.626  69.477  0.00  0.00    -0.000 A 
ATOM     27  C   UNL     1      -5.440  20.156  69.372  0.00  0.00    +0.000 A 
ATOM     28  C   UNL     1      -5.053  20.868  68.243  0.00  0.00    +0.000 A 
ATOM     29  C   UNL     1      -6.039  21.169  67.311  0.00  0.00    +0.000 A 
ATOM     30  C   UNL     1      -7.270  20.527  67.389  0.00  0.00    -0.000 A 
ENDBRANCH  22  25
ENDBRANCH  18  19
ENDBRANCH   1  18
TORSDOF 12
ENDMDL
MODEL 8
REMARK VINA RESULT:      -6.8      2.052      5.664
REMARK  Name = 
REMARK  12 active torsions:
REMARK  status: ('A' for Active; 'I' for Inactive)
REMARK    1  A    between atoms: C_2  and  O_3
REMARK    2  A    between atoms: O_3  and  C_4
REMARK    3  A    between atoms: C_4  and  C_6
REMARK    4  A    between atoms: C_6  and  C_8
REMARK    5  A    between atoms: C_8  and  C_9
REMARK    6  A    between atoms: C_9  and  C_10
REMARK    7  A    between atoms: C_9  and  N_23
REMARK    8  A    between atoms: C_10  and  C_11
REMARK    9  A    between atoms: C_14  and  C_15
REMARK   10  A    between atoms: C_24  and  C_26
REMARK   11  A    between atoms: C_26  and  C_27
REMARK   12  A    between atoms: C_27  and  C_28
REMARK                            x       y       z     vdW  Elec       q    Type
REMARK                         _______ _______ _______ _____ _____    ______ ____
ROOT
ATOM      1  C   UNL     1      -9.771  16.562  68.200  0.00  0.00    +0.100 C 
ENDROOT
BRANCH   1   2
ATOM      2  N   UNL     1      -9.516  15.463  67.070  0.00  0.00    -0.207 NA
ATOM      3  C   UNL     1     -10.131  15.582  65.846  0.00  0.00    +0.242 C 
ATOM      4  O   UNL     1     -10.111  16.742  65.374  0.00  0.00    -0.273 OA
BRANCH   3   5
ATOM      5  C   UNL     1     -10.490  14.361  65.058  0.00  0.00    +0.099 C 
BRANCH   5   6
ATOM      6  C   UNL     1     -11.983  14.280  64.890  0.00  0.00    +0.124 C 
BRANCH   6   7
ATOM      7  C   UNL     1     -12.282  12.811  64.880  0.00  0.00    +0.365 C 
ATOM      8  O   UNL     1     -13.228  12.292  64.007  0.00  0.00    -0.246 OA
ATOM      9  O   UNL     1     -12.249  12.278  66.031  0.00  0.00    -0.246 OA
ENDBRANCH   6   7
ENDBRANCH   5   6
ENDBRANCH   3   5
ENDBRANCH   1   2
BRANCH   1  10
ATOM     10  C   UNL     1     -10.184  15.500  69.429  0.00  0.00    +0.033 C 
BRANCH  10  11
ATOM     11  C   UNL     1     -11.816  15.683  69.173  0.00  0.00    +0.101 C 
ATOM     12  C   UNL     1     -12.048  14.038  69.101  0.00  0.00    +0.012 C 
BRANCH  11  13
ATOM     13  C   UNL     1     -12.152  15.764  70.763  0.00  0.00    +0.316 C 
ATOM     14  O   UNL     1     -11.259  15.520  71.554  0.00  0.00    -0.250 OA
BRANCH  13  15
ATOM     15  O   UNL     1     -13.519  15.739  71.043  0.00  0.00    -0.449 OA
BRANCH  15  17
ATOM     16  C   UNL     1     -14.052  13.781  72.247  0.00  0.00    +0.051 C 
ATOM     17  C   UNL     1     -13.898  15.171  72.276  0.00  0.00    +0.209 C 
ENDBRANCH  15  17
ENDBRANCH  13  15
ENDBRANCH  11  13
ENDBRANCH  10  11
ENDBRANCH   1  10
BRANCH   1  18
ATOM     18  C   UNL     1      -8.157  16.537  68.639  0.00  0.00    +0.048 C 
BRANCH  18  19
ATOM     19  C   UNL     1      -7.591  17.574  67.742  0.00  0.00    -0.020 A 
ATOM     20  C   UNL     1      -6.751  17.200  66.700  0.00  0.00    -0.004 A 
ATOM     21  C   UNL     1      -6.634  18.100  65.653  0.00  0.00    -0.000 A 
ATOM     22  C   UNL     1      -6.971  19.424  65.800  0.00  0.00    -0.000 A 
ATOM     23  C   UNL     1      -7.903  19.747  66.773  0.00  0.00    -0.000 A 
ATOM     24  C   UNL     1      -8.312  18.760  67.661  0.00  0.00    -0.004 A 
BRANCH  22  25
ATOM     25  C   UNL     1      -6.153  20.519  65.258  0.00  0.00    -0.000 A 
ATOM     26  C   UNL     1      -5.111  21.072  65.981  0.00  0.00    -0.000 A 
ATOM     27  C   UNL     1      -3.939  21.421  65.378  0.00  0.00    +0.000 A 
ATOM     28  C   UNL     1      -3.807  21.396  63.995  0.00  0.00    +0.000 A 
ATOM     29  C   UNL     1      -4.957  21.174  63.250  0.00  0.00    +0.000 A 
ATOM     30  C   UNL     1      -6.106  20.716  63.885  0.00  0.00    -0.000 A 
ENDBRANCH  22  25
ENDBRANCH  18  19
ENDBRANCH   1  18
TORSDOF 12
ENDMDL
MODEL 9
REMARK VINA RESULT:      -6.8      4.534      9.644
REMARK  Name = 
REMARK  12 active torsions:
REMARK  status: ('A' for Active; 'I' for Inactive)
REMARK    1  A    between atoms: C_2  and  O_3
REMARK    2  A    between atoms: O_3  and  C_4
REMARK    3  A    between atoms: C_4  and  C_6
REMARK    4  A    between atoms: C_6  and  C_8
REMARK    5  A    between atoms: C_8  and  C_9
REMARK    6  A    between atoms: C_9  and  C_10
REMARK    7  A    between atoms: C_9  and  N_23
REMARK    8  A    between atoms: C_10  and  C_11
REMARK    9  A    between atoms: C_14  and  C_15
REMARK   10  A    between atoms: C_24  and  C_26
REMARK   11  A    between atoms: C_26  and  C_27
REMARK   12  A    between atoms: C_27  and  C_28
REMARK                            x       y       z     vdW  Elec       q    Type
REMARK                         _______ _______ _______ _____ _____    ______ ____
ROOT
ATOM      1  C   UNL     1     -10.932  12.679  68.868  0.00  0.00    +0.100 C 
ENDROOT
BRANCH   1   2
ATOM      2  N   UNL     1     -10.755  12.536  67.288  0.00  0.00    -0.207 NA
ATOM      3  C   UNL     1      -9.960  13.425  66.603  0.00  0.00    +0.242 C 
ATOM      4  O   UNL     1      -8.871  13.676  67.168  0.00  0.00    -0.273 OA
BRANCH   3   5
ATOM      5  C   UNL     1     -10.271  13.779  65.183  0.00  0.00    +0.099 C 
BRANCH   5   6
ATOM      6  C   UNL     1     -11.451  14.709  65.133  0.00  0.00    +0.124 C 
BRANCH   6   7
ATOM      7  C   UNL     1     -10.878  16.024  64.695  0.00  0.00    +0.365 C 
ATOM      8  O   UNL     1     -10.090  16.771  65.559  0.00  0.00    -0.246 OA
ATOM      9  O   UNL     1     -11.656  16.693  63.948  0.00  0.00    -0.246 OA
ENDBRANCH   6   7
ENDBRANCH   5   6
ENDBRANCH   3   5
ENDBRANCH   1   2
BRANCH   1  10
ATOM     10  C   UNL     1     -11.841  14.086  68.847  0.00  0.00    +0.033 C 
BRANCH  10  11
ATOM     11  C   UNL     1     -10.815  14.881  69.887  0.00  0.00    +0.101 C 
ATOM     12  C   UNL     1     -10.725  16.201  68.879  0.00  0.00    +0.012 C 
BRANCH  11  13
ATOM     13  C   UNL     1     -12.036  15.506  70.764  0.00  0.00    +0.316 C 
ATOM     14  O   UNL     1     -11.759  16.218  71.712  0.00  0.00    -0.250 OA
BRANCH  13  15
ATOM     15  O   UNL     1     -13.254  14.856  70.560  0.00  0.00    -0.449 OA
BRANCH  15  17
ATOM     16  C   UNL     1     -13.872  13.492  72.383  0.00  0.00    +0.051 C 
ATOM     17  C   UNL     1     -14.076  14.691  71.693  0.00  0.00    +0.209 C 
ENDBRANCH  15  17
ENDBRANCH  13  15
ENDBRANCH  11  13
ENDBRANCH  10  11
ENDBRANCH   1  10
BRANCH   1  18
ATOM     18  C   UNL     1     -12.303  11.721  68.837  0.00  0.00    +0.048 C 
BRANCH  18  19
ATOM     19  C   UNL     1     -11.913  10.617  69.747  0.00  0.00    -0.020 A 
ATOM     20  C   UNL     1     -10.590  10.193  69.789  0.00  0.00    -0.004 A 
ATOM     21  C   UNL     1     -10.197   9.521  70.935  0.00  0.00    -0.000 A 
ATOM     22  C   UNL     1     -11.112   8.946  71.783  0.00  0.00    -0.000 A 
ATOM     23  C   UNL     1     -12.394   9.473  71.801  0.00  0.00    -0.000 A 
ATOM     24  C   UNL     1     -12.739  10.424  70.848  0.00  0.00    -0.004 A 
BRANCH  22  25
ATOM     25  C   UNL     1     -10.922   7.614  72.376  0.00  0.00    -0.000 A 
ATOM     26  C   UNL     1     -11.306   6.463  71.711  0.00  0.00    -0.000 A 
ATOM     27  C   UNL     1     -10.539   5.337  71.747  0.00  0.00    +0.000 A 
ATOM     28  C   UNL     1      -9.436   5.244  72.586  0.00  0.00    +0.000 A 
ATOM     29  C   UNL     1      -9.250   6.267  73.508  0.00  0.00    +0.000 A 
ATOM     30  C   UNL     1      -9.976   7.445  73.377  0.00  0.00    -0.000 A 
ENDBRANCH  22  25
ENDBRANCH  18  19
ENDBRANCH   1  18
TORSDOF 12
ENDMDL
