MODEL 1
REMARK VINA RESULT:      -5.8      0.000      0.000
REMARK  Name = 
REMARK  9 active torsions:
REMARK  status: ('A' for Active; 'I' for Inactive)
REMARK    1  A    between atoms: C_2  and  C_3
REMARK    2  A    between atoms: C_3  and  C_4
REMARK    3  A    between atoms: C_4  and  N_5
REMARK    4  A    between atoms: N_5  and  C_6
REMARK    5  A    between atoms: C_9  and  C_10
REMARK    6  A    between atoms: C_10  and  O_12
REMARK    7  A    between atoms: O_12  and  C_13
REMARK    8  A    between atoms: C_13  and  C_14
REMARK    9  A    between atoms: C_14  and  N_15
REMARK                            x       y       z     vdW  Elec       q    Type
REMARK                         _______ _______ _______ _____ _____    ______ ____
ROOT
ATOM      1  C   UNL     1     -11.720  15.038  69.166  0.00  0.00    +0.065 A 
ATOM      2  C   UNL     1     -11.946  13.680  68.973  0.00  0.00    +0.016 A 
ATOM      3  C   UNL     1     -11.961  13.133  67.695  0.00  0.00    +0.008 A 
ATOM      4  C   UNL     1     -11.761  13.929  66.572  0.00  0.00    +0.076 A 
ATOM      5  C   UNL     1     -11.075  15.112  66.824  0.00  0.00    +0.008 A 
ATOM      6  C   UNL     1     -11.119  15.683  68.091  0.00  0.00    +0.016 A 
ENDROOT
BRANCH   4   7
ATOM      7  C   UNL     1     -12.593  13.773  65.369  0.00  0.00    +0.341 C 
ATOM      8  O   UNL     1     -12.769  14.716  64.547  0.00  0.00    -0.245 OA
BRANCH   7   9
ATOM      9  O   UNL     1     -12.849  12.500  64.849  0.00  0.00    -0.444 OA
BRANCH   9  10
ATOM     10  C   UNL     1     -12.349  12.249  63.545  0.00  0.00    +0.226 C 
BRANCH  10  11
ATOM     11  C   UNL     1     -10.835  12.157  63.648  0.00  0.00    +0.120 C 
BRANCH  11  12
ATOM     12  N   UNL     1     -10.537  10.759  63.954  0.00  0.00    -0.267 NA
ATOM     13  C   UNL     1      -9.887  10.727  65.248  0.00  0.00    +0.090 C 
ATOM     14  C   UNL     1      -9.626  10.301  62.908  0.00  0.00    +0.090 C 
ENDBRANCH  11  12
ENDBRANCH  10  11
ENDBRANCH   9  10
ENDBRANCH   7   9
ENDBRANCH   4   7
BRANCH   1  15
ATOM     15  N   UNL     1     -12.474  15.755  70.151  0.00  0.00    -0.238 NA
BRANCH  15  16
ATOM     16  C   UNL     1     -11.911  16.085  71.451  0.00  0.00    +0.112 C 
BRANCH  16  17
ATOM     17  C   UNL     1     -12.879  15.824  72.581  0.00  0.00    +0.023 C 
BRANCH  17  19
ATOM     18  C   UNL     1     -13.846  13.518  72.333  0.00  0.00    +0.000 C 
ATOM     19  C   UNL     1     -14.022  14.984  72.050  0.00  0.00    +0.002 C 
ENDBRANCH  17  19
ENDBRANCH  16  17
ENDBRANCH  15  16
ENDBRANCH   1  15
TORSDOF 9
ENDMDL
MODEL 2
REMARK VINA RESULT:      -5.5      3.027      5.837
REMARK  Name = 
REMARK  9 active torsions:
REMARK  status: ('A' for Active; 'I' for Inactive)
REMARK    1  A    between atoms: C_2  and  C_3
REMARK    2  A    between atoms: C_3  and  C_4
REMARK    3  A    between atoms: C_4  and  N_5
REMARK    4  A    between atoms: N_5  and  C_6
REMARK    5  A    between atoms: C_9  and  C_10
REMARK    6  A    between atoms: C_10  and  O_12
REMARK    7  A    between atoms: O_12  and  C_13
REMARK    8  A    between atoms: C_13  and  C_14
REMARK    9  A    between atoms: C_14  and  N_15
REMARK                            x       y       z     vdW  Elec       q    Type
REMARK                         _______ _______ _______ _____ _____    ______ ____
ROOT
ATOM      1  C   UNL     1     -11.570  12.041  66.212  0.00  0.00    +0.065 A 
ATOM      2  C   UNL     1     -11.819  13.080  67.102  0.00  0.00    +0.016 A 
ATOM      3  C   UNL     1     -11.905  14.395  66.661  0.00  0.00    +0.008 A 
ATOM      4  C   UNL     1     -11.733  14.712  65.317  0.00  0.00    +0.076 A 
ATOM      5  C   UNL     1     -11.979  13.658  64.443  0.00  0.00    +0.008 A 
ATOM      6  C   UNL     1     -11.830  12.347  64.881  0.00  0.00    +0.016 A 
ENDROOT
BRANCH   4   7
ATOM      7  C   UNL     1     -10.923  15.869  64.903  0.00  0.00    +0.341 C 
ATOM      8  O   UNL     1     -11.393  16.797  64.189  0.00  0.00    -0.245 OA
BRANCH   7   9
ATOM      9  O   UNL     1      -9.777  16.219  65.624  0.00  0.00    -0.444 OA
BRANCH   9  10
ATOM     10  C   UNL     1      -9.725  17.556  66.097  0.00  0.00    +0.226 C 
BRANCH  10  11
ATOM     11  C   UNL     1     -10.406  17.584  67.456  0.00  0.00    +0.120 C 
BRANCH  11  12
ATOM     12  N   UNL     1     -10.654  18.994  67.754  0.00  0.00    -0.267 NA
ATOM     13  C   UNL     1     -10.489  19.732  66.518  0.00  0.00    +0.090 C 
ATOM     14  C   UNL     1      -9.640  19.386  68.728  0.00  0.00    +0.090 C 
ENDBRANCH  11  12
ENDBRANCH  10  11
ENDBRANCH   9  10
ENDBRANCH   7   9
ENDBRANCH   4   7
BRANCH   1  15
ATOM     15  N   UNL     1     -10.687  10.977  66.584  0.00  0.00    -0.238 NA
BRANCH  15  16
ATOM     16  C   UNL     1     -10.979  10.100  67.708  0.00  0.00    +0.112 C 
BRANCH  16  17
ATOM     17  C   UNL     1     -10.223  10.492  68.955  0.00  0.00    +0.023 C 
BRANCH  17  19
ATOM     18  C   UNL     1     -12.146  11.228  70.396  0.00  0.00    +0.000 C 
ATOM     19  C   UNL     1     -11.089  10.185  70.159  0.00  0.00    +0.002 C 
ENDBRANCH  17  19
ENDBRANCH  16  17
ENDBRANCH  15  16
ENDBRANCH   1  15
TORSDOF 9
ENDMDL
MODEL 3
REMARK VINA RESULT:      -5.5      2.705      6.283
REMARK  Name = 
REMARK  9 active torsions:
REMARK  status: ('A' for Active; 'I' for Inactive)
REMARK    1  A    between atoms: C_2  and  C_3
REMARK    2  A    between atoms: C_3  and  C_4
REMARK    3  A    between atoms: C_4  and  N_5
REMARK    4  A    between atoms: N_5  and  C_6
REMARK    5  A    between atoms: C_9  and  C_10
REMARK    6  A    between atoms: C_10  and  O_12
REMARK    7  A    between atoms: O_12  and  C_13
REMARK    8  A    between atoms: C_13  and  C_14
REMARK    9  A    between atoms: C_14  and  N_15
REMARK                            x       y       z     vdW  Elec       q    Type
REMARK                         _______ _______ _______ _____ _____    ______ ____
ROOT
ATOM      1  C   UNL     1     -10.763  15.308  65.087  0.00  0.00    +0.065 A 
ATOM      2  C   UNL     1      -9.738  14.553  65.643  0.00  0.00    +0.016 A 
ATOM      3  C   UNL     1     -10.015  13.432  66.417  0.00  0.00    +0.008 A 
ATOM      4  C   UNL     1     -11.326  13.040  66.668  0.00  0.00    +0.076 A 
ATOM      5  C   UNL     1     -12.248  13.495  65.731  0.00  0.00    +0.008 A 
ATOM      6  C   UNL     1     -11.987  14.652  65.007  0.00  0.00    +0.016 A 
ENDROOT
BRANCH   4   7
ATOM      7  C   UNL     1     -11.752  12.614  68.010  0.00  0.00    +0.341 C 
ATOM      8  O   UNL     1     -12.179  11.448  68.241  0.00  0.00    -0.245 OA
BRANCH   7   9
ATOM      9  O   UNL     1     -11.299  13.298  69.143  0.00  0.00    -0.444 OA
BRANCH   9  10
ATOM     10  C   UNL     1     -11.958  14.520  69.435  0.00  0.00    +0.226 C 
BRANCH  10  11
ATOM     11  C   UNL     1     -12.809  14.293  70.674  0.00  0.00    +0.120 C 
BRANCH  11  12
ATOM     12  N   UNL     1     -13.132  15.623  71.189  0.00  0.00    -0.267 NA
ATOM     13  C   UNL     1     -11.958  16.116  71.880  0.00  0.00    +0.090 C 
ATOM     14  C   UNL     1     -14.239  15.437  72.123  0.00  0.00    +0.090 C 
ENDBRANCH  11  12
ENDBRANCH  10  11
ENDBRANCH   9  10
ENDBRANCH   7   9
ENDBRANCH   4   7
BRANCH   1  15
ATOM     15  N   UNL     1     -10.670  16.738  65.071  0.00  0.00    -0.238 NA
BRANCH  15  16
ATOM     16  C   UNL     1     -10.239  17.487  66.240  0.00  0.00    +0.112 C 
BRANCH  16  17
ATOM     17  C   UNL     1     -10.468  18.973  66.089  0.00  0.00    +0.023 C 
BRANCH  17  19
ATOM     18  C   UNL     1      -9.213  19.369  68.230  0.00  0.00    +0.000 C 
ATOM     19  C   UNL     1     -10.489  19.598  67.468  0.00  0.00    +0.002 C 
ENDBRANCH  17  19
ENDBRANCH  16  17
ENDBRANCH  15  16
ENDBRANCH   1  15
TORSDOF 9
ENDMDL
MODEL 4
REMARK VINA RESULT:      -5.5      2.986      5.226
REMARK  Name = 
REMARK  9 active torsions:
REMARK  status: ('A' for Active; 'I' for Inactive)
REMARK    1  A    between atoms: C_2  and  C_3
REMARK    2  A    between atoms: C_3  and  C_4
REMARK    3  A    between atoms: C_4  and  N_5
REMARK    4  A    between atoms: N_5  and  C_6
REMARK    5  A    between atoms: C_9  and  C_10
REMARK    6  A    between atoms: C_10  and  O_12
REMARK    7  A    between atoms: O_12  and  C_13
REMARK    8  A    between atoms: C_13  and  C_14
REMARK    9  A    between atoms: C_14  and  N_15
REMARK                            x       y       z     vdW  Elec       q    Type
REMARK                         _______ _______ _______ _____ _____    ______ ____
ROOT
ATOM      1  C   UNL     1     -11.106  13.999  68.375  0.00  0.00    +0.065 A 
ATOM      2  C   UNL     1     -12.095  13.996  67.398  0.00  0.00    +0.016 A 
ATOM      3  C   UNL     1     -11.856  14.528  66.137  0.00  0.00    +0.008 A 
ATOM      4  C   UNL     1     -10.624  15.089  65.817  0.00  0.00    +0.076 A 
ATOM      5  C   UNL     1      -9.569  14.639  66.604  0.00  0.00    +0.008 A 
ATOM      6  C   UNL     1      -9.814  14.166  67.889  0.00  0.00    +0.016 A 
ENDROOT
BRANCH   4   7
ATOM      7  C   UNL     1     -10.531  16.355  65.073  0.00  0.00    +0.341 C 
ATOM      8  O   UNL     1     -11.394  16.695  64.217  0.00  0.00    -0.245 OA
BRANCH   7   9
ATOM      9  O   UNL     1      -9.769  17.414  65.578  0.00  0.00    -0.444 OA
BRANCH   9  10
ATOM     10  C   UNL     1     -10.397  18.215  66.566  0.00  0.00    +0.226 C 
BRANCH  10  11
ATOM     11  C   UNL     1     -10.174  19.669  66.182  0.00  0.00    +0.120 C 
BRANCH  11  12
ATOM     12  N   UNL     1      -9.511  20.291  67.327  0.00  0.00    -0.267 NA
ATOM     13  C   UNL     1      -8.083  20.131  67.140  0.00  0.00    +0.090 C 
ATOM     14  C   UNL     1      -9.963  19.555  68.504  0.00  0.00    +0.090 C 
ENDBRANCH  11  12
ENDBRANCH  10  11
ENDBRANCH   9  10
ENDBRANCH   7   9
ENDBRANCH   4   7
BRANCH   1  15
ATOM     15  N   UNL     1     -11.445  14.294  69.735  0.00  0.00    -0.238 NA
BRANCH  15  16
ATOM     16  C   UNL     1     -12.145  15.516  70.099  0.00  0.00    +0.112 C 
BRANCH  16  17
ATOM     17  C   UNL     1     -12.888  15.386  71.407  0.00  0.00    +0.023 C 
BRANCH  17  19
ATOM     18  C   UNL     1     -12.652  15.842  73.867  0.00  0.00    +0.000 C 
ATOM     19  C   UNL     1     -12.056  16.026  72.499  0.00  0.00    +0.002 C 
ENDBRANCH  17  19
ENDBRANCH  16  17
ENDBRANCH  15  16
ENDBRANCH   1  15
TORSDOF 9
ENDMDL
MODEL 5
REMARK VINA RESULT:      -5.4      2.810      4.182
REMARK  Name = 
REMARK  9 active torsions:
REMARK  status: ('A' for Active; 'I' for Inactive)
REMARK    1  A    between atoms: C_2  and  C_3
REMARK    2  A    between atoms: C_3  and  C_4
REMARK    3  A    between atoms: C_4  and  N_5
REMARK    4  A    between atoms: N_5  and  C_6
REMARK    5  A    between atoms: C_9  and  C_10
REMARK    6  A    between atoms: C_10  and  O_12
REMARK    7  A    between atoms: O_12  and  C_13
REMARK    8  A    between atoms: C_13  and  C_14
REMARK    9  A    between atoms: C_14  and  N_15
REMARK                            x       y       z     vdW  Elec       q    Type
REMARK                         _______ _______ _______ _____ _____    ______ ____
ROOT
ATOM      1  C   UNL     1      -9.267  16.598  67.900  0.00  0.00    +0.065 A 
ATOM      2  C   UNL     1     -10.466  15.963  68.202  0.00  0.00    +0.016 A 
ATOM      3  C   UNL     1     -11.208  15.328  67.213  0.00  0.00    +0.008 A 
ATOM      4  C   UNL     1     -10.779  15.319  65.890  0.00  0.00    +0.076 A 
ATOM      5  C   UNL     1      -9.411  15.511  65.730  0.00  0.00    +0.008 A 
ATOM      6  C   UNL     1      -8.690  16.202  66.698  0.00  0.00    +0.016 A 
ENDROOT
BRANCH   4   7
ATOM      7  C   UNL     1     -11.715  15.566  64.782  0.00  0.00    +0.341 C 
ATOM      8  O   UNL     1     -11.531  16.487  63.939  0.00  0.00    -0.245 OA
BRANCH   7   9
ATOM      9  O   UNL     1     -12.578  14.553  64.351  0.00  0.00    -0.444 OA
BRANCH   9  10
ATOM     10  C   UNL     1     -12.210  13.230  64.709  0.00  0.00    +0.226 C 
BRANCH  10  11
ATOM     11  C   UNL     1     -11.603  12.578  63.476  0.00  0.00    +0.120 C 
BRANCH  11  12
ATOM     12  N   UNL     1     -10.231  12.228  63.841  0.00  0.00    -0.267 NA
ATOM     13  C   UNL     1      -9.810  11.154  62.964  0.00  0.00    +0.090 C 
ATOM     14  C   UNL     1     -10.284  11.770  65.226  0.00  0.00    +0.090 C 
ENDBRANCH  11  12
ENDBRANCH  10  11
ENDBRANCH   9  10
ENDBRANCH   7   9
ENDBRANCH   4   7
BRANCH   1  15
ATOM     15  N   UNL     1      -8.948  17.852  68.514  0.00  0.00    -0.238 NA
BRANCH  15  16
ATOM     16  C   UNL     1      -8.099  18.831  67.853  0.00  0.00    +0.112 C 
BRANCH  16  17
ATOM     17  C   UNL     1      -8.847  20.093  67.495  0.00  0.00    +0.023 C 
BRANCH  17  19
ATOM     18  C   UNL     1     -10.679  19.455  65.898  0.00  0.00    +0.000 C 
ATOM     19  C   UNL     1     -10.313  19.752  67.326  0.00  0.00    +0.002 C 
ENDBRANCH  17  19
ENDBRANCH  16  17
ENDBRANCH  15  16
ENDBRANCH   1  15
TORSDOF 9
ENDMDL
MODEL 6
REMARK VINA RESULT:      -5.3      2.935      5.569
REMARK  Name = 
REMARK  9 active torsions:
REMARK  status: ('A' for Active; 'I' for Inactive)
REMARK    1  A    between atoms: C_2  and  C_3
REMARK    2  A    between atoms: C_3  and  C_4
REMARK    3  A    between atoms: C_4  and  N_5
REMARK    4  A    between atoms: N_5  and  C_6
REMARK    5  A    between atoms: C_9  and  C_10
REMARK    6  A    between atoms: C_10  and  O_12
REMARK    7  A    between atoms: O_12  and  C_13
REMARK    8  A    between atoms: C_13  and  C_14
REMARK    9  A    between atoms: C_14  and  N_15
REMARK                            x       y       z     vdW  Elec       q    Type
REMARK                         _______ _______ _______ _____ _____    ______ ____
ROOT
ATOM      1  C   UNL     1     -11.521  12.205  66.201  0.00  0.00    +0.065 A 
ATOM      2  C   UNL     1     -12.494  12.805  65.409  0.00  0.00    +0.016 A 
ATOM      3  C   UNL     1     -12.234  13.990  64.731  0.00  0.00    +0.008 A 
ATOM      4  C   UNL     1     -10.996  14.617  64.833  0.00  0.00    +0.076 A 
ATOM      5  C   UNL     1      -9.954  13.772  65.200  0.00  0.00    +0.008 A 
ATOM      6  C   UNL     1     -10.221  12.620  65.932  0.00  0.00    +0.016 A 
ENDROOT
BRANCH   4   7
ATOM      7  C   UNL     1     -10.891  16.074  65.009  0.00  0.00    +0.341 C 
ATOM      8  O   UNL     1     -11.334  16.888  64.152  0.00  0.00    -0.245 OA
BRANCH   7   9
ATOM      9  O   UNL     1     -10.718  16.618  66.286  0.00  0.00    -0.444 OA
BRANCH   9  10
ATOM     10  C   UNL     1     -10.199  17.938  66.333  0.00  0.00    +0.226 C 
BRANCH  10  11
ATOM     11  C   UNL     1      -9.937  18.272  67.793  0.00  0.00    +0.120 C 
BRANCH  11  12
ATOM     12  N   UNL     1      -8.887  19.289  67.791  0.00  0.00    -0.267 NA
ATOM     13  C   UNL     1      -8.538  19.548  66.409  0.00  0.00    +0.090 C 
ATOM     14  C   UNL     1      -7.757  18.706  68.508  0.00  0.00    +0.090 C 
ENDBRANCH  11  12
ENDBRANCH  10  11
ENDBRANCH   9  10
ENDBRANCH   7   9
ENDBRANCH   4   7
BRANCH   1  15
ATOM     15  N   UNL     1     -11.882  11.620  67.457  0.00  0.00    -0.238 NA
BRANCH  15  16
ATOM     16  C   UNL     1     -11.226  12.007  68.696  0.00  0.00    +0.112 C 
BRANCH  16  17
ATOM     17  C   UNL     1     -12.018  13.033  69.471  0.00  0.00    +0.023 C 
BRANCH  17  19
ATOM     18  C   UNL     1     -10.181  14.689  69.025  0.00  0.00    +0.000 C 
ATOM     19  C   UNL     1     -11.657  14.410  68.953  0.00  0.00    +0.002 C 
ENDBRANCH  17  19
ENDBRANCH  16  17
ENDBRANCH  15  16
ENDBRANCH   1  15
TORSDOF 9
ENDMDL
MODEL 7
REMARK VINA RESULT:      -5.2      1.728      2.295
REMARK  Name = 
REMARK  9 active torsions:
REMARK  status: ('A' for Active; 'I' for Inactive)
REMARK    1  A    between atoms: C_2  and  C_3
REMARK    2  A    between atoms: C_3  and  C_4
REMARK    3  A    between atoms: C_4  and  N_5
REMARK    4  A    between atoms: N_5  and  C_6
REMARK    5  A    between atoms: C_9  and  C_10
REMARK    6  A    between atoms: C_10  and  O_12
REMARK    7  A    between atoms: O_12  and  C_13
REMARK    8  A    between atoms: C_13  and  C_14
REMARK    9  A    between atoms: C_14  and  N_15
REMARK                            x       y       z     vdW  Elec       q    Type
REMARK                         _______ _______ _______ _____ _____    ______ ____
ROOT
ATOM      1  C   UNL     1     -10.013  15.787  69.103  0.00  0.00    +0.065 A 
ATOM      2  C   UNL     1      -9.360  14.887  68.269  0.00  0.00    +0.016 A 
ATOM      3  C   UNL     1      -9.375  15.051  66.889  0.00  0.00    +0.008 A 
ATOM      4  C   UNL     1     -10.053  16.114  66.301  0.00  0.00    +0.076 A 
ATOM      5  C   UNL     1     -10.249  17.204  67.142  0.00  0.00    +0.008 A 
ATOM      6  C   UNL     1     -10.293  17.017  68.519  0.00  0.00    +0.016 A 
ENDROOT
BRANCH   4   7
ATOM      7  C   UNL     1     -10.884  15.920  65.103  0.00  0.00    +0.341 C 
ATOM      8  O   UNL     1     -11.187  16.874  64.333  0.00  0.00    -0.245 OA
BRANCH   7   9
ATOM      9  O   UNL     1     -10.998  14.652  64.522  0.00  0.00    -0.444 OA
BRANCH   9  10
ATOM     10  C   UNL     1     -12.319  14.156  64.369  0.00  0.00    +0.226 C 
BRANCH  10  11
ATOM     11  C   UNL     1     -12.359  12.769  64.992  0.00  0.00    +0.120 C 
BRANCH  11  12
ATOM     12  N   UNL     1     -10.990  12.260  64.927  0.00  0.00    -0.267 NA
ATOM     13  C   UNL     1     -10.933  11.310  63.834  0.00  0.00    +0.090 C 
ATOM     14  C   UNL     1     -10.745  11.593  66.202  0.00  0.00    +0.090 C 
ENDBRANCH  11  12
ENDBRANCH  10  11
ENDBRANCH   9  10
ENDBRANCH   7   9
ENDBRANCH   4   7
BRANCH   1  15
ATOM     15  N   UNL     1     -10.738  15.309  70.242  0.00  0.00    -0.238 NA
BRANCH  15  16
ATOM     16  C   UNL     1     -11.671  16.159  70.965  0.00  0.00    +0.112 C 
BRANCH  16  17
ATOM     17  C   UNL     1     -12.999  15.481  71.208  0.00  0.00    +0.023 C 
BRANCH  17  19
ATOM     18  C   UNL     1     -13.606  13.263  72.221  0.00  0.00    +0.000 C 
ATOM     19  C   UNL     1     -12.784  13.982  71.187  0.00  0.00    +0.002 C 
ENDBRANCH  17  19
ENDBRANCH  16  17
ENDBRANCH  15  16
ENDBRANCH   1  15
TORSDOF 9
ENDMDL
MODEL 8
REMARK VINA RESULT:      -5.2      4.464      6.338
REMARK  Name = 
REMARK  9 active torsions:
REMARK  status: ('A' for Active; 'I' for Inactive)
REMARK    1  A    between atoms: C_2  and  C_3
REMARK    2  A    between atoms: C_3  and  C_4
REMARK    3  A    between atoms: C_4  and  N_5
REMARK    4  A    between atoms: N_5  and  C_6
REMARK    5  A    between atoms: C_9  and  C_10
REMARK    6  A    between atoms: C_10  and  O_12
REMARK    7  A    between atoms: O_12  and  C_13
REMARK    8  A    between atoms: C_13  and  C_14
REMARK    9  A    between atoms: C_14  and  N_15
REMARK                            x       y       z     vdW  Elec       q    Type
REMARK                         _______ _______ _______ _____ _____    ______ ____
ROOT
ATOM      1  C   UNL     1      -8.897  20.078  67.556  0.00  0.00    +0.065 A 
ATOM      2  C   UNL     1      -9.891  19.999  66.588  0.00  0.00    +0.016 A 
ATOM      3  C   UNL     1     -10.395  18.771  66.179  0.00  0.00    +0.008 A 
ATOM      4  C   UNL     1      -9.912  17.582  66.718  0.00  0.00    +0.076 A 
ATOM      5  C   UNL     1      -9.320  17.720  67.969  0.00  0.00    +0.008 A 
ATOM      6  C   UNL     1      -8.764  18.939  68.342  0.00  0.00    +0.016 A 
ENDROOT
BRANCH   4   7
ATOM      7  C   UNL     1      -9.625  16.419  65.865  0.00  0.00    +0.341 C 
ATOM      8  O   UNL     1      -8.716  15.588  66.146  0.00  0.00    -0.245 OA
BRANCH   7   9
ATOM      9  O   UNL     1     -10.596  15.935  64.983  0.00  0.00    -0.444 OA
BRANCH   9  10
ATOM     10  C   UNL     1     -11.328  14.802  65.426  0.00  0.00    +0.226 C 
BRANCH  10  11
ATOM     11  C   UNL     1     -12.189  14.334  64.263  0.00  0.00    +0.120 C 
BRANCH  11  12
ATOM     12  N   UNL     1     -12.692  13.015  64.641  0.00  0.00    -0.267 NA
ATOM     13  C   UNL     1     -11.965  12.595  65.821  0.00  0.00    +0.090 C 
ATOM     14  C   UNL     1     -12.400  12.132  63.515  0.00  0.00    +0.090 C 
ENDBRANCH  11  12
ENDBRANCH  10  11
ENDBRANCH   9  10
ENDBRANCH   7   9
ENDBRANCH   4   7
BRANCH   1  15
ATOM     15  N   UNL     1      -7.831  21.023  67.411  0.00  0.00    -0.238 NA
BRANCH  15  16
ATOM     16  C   UNL     1      -6.450  20.597  67.250  0.00  0.00    +0.112 C 
BRANCH  16  17
ATOM     17  C   UNL     1      -5.957  20.765  65.832  0.00  0.00    +0.023 C 
BRANCH  17  19
ATOM     18  C   UNL     1      -6.258  18.282  65.583  0.00  0.00    +0.000 C 
ATOM     19  C   UNL     1      -6.521  19.639  64.990  0.00  0.00    +0.002 C 
ENDBRANCH  17  19
ENDBRANCH  16  17
ENDBRANCH  15  16
ENDBRANCH   1  15
TORSDOF 9
ENDMDL
MODEL 9
REMARK VINA RESULT:      -5.2      3.813      5.747
REMARK  Name = 
REMARK  9 active torsions:
REMARK  status: ('A' for Active; 'I' for Inactive)
REMARK    1  A    between atoms: C_2  and  C_3
REMARK    2  A    between atoms: C_3  and  C_4
REMARK    3  A    between atoms: C_4  and  N_5
REMARK    4  A    between atoms: N_5  and  C_6
REMARK    5  A    between atoms: C_9  and  C_10
REMARK    6  A    between atoms: C_10  and  O_12
REMARK    7  A    between atoms: O_12  and  C_13
REMARK    8  A    between atoms: C_13  and  C_14
REMARK    9  A    between atoms: C_14  and  N_15
REMARK                            x       y       z     vdW  Elec       q    Type
REMARK                         _______ _______ _______ _____ _____    ______ ____
ROOT
ATOM      1  C   UNL     1      -9.073  19.311  68.337  0.00  0.00    +0.065 A 
ATOM      2  C   UNL     1      -9.527  19.894  67.159  0.00  0.00    +0.016 A 
ATOM      3  C   UNL     1     -10.325  19.183  66.271  0.00  0.00    +0.008 A 
ATOM      4  C   UNL     1     -10.683  17.864  66.527  0.00  0.00    +0.076 A 
ATOM      5  C   UNL     1     -10.636  17.509  67.872  0.00  0.00    +0.008 A 
ATOM      6  C   UNL     1      -9.787  18.188  68.738  0.00  0.00    +0.016 A 
ENDROOT
BRANCH   4   7
ATOM      7  C   UNL     1     -10.643  16.842  65.470  0.00  0.00    +0.341 C 
ATOM      8  O   UNL     1     -11.159  17.031  64.333  0.00  0.00    -0.245 OA
BRANCH   7   9
ATOM      9  O   UNL     1      -9.677  15.831  65.504  0.00  0.00    -0.444 OA
BRANCH   9  10
ATOM     10  C   UNL     1     -10.162  14.504  65.365  0.00  0.00    +0.226 C 
BRANCH  10  11
ATOM     11  C   UNL     1     -10.379  13.950  66.764  0.00  0.00    +0.120 C 
BRANCH  11  12
ATOM     12  N   UNL     1     -11.681  13.286  66.736  0.00  0.00    -0.267 NA
ATOM     13  C   UNL     1     -11.461  11.890  67.058  0.00  0.00    +0.090 C 
ATOM     14  C   UNL     1     -12.179  13.428  65.372  0.00  0.00    +0.090 C 
ENDBRANCH  11  12
ENDBRANCH  10  11
ENDBRANCH   9  10
ENDBRANCH   7   9
ENDBRANCH   4   7
BRANCH   1  15
ATOM     15  N   UNL     1      -7.734  19.556  68.785  0.00  0.00    -0.238 NA
BRANCH  15  16
ATOM     16  C   UNL     1      -6.581  19.190  67.978  0.00  0.00    +0.112 C 
BRANCH  16  17
ATOM     17  C   UNL     1      -6.320  17.702  67.987  0.00  0.00    +0.023 C 
BRANCH  17  19
ATOM     18  C   UNL     1      -6.592  18.211  65.541  0.00  0.00    +0.000 C 
ATOM     19  C   UNL     1      -6.626  17.153  66.609  0.00  0.00    +0.002 C 
ENDBRANCH  17  19
ENDBRANCH  16  17
ENDBRANCH  15  16
ENDBRANCH   1  15
TORSDOF 9
ENDMDL
