MODEL 1
REMARK VINA RESULT:      -3.7      0.000      0.000
REMARK  Name = 
REMARK  2 active torsions:
REMARK  status: ('A' for Active; 'I' for Inactive)
REMARK    1  A    between atoms: CA_2  and  CB_3
REMARK    2  A    between atoms: CA_2  and  C_5
REMARK                            x       y       z     vdW  Elec       q    Type
REMARK                         _______ _______ _______ _____ _____    ______ ____
ROOT
ATOM      1  N   CYS A   1     -12.571  14.558  63.984  0.00  0.00    -0.120 NA
ATOM      2  CA  CYS A   1     -11.740  14.517  65.324  0.00  0.00    +0.206 C 
ENDROOT
BRANCH   2   3
ATOM      3  C   CYS A   1     -11.008  15.911  64.995  0.00  0.00    +0.383 C 
ATOM      4  OXT CYS A   1     -11.592  16.549  63.914  0.00  0.00    -0.244 OA
ATOM      5  O   CYS A   1      -9.834  16.084  65.248  0.00  0.00    -0.244 OA
ENDBRANCH   2   3
BRANCH   2   6
ATOM      6  CB  CYS A   1     -10.578  13.569  64.642  0.00  0.00    +0.099 C 
ATOM      7  SG  CYS A   1     -11.497  12.380  63.647  0.00  0.00    -0.080 S 
ENDBRANCH   2   6
TORSDOF 2
ENDMDL
MODEL 2
REMARK VINA RESULT:      -3.5      2.206      2.481
REMARK  Name = 
REMARK  2 active torsions:
REMARK  status: ('A' for Active; 'I' for Inactive)
REMARK    1  A    between atoms: CA_2  and  CB_3
REMARK    2  A    between atoms: CA_2  and  C_5
REMARK                            x       y       z     vdW  Elec       q    Type
REMARK                         _______ _______ _______ _____ _____    ______ ____
ROOT
ATOM      1  N   CYS A   1      -9.782  16.170  65.513  0.00  0.00    -0.120 NA
ATOM      2  CA  CYS A   1     -10.513  14.805  65.214  0.00  0.00    +0.206 C 
ENDROOT
BRANCH   2   3
ATOM      3  C   CYS A   1     -11.718  15.539  64.442  0.00  0.00    +0.383 C 
ATOM      4  OXT CYS A   1     -12.599  14.626  63.888  0.00  0.00    -0.244 OA
ATOM      5  O   CYS A   1     -11.573  16.634  63.938  0.00  0.00    -0.244 OA
ENDBRANCH   2   3
BRANCH   2   6
ATOM      6  CB  CYS A   1     -11.251  14.812  66.687  0.00  0.00    +0.099 C 
ATOM      7  SG  CYS A   1     -11.592  13.075  67.025  0.00  0.00    -0.080 S 
ENDBRANCH   2   6
TORSDOF 2
ENDMDL
MODEL 3
REMARK VINA RESULT:      -3.5      7.913      8.240
REMARK  Name = 
REMARK  2 active torsions:
REMARK  status: ('A' for Active; 'I' for Inactive)
REMARK    1  A    between atoms: CA_2  and  CB_3
REMARK    2  A    between atoms: CA_2  and  C_5
REMARK                            x       y       z     vdW  Elec       q    Type
REMARK                         _______ _______ _______ _____ _____    ______ ____
ROOT
ATOM      1  N   CYS A   1     -14.029  13.586  72.514  0.00  0.00    -0.120 NA
ATOM      2  CA  CYS A   1     -12.690  14.415  72.422  0.00  0.00    +0.206 C 
ENDROOT
BRANCH   2   3
ATOM      3  C   CYS A   1     -13.426  15.783  72.841  0.00  0.00    +0.383 C 
ATOM      4  OXT CYS A   1     -12.992  16.236  74.075  0.00  0.00    -0.244 OA
ATOM      5  O   CYS A   1     -14.545  16.045  72.450  0.00  0.00    -0.244 OA
ENDBRANCH   2   3
BRANCH   2   6
ATOM      6  CB  CYS A   1     -12.871  14.636  70.800  0.00  0.00    +0.099 C 
ATOM      7  SG  CYS A   1     -11.593  15.829  70.365  0.00  0.00    -0.080 S 
ENDBRANCH   2   6
TORSDOF 2
ENDMDL
MODEL 4
REMARK VINA RESULT:      -3.5      8.108      8.426
REMARK  Name = 
REMARK  2 active torsions:
REMARK  status: ('A' for Active; 'I' for Inactive)
REMARK    1  A    between atoms: CA_2  and  CB_3
REMARK    2  A    between atoms: CA_2  and  C_5
REMARK                            x       y       z     vdW  Elec       q    Type
REMARK                         _______ _______ _______ _____ _____    ______ ____
ROOT
ATOM      1  N   CYS A   1     -12.698  15.763  70.424  0.00  0.00    -0.120 NA
ATOM      2  CA  CYS A   1     -12.429  14.873  71.698  0.00  0.00    +0.206 C 
ENDROOT
BRANCH   2   3
ATOM      3  C   CYS A   1     -13.992  14.820  72.076  0.00  0.00    +0.383 C 
ATOM      4  OXT CYS A   1     -14.385  13.542  72.435  0.00  0.00    -0.244 OA
ATOM      5  O   CYS A   1     -14.789  15.591  71.584  0.00  0.00    -0.244 OA
ENDBRANCH   2   3
BRANCH   2   6
ATOM      6  CB  CYS A   1     -12.095  16.196  72.622  0.00  0.00    +0.099 C 
ATOM      7  SG  CYS A   1     -12.422  15.658  74.310  0.00  0.00    -0.080 S 
ENDBRANCH   2   6
TORSDOF 2
ENDMDL
MODEL 5
REMARK VINA RESULT:      -3.5      8.001      8.230
REMARK  Name = 
REMARK  2 active torsions:
REMARK  status: ('A' for Active; 'I' for Inactive)
REMARK    1  A    between atoms: CA_2  and  CB_3
REMARK    2  A    between atoms: CA_2  and  C_5
REMARK                            x       y       z     vdW  Elec       q    Type
REMARK                         _______ _______ _______ _____ _____    ______ ____
ROOT
ATOM      1  N   CYS A   1     -12.487  15.117  73.926  0.00  0.00    -0.120 NA
ATOM      2  CA  CYS A   1     -12.786  15.928  72.606  0.00  0.00    +0.206 C 
ENDROOT
BRANCH   2   3
ATOM      3  C   CYS A   1     -13.911  14.880  72.134  0.00  0.00    +0.383 C 
ATOM      4  OXT CYS A   1     -15.007  15.524  71.584  0.00  0.00    -0.244 OA
ATOM      5  O   CYS A   1     -14.042  13.804  72.678  0.00  0.00    -0.244 OA
ENDBRANCH   2   3
BRANCH   2   6
ATOM      6  CB  CYS A   1     -11.548  15.192  71.806  0.00  0.00    +0.099 C 
ATOM      7  SG  CYS A   1     -11.663  15.826  70.122  0.00  0.00    -0.080 S 
ENDBRANCH   2   6
TORSDOF 2
ENDMDL
MODEL 6
REMARK VINA RESULT:      -3.4      7.934      8.291
REMARK  Name = 
REMARK  2 active torsions:
REMARK  status: ('A' for Active; 'I' for Inactive)
REMARK    1  A    between atoms: CA_2  and  CB_3
REMARK    2  A    between atoms: CA_2  and  C_5
REMARK                            x       y       z     vdW  Elec       q    Type
REMARK                         _______ _______ _______ _____ _____    ______ ____
ROOT
ATOM      1  N   CYS A   1     -13.358  15.667  71.079  0.00  0.00    -0.120 NA
ATOM      2  CA  CYS A   1     -13.931  15.416  72.526  0.00  0.00    +0.206 C 
ENDROOT
BRANCH   2   3
ATOM      3  C   CYS A   1     -12.572  15.916  73.227  0.00  0.00    +0.383 C 
ATOM      4  OXT CYS A   1     -12.697  15.958  74.605  0.00  0.00    -0.244 OA
ATOM      5  O   CYS A   1     -11.804  16.663  72.657  0.00  0.00    -0.244 OA
ENDBRANCH   2   3
BRANCH   2   6
ATOM      6  CB  CYS A   1     -13.504  13.826  72.482  0.00  0.00    +0.099 C 
ATOM      7  SG  CYS A   1     -12.550  13.660  70.961  0.00  0.00    -0.080 S 
ENDBRANCH   2   6
TORSDOF 2
ENDMDL
MODEL 7
REMARK VINA RESULT:      -3.4      3.083      3.360
REMARK  Name = 
REMARK  2 active torsions:
REMARK  status: ('A' for Active; 'I' for Inactive)
REMARK    1  A    between atoms: CA_2  and  CB_3
REMARK    2  A    between atoms: CA_2  and  C_5
REMARK                            x       y       z     vdW  Elec       q    Type
REMARK                         _______ _______ _______ _____ _____    ______ ____
ROOT
ATOM      1  N   CYS A   1     -12.544  14.528  64.095  0.00  0.00    -0.120 NA
ATOM      2  CA  CYS A   1     -11.271  13.776  64.644  0.00  0.00    +0.206 C 
ENDROOT
BRANCH   2   3
ATOM      3  C   CYS A   1     -12.147  12.540  65.184  0.00  0.00    +0.383 C 
ATOM      4  OXT CYS A   1     -13.301  12.371  64.437  0.00  0.00    -0.244 OA
ATOM      5  O   CYS A   1     -12.116  12.204  66.349  0.00  0.00    -0.244 OA
ENDBRANCH   2   3
BRANCH   2   6
ATOM      6  CB  CYS A   1     -11.311  14.620  66.058  0.00  0.00    +0.099 C 
ATOM      7  SG  CYS A   1     -10.043  15.886  65.860  0.00  0.00    -0.080 S 
ENDBRANCH   2   6
TORSDOF 2
ENDMDL
MODEL 8
REMARK VINA RESULT:      -3.3      2.766      3.030
REMARK  Name = 
REMARK  2 active torsions:
REMARK  status: ('A' for Active; 'I' for Inactive)
REMARK    1  A    between atoms: CA_2  and  CB_3
REMARK    2  A    between atoms: CA_2  and  C_5
REMARK                            x       y       z     vdW  Elec       q    Type
REMARK                         _______ _______ _______ _____ _____    ______ ____
ROOT
ATOM      1  N   CYS A   1     -10.508  16.427  65.020  0.00  0.00    -0.120 NA
ATOM      2  CA  CYS A   1     -10.613  14.855  65.095  0.00  0.00    +0.206 C 
ENDROOT
BRANCH   2   3
ATOM      3  C   CYS A   1     -12.085  14.852  64.447  0.00  0.00    +0.383 C 
ATOM      4  OXT CYS A   1     -12.360  16.046  63.804  0.00  0.00    -0.244 OA
ATOM      5  O   CYS A   1     -12.985  14.191  64.923  0.00  0.00    -0.244 OA
ENDBRANCH   2   3
BRANCH   2   6
ATOM      6  CB  CYS A   1     -11.134  14.907  66.657  0.00  0.00    +0.099 C 
ATOM      7  SG  CYS A   1     -10.195  16.255  67.398  0.00  0.00    -0.080 S 
ENDBRANCH   2   6
TORSDOF 2
ENDMDL
MODEL 9
REMARK VINA RESULT:      -3.3      2.944      3.220
REMARK  Name = 
REMARK  2 active torsions:
REMARK  status: ('A' for Active; 'I' for Inactive)
REMARK    1  A    between atoms: CA_2  and  CB_3
REMARK    2  A    between atoms: CA_2  and  C_5
REMARK                            x       y       z     vdW  Elec       q    Type
REMARK                         _______ _______ _______ _____ _____    ______ ____
ROOT
ATOM      1  N   CYS A   1     -11.984  12.185  66.632  0.00  0.00    -0.120 NA
ATOM      2  CA  CYS A   1     -11.926  13.688  66.158  0.00  0.00    +0.206 C 
ENDROOT
BRANCH   2   3
ATOM      3  C   CYS A   1     -12.478  13.320  64.693  0.00  0.00    +0.383 C 
ATOM      4  OXT CYS A   1     -12.578  14.443  63.890  0.00  0.00    -0.244 OA
ATOM      5  O   CYS A   1     -13.213  12.371  64.513  0.00  0.00    -0.244 OA
ENDBRANCH   2   3
BRANCH   2   6
ATOM      6  CB  CYS A   1     -10.334  13.561  65.757  0.00  0.00    +0.099 C 
ATOM      7  SG  CYS A   1      -9.686  15.231  65.957  0.00  0.00    -0.080 S 
ENDBRANCH   2   6
TORSDOF 2
ENDMDL
