MODEL 1
REMARK VINA RESULT:      -6.5      0.000      0.000
REMARK  Name = 
REMARK  8 active torsions:
REMARK  status: ('A' for Active; 'I' for Inactive)
REMARK    1  A    between atoms: N_2  and  C_4
REMARK    2  A    between atoms: C_4  and  C_5
REMARK    3  A    between atoms: C_5  and  C_6
REMARK    4  A    between atoms: C_6  and  S_7
REMARK    5  A    between atoms: S_7  and  C_8
REMARK    6  A    between atoms: C_13  and  N_14
REMARK    7  A    between atoms: C_15  and  C_17
REMARK    8  A    between atoms: C_18  and  C_19
REMARK                            x       y       z     vdW  Elec       q    Type
REMARK                         _______ _______ _______ _____ _____    ______ ____
ROOT
ATOM      1  C   UNL     1     -11.291  15.073  67.611  0.00  0.00    +0.041 A 
ATOM      2  C   UNL     1     -11.612  14.130  66.663  0.00  0.00    +0.079 A 
ATOM      3  C   UNL     1     -11.377  14.420  65.341  0.00  0.00    +0.017 A 
ATOM      4  C   UNL     1     -10.668  15.557  65.016  0.00  0.00    +0.001 A 
ATOM      5  C   UNL     1     -10.147  16.368  66.004  0.00  0.00    +0.001 A 
ATOM      6  C   UNL     1     -10.591  16.231  67.292  0.00  0.00    +0.007 A 
ENDROOT
BRANCH   2   7
ATOM      7  N   UNL     1     -11.905  12.824  67.112  0.00  0.00    -0.175 NA
ATOM      8  C   UNL     1     -10.902  11.928  67.585  0.00  0.00    +0.269 C 
ATOM      9  O   UNL     1      -9.713  12.119  67.236  0.00  0.00    -0.268 OA
BRANCH   8  10
ATOM     10  C   UNL     1     -11.212  10.807  68.456  0.00  0.00    +0.060 C 
ATOM     11  C   UNL     1     -11.986  10.957  69.513  0.00  0.00    +0.005 C 
BRANCH  11  12
ATOM     12  C   UNL     1     -11.818  10.121  70.702  0.00  0.00    +0.000 A 
ATOM     13  C   UNL     1     -10.624   9.450  70.907  0.00  0.00    +0.000 A 
ATOM     14  C   UNL     1     -10.504   8.492  71.888  0.00  0.00    +0.000 A 
ATOM     15  C   UNL     1     -11.635   8.018  72.515  0.00  0.00    +0.000 A 
ATOM     16  C   UNL     1     -12.848   8.644  72.263  0.00  0.00    +0.000 A 
ATOM     17  C   UNL     1     -12.913   9.760  71.473  0.00  0.00    +0.000 A 
ENDBRANCH  11  12
ENDBRANCH   8  10
ENDBRANCH   2   7
BRANCH   1  18
ATOM     18  S   UNL     1     -12.150  15.049  69.185  0.00  0.00    -0.112 S 
BRANCH  18  19
ATOM     19  C   UNL     1     -11.120  15.853  70.429  0.00  0.00    +0.064 C 
BRANCH  19  20
ATOM     20  C   UNL     1     -11.863  16.104  71.714  0.00  0.00    +0.029 C 
BRANCH  20  21
ATOM     21  C   UNL     1     -13.279  15.597  71.687  0.00  0.00    +0.073 C 
BRANCH  21  23
ATOM     22  C   UNL     1     -13.558  13.334  72.399  0.00  0.00    +0.090 C 
ATOM     23  N   UNL     1     -13.603  14.739  72.795  0.00  0.00    -0.270 NA
ATOM     24  C   UNL     1     -12.546  14.905  73.789  0.00  0.00    +0.090 C 
ENDBRANCH  21  23
ENDBRANCH  20  21
ENDBRANCH  19  20
ENDBRANCH  18  19
ENDBRANCH   1  18
TORSDOF 8
ENDMDL
MODEL 2
REMARK VINA RESULT:      -6.5      2.533      5.009
REMARK  Name = 
REMARK  8 active torsions:
REMARK  status: ('A' for Active; 'I' for Inactive)
REMARK    1  A    between atoms: N_2  and  C_4
REMARK    2  A    between atoms: C_4  and  C_5
REMARK    3  A    between atoms: C_5  and  C_6
REMARK    4  A    between atoms: C_6  and  S_7
REMARK    5  A    between atoms: S_7  and  C_8
REMARK    6  A    between atoms: C_13  and  N_14
REMARK    7  A    between atoms: C_15  and  C_17
REMARK    8  A    between atoms: C_18  and  C_19
REMARK                            x       y       z     vdW  Elec       q    Type
REMARK                         _______ _______ _______ _____ _____    ______ ____
ROOT
ATOM      1  C   UNL     1      -9.838  17.493  66.918  0.00  0.00    +0.041 A 
ATOM      2  C   UNL     1      -9.639  17.635  68.271  0.00  0.00    +0.079 A 
ATOM      3  C   UNL     1      -9.712  18.894  68.818  0.00  0.00    +0.017 A 
ATOM      4  C   UNL     1     -10.157  19.942  68.040  0.00  0.00    +0.001 A 
ATOM      5  C   UNL     1     -10.581  19.726  66.745  0.00  0.00    +0.001 A 
ATOM      6  C   UNL     1     -10.271  18.547  66.122  0.00  0.00    +0.007 A 
ENDROOT
BRANCH   2   7
ATOM      7  N   UNL     1      -9.643  16.465  69.060  0.00  0.00    -0.175 NA
ATOM      8  C   UNL     1     -10.828  15.720  69.329  0.00  0.00    +0.269 C 
ATOM      9  O   UNL     1     -11.936  16.296  69.222  0.00  0.00    -0.268 OA
BRANCH   8  10
ATOM     10  C   UNL     1     -10.793  14.321  69.720  0.00  0.00    +0.060 C 
ATOM     11  C   UNL     1     -11.554  13.426  69.122  0.00  0.00    +0.005 C 
BRANCH  11  12
ATOM     12  C   UNL     1     -12.032  12.240  69.832  0.00  0.00    +0.000 A 
ATOM     13  C   UNL     1     -12.800  12.386  70.977  0.00  0.00    +0.000 A 
ATOM     14  C   UNL     1     -13.083  11.311  71.788  0.00  0.00    +0.000 A 
ATOM     15  C   UNL     1     -12.406  10.126  71.603  0.00  0.00    +0.000 A 
ATOM     16  C   UNL     1     -11.583   9.994  70.494  0.00  0.00    +0.000 A 
ATOM     17  C   UNL     1     -11.503  10.988  69.555  0.00  0.00    +0.000 A 
ENDBRANCH  11  12
ENDBRANCH   8  10
ENDBRANCH   2   7
BRANCH   1  18
ATOM     18  S   UNL     1      -9.121  16.080  66.079  0.00  0.00    -0.112 S 
BRANCH  18  19
ATOM     19  C   UNL     1     -10.393  15.284  65.077  0.00  0.00    +0.064 C 
BRANCH  19  20
ATOM     20  C   UNL     1     -11.329  14.441  65.901  0.00  0.00    +0.029 C 
BRANCH  20  21
ATOM     21  C   UNL     1     -12.598  14.086  65.175  0.00  0.00    +0.073 C 
BRANCH  21  23
ATOM     22  C   UNL     1     -12.348  12.370  63.532  0.00  0.00    +0.090 C 
ATOM     23  N   UNL     1     -12.730  12.678  64.908  0.00  0.00    -0.270 NA
ATOM     24  C   UNL     1     -11.760  11.987  65.753  0.00  0.00    +0.090 C 
ENDBRANCH  21  23
ENDBRANCH  20  21
ENDBRANCH  19  20
ENDBRANCH  18  19
ENDBRANCH   1  18
TORSDOF 8
ENDMDL
MODEL 3
REMARK VINA RESULT:      -6.3      3.486      7.304
REMARK  Name = 
REMARK  8 active torsions:
REMARK  status: ('A' for Active; 'I' for Inactive)
REMARK    1  A    between atoms: N_2  and  C_4
REMARK    2  A    between atoms: C_4  and  C_5
REMARK    3  A    between atoms: C_5  and  C_6
REMARK    4  A    between atoms: C_6  and  S_7
REMARK    5  A    between atoms: S_7  and  C_8
REMARK    6  A    between atoms: C_13  and  N_14
REMARK    7  A    between atoms: C_15  and  C_17
REMARK    8  A    between atoms: C_18  and  C_19
REMARK                            x       y       z     vdW  Elec       q    Type
REMARK                         _______ _______ _______ _____ _____    ______ ____
ROOT
ATOM      1  C   UNL     1     -11.413  14.545  66.904  0.00  0.00    +0.041 A 
ATOM      2  C   UNL     1     -10.340  14.827  66.091  0.00  0.00    +0.079 A 
ATOM      3  C   UNL     1     -10.199  14.121  64.921  0.00  0.00    +0.017 A 
ATOM      4  C   UNL     1     -11.219  13.289  64.509  0.00  0.00    +0.001 A 
ATOM      5  C   UNL     1     -12.394  13.206  65.227  0.00  0.00    +0.001 A 
ATOM      6  C   UNL     1     -12.437  13.695  66.506  0.00  0.00    +0.007 A 
ENDROOT
BRANCH   2   7
ATOM      7  N   UNL     1      -9.604  16.001  66.361  0.00  0.00    -0.175 NA
ATOM      8  C   UNL     1     -10.073  17.302  66.016  0.00  0.00    +0.269 C 
ATOM      9  O   UNL     1     -10.938  17.409  65.114  0.00  0.00    -0.268 OA
BRANCH   8  10
ATOM     10  C   UNL     1      -9.585  18.502  66.674  0.00  0.00    +0.060 C 
ATOM     11  C   UNL     1      -8.419  19.029  66.356  0.00  0.00    +0.005 C 
BRANCH  11  12
ATOM     12  C   UNL     1      -7.627  19.768  67.339  0.00  0.00    +0.000 A 
ATOM     13  C   UNL     1      -6.643  20.644  66.912  0.00  0.00    +0.000 A 
ATOM     14  C   UNL     1      -5.739  21.188  67.795  0.00  0.00    +0.000 A 
ATOM     15  C   UNL     1      -5.649  20.679  69.072  0.00  0.00    +0.000 A 
ATOM     16  C   UNL     1      -6.593  19.750  69.487  0.00  0.00    +0.000 A 
ATOM     17  C   UNL     1      -7.641  19.402  68.677  0.00  0.00    +0.000 A 
ENDBRANCH  11  12
ENDBRANCH   8  10
ENDBRANCH   2   7
BRANCH   1  18
ATOM     18  S   UNL     1     -11.292  14.909  68.656  0.00  0.00    -0.112 S 
BRANCH  18  19
ATOM     19  C   UNL     1     -12.062  13.570  69.588  0.00  0.00    +0.064 C 
BRANCH  19  20
ATOM     20  C   UNL     1     -12.438  13.985  70.985  0.00  0.00    +0.029 C 
BRANCH  20  21
ATOM     21  C   UNL     1     -12.460  15.478  71.172  0.00  0.00    +0.073 C 
BRANCH  21  23
ATOM     22  C   UNL     1     -14.754  15.152  71.750  0.00  0.00    +0.090 C 
ATOM     23  N   UNL     1     -13.547  15.937  71.995  0.00  0.00    -0.270 NA
ATOM     24  C   UNL     1     -13.177  15.674  73.382  0.00  0.00    +0.090 C 
ENDBRANCH  21  23
ENDBRANCH  20  21
ENDBRANCH  19  20
ENDBRANCH  18  19
ENDBRANCH   1  18
TORSDOF 8
ENDMDL
MODEL 4
REMARK VINA RESULT:      -6.0      3.554      5.012
REMARK  Name = 
REMARK  8 active torsions:
REMARK  status: ('A' for Active; 'I' for Inactive)
REMARK    1  A    between atoms: N_2  and  C_4
REMARK    2  A    between atoms: C_4  and  C_5
REMARK    3  A    between atoms: C_5  and  C_6
REMARK    4  A    between atoms: C_6  and  S_7
REMARK    5  A    between atoms: S_7  and  C_8
REMARK    6  A    between atoms: C_13  and  N_14
REMARK    7  A    between atoms: C_15  and  C_17
REMARK    8  A    between atoms: C_18  and  C_19
REMARK                            x       y       z     vdW  Elec       q    Type
REMARK                         _______ _______ _______ _____ _____    ______ ____
ROOT
ATOM      1  C   UNL     1      -8.606  17.491  66.606  0.00  0.00    +0.041 A 
ATOM      2  C   UNL     1      -9.981  17.484  66.650  0.00  0.00    +0.079 A 
ATOM      3  C   UNL     1     -10.643  18.687  66.700  0.00  0.00    +0.017 A 
ATOM      4  C   UNL     1      -9.932  19.855  66.523  0.00  0.00    +0.001 A 
ATOM      5  C   UNL     1      -8.582  19.822  66.240  0.00  0.00    +0.001 A 
ATOM      6  C   UNL     1      -7.879  18.664  66.445  0.00  0.00    +0.007 A 
ENDROOT
BRANCH   2   7
ATOM      7  N   UNL     1     -10.639  16.268  66.367  0.00  0.00    -0.175 NA
ATOM      8  C   UNL     1     -11.017  15.884  65.047  0.00  0.00    +0.269 C 
ATOM      9  O   UNL     1     -11.145  16.777  64.176  0.00  0.00    -0.268 OA
BRANCH   8  10
ATOM     10  C   UNL     1     -11.254  14.499  64.680  0.00  0.00    +0.060 C 
ATOM     11  C   UNL     1     -11.611  13.605  65.581  0.00  0.00    +0.005 C 
BRANCH  11  12
ATOM     12  C   UNL     1     -11.247  12.195  65.438  0.00  0.00    +0.000 A 
ATOM     13  C   UNL     1     -10.889  11.459  66.556  0.00  0.00    +0.000 A 
ATOM     14  C   UNL     1     -10.337  10.204  66.436  0.00  0.00    +0.000 A 
ATOM     15  C   UNL     1      -9.910   9.766  65.203  0.00  0.00    +0.000 A 
ATOM     16  C   UNL     1     -10.207  10.531  64.084  0.00  0.00    +0.000 A 
ATOM     17  C   UNL     1     -10.978  11.658  64.187  0.00  0.00    +0.000 A 
ENDBRANCH  11  12
ENDBRANCH   8  10
ENDBRANCH   2   7
BRANCH   1  18
ATOM     18  S   UNL     1      -7.712  16.055  67.202  0.00  0.00    -0.112 S 
BRANCH  18  19
ATOM     19  C   UNL     1      -8.075  15.822  68.954  0.00  0.00    +0.064 C 
BRANCH  19  20
ATOM     20  C   UNL     1      -9.282  14.952  69.179  0.00  0.00    +0.029 C 
BRANCH  20  21
ATOM     21  C   UNL     1     -10.376  15.645  69.945  0.00  0.00    +0.073 C 
BRANCH  21  23
ATOM     22  C   UNL     1     -11.784  13.810  69.347  0.00  0.00    +0.090 C 
ATOM     23  N   UNL     1     -11.699  15.257  69.534  0.00  0.00    -0.270 NA
ATOM     24  C   UNL     1     -12.601  15.567  70.639  0.00  0.00    +0.090 C 
ENDBRANCH  21  23
ENDBRANCH  20  21
ENDBRANCH  19  20
ENDBRANCH  18  19
ENDBRANCH   1  18
TORSDOF 8
ENDMDL
MODEL 5
REMARK VINA RESULT:      -6.0      2.324      5.515
REMARK  Name = 
REMARK  8 active torsions:
REMARK  status: ('A' for Active; 'I' for Inactive)
REMARK    1  A    between atoms: N_2  and  C_4
REMARK    2  A    between atoms: C_4  and  C_5
REMARK    3  A    between atoms: C_5  and  C_6
REMARK    4  A    between atoms: C_6  and  S_7
REMARK    5  A    between atoms: S_7  and  C_8
REMARK    6  A    between atoms: C_13  and  N_14
REMARK    7  A    between atoms: C_15  and  C_17
REMARK    8  A    between atoms: C_18  and  C_19
REMARK                            x       y       z     vdW  Elec       q    Type
REMARK                         _______ _______ _______ _____ _____    ______ ____
ROOT
ATOM      1  C   UNL     1     -10.808  11.978  65.402  0.00  0.00    +0.041 A 
ATOM      2  C   UNL     1     -11.385  13.198  65.668  0.00  0.00    +0.079 A 
ATOM      3  C   UNL     1     -12.041  13.851  64.653  0.00  0.00    +0.017 A 
ATOM      4  C   UNL     1     -12.259  13.194  63.460  0.00  0.00    +0.001 A 
ATOM      5  C   UNL     1     -11.877  11.878  63.301  0.00  0.00    +0.001 A 
ATOM      6  C   UNL     1     -11.007  11.316  64.196  0.00  0.00    +0.007 A 
ENDROOT
BRANCH   2   7
ATOM      7  N   UNL     1     -11.510  13.582  67.021  0.00  0.00    -0.175 NA
ATOM      8  C   UNL     1     -11.061  14.844  67.509  0.00  0.00    +0.269 C 
ATOM      9  O   UNL     1     -10.190  15.465  66.856  0.00  0.00    -0.268 OA
BRANCH   8  10
ATOM     10  C   UNL     1     -11.579  15.431  68.733  0.00  0.00    +0.060 C 
ATOM     11  C   UNL     1     -11.206  14.984  69.916  0.00  0.00    +0.005 C 
BRANCH  11  12
ATOM     12  C   UNL     1     -12.101  15.056  71.071  0.00  0.00    +0.000 A 
ATOM     13  C   UNL     1     -13.472  14.975  70.886  0.00  0.00    +0.000 A 
ATOM     14  C   UNL     1     -14.347  15.255  71.911  0.00  0.00    +0.000 A 
ATOM     15  C   UNL     1     -13.878  15.852  73.059  0.00  0.00    +0.000 A 
ATOM     16  C   UNL     1     -12.508  15.997  73.224  0.00  0.00    +0.000 A 
ATOM     17  C   UNL     1     -11.631  15.486  72.304  0.00  0.00    +0.000 A 
ENDBRANCH  11  12
ENDBRANCH   8  10
ENDBRANCH   2   7
BRANCH   1  18
ATOM     18  S   UNL     1      -9.435  11.429  66.416  0.00  0.00    -0.112 S 
BRANCH  18  19
ATOM     19  C   UNL     1      -9.409   9.625  66.441  0.00  0.00    +0.064 C 
BRANCH  19  20
ATOM     20  C   UNL     1     -10.080   9.059  67.664  0.00  0.00    +0.029 C 
BRANCH  20  21
ATOM     21  C   UNL     1     -10.032   9.986  68.848  0.00  0.00    +0.073 C 
BRANCH  21  23
ATOM     22  C   UNL     1     -10.878   9.509  71.030  0.00  0.00    +0.090 C 
ATOM     23  N   UNL     1     -11.210   9.927  69.671  0.00  0.00    -0.270 NA
ATOM     24  C   UNL     1     -11.720  11.291  69.788  0.00  0.00    +0.090 C 
ENDBRANCH  21  23
ENDBRANCH  20  21
ENDBRANCH  19  20
ENDBRANCH  18  19
ENDBRANCH   1  18
TORSDOF 8
ENDMDL
MODEL 6
REMARK VINA RESULT:      -6.0      2.758      4.260
REMARK  Name = 
REMARK  8 active torsions:
REMARK  status: ('A' for Active; 'I' for Inactive)
REMARK    1  A    between atoms: N_2  and  C_4
REMARK    2  A    between atoms: C_4  and  C_5
REMARK    3  A    between atoms: C_5  and  C_6
REMARK    4  A    between atoms: C_6  and  S_7
REMARK    5  A    between atoms: S_7  and  C_8
REMARK    6  A    between atoms: C_13  and  N_14
REMARK    7  A    between atoms: C_15  and  C_17
REMARK    8  A    between atoms: C_18  and  C_19
REMARK                            x       y       z     vdW  Elec       q    Type
REMARK                         _______ _______ _______ _____ _____    ______ ____
ROOT
ATOM      1  C   UNL     1     -10.475  17.486  67.935  0.00  0.00    +0.041 A 
ATOM      2  C   UNL     1     -10.497  17.684  66.574  0.00  0.00    +0.079 A 
ATOM      3  C   UNL     1     -10.163  18.923  66.084  0.00  0.00    +0.017 A 
ATOM      4  C   UNL     1      -9.644  19.869  66.943  0.00  0.00    +0.001 A 
ATOM      5  C   UNL     1      -9.406  19.563  68.268  0.00  0.00    +0.001 A 
ATOM      6  C   UNL     1      -9.970  18.440  68.811  0.00  0.00    +0.007 A 
ENDROOT
BRANCH   2   7
ATOM      7  N   UNL     1     -10.594  16.543  65.748  0.00  0.00    -0.175 NA
ATOM      8  C   UNL     1      -9.604  15.518  65.730  0.00  0.00    +0.269 C 
ATOM      9  O   UNL     1      -8.447  15.793  66.128  0.00  0.00    -0.268 OA
BRANCH   8  10
ATOM     10  C   UNL     1      -9.891  14.171  65.269  0.00  0.00    +0.060 C 
ATOM     11  C   UNL     1     -10.894  13.477  65.770  0.00  0.00    +0.005 C 
BRANCH  11  12
ATOM     12  C   UNL     1     -10.846  12.017  65.844  0.00  0.00    +0.000 A 
ATOM     13  C   UNL     1     -10.969  11.385  67.071  0.00  0.00    +0.000 A 
ATOM     14  C   UNL     1     -10.714  10.040  67.209  0.00  0.00    +0.000 A 
ATOM     15  C   UNL     1     -10.098   9.358  66.183  0.00  0.00    +0.000 A 
ATOM     16  C   UNL     1      -9.910  10.005  64.971  0.00  0.00    +0.000 A 
ATOM     17  C   UNL     1     -10.397  11.269  64.765  0.00  0.00    +0.000 A 
ENDBRANCH  11  12
ENDBRANCH   8  10
ENDBRANCH   2   7
BRANCH   1  18
ATOM     18  S   UNL     1     -11.499  16.194  68.641  0.00  0.00    -0.112 S 
BRANCH  18  19
ATOM     19  C   UNL     1     -11.003  15.922  70.354  0.00  0.00    +0.064 C 
BRANCH  19  20
ATOM     20  C   UNL     1     -11.821  14.851  71.025  0.00  0.00    +0.029 C 
BRANCH  20  21
ATOM     21  C   UNL     1     -12.516  15.331  72.270  0.00  0.00    +0.073 C 
BRANCH  21  23
ATOM     22  C   UNL     1     -14.799  15.122  71.598  0.00  0.00    +0.090 C 
ATOM     23  N   UNL     1     -13.765  14.663  72.523  0.00  0.00    -0.270 NA
ATOM     24  C   UNL     1     -13.564  13.248  72.223  0.00  0.00    +0.090 C 
ENDBRANCH  21  23
ENDBRANCH  20  21
ENDBRANCH  19  20
ENDBRANCH  18  19
ENDBRANCH   1  18
TORSDOF 8
ENDMDL
MODEL 7
REMARK VINA RESULT:      -5.9      2.209      6.444
REMARK  Name = 
REMARK  8 active torsions:
REMARK  status: ('A' for Active; 'I' for Inactive)
REMARK    1  A    between atoms: N_2  and  C_4
REMARK    2  A    between atoms: C_4  and  C_5
REMARK    3  A    between atoms: C_5  and  C_6
REMARK    4  A    between atoms: C_6  and  S_7
REMARK    5  A    between atoms: S_7  and  C_8
REMARK    6  A    between atoms: C_13  and  N_14
REMARK    7  A    between atoms: C_15  and  C_17
REMARK    8  A    between atoms: C_18  and  C_19
REMARK                            x       y       z     vdW  Elec       q    Type
REMARK                         _______ _______ _______ _____ _____    ______ ____
ROOT
ATOM      1  C   UNL     1     -11.696   9.762  71.141  0.00  0.00    +0.041 A 
ATOM      2  C   UNL     1     -10.395   9.559  70.744  0.00  0.00    +0.079 A 
ATOM      3  C   UNL     1      -9.607   8.710  71.483  0.00  0.00    +0.017 A 
ATOM      4  C   UNL     1     -10.183   7.954  72.482  0.00  0.00    +0.001 A 
ATOM      5  C   UNL     1     -11.545   8.001  72.704  0.00  0.00    +0.001 A 
ATOM      6  C   UNL     1     -12.281   9.018  72.158  0.00  0.00    +0.007 A 
ENDROOT
BRANCH   2   7
ATOM      7  N   UNL     1     -10.025  10.010  69.458  0.00  0.00    -0.175 NA
ATOM      8  C   UNL     1     -10.285   9.262  68.273  0.00  0.00    +0.269 C 
ATOM      9  O   UNL     1     -10.472   8.026  68.373  0.00  0.00    -0.268 OA
BRANCH   8  10
ATOM     10  C   UNL     1     -10.343   9.883  66.961  0.00  0.00    +0.060 C 
ATOM     11  C   UNL     1     -10.553  11.178  66.827  0.00  0.00    +0.005 C 
BRANCH  11  12
ATOM     12  C   UNL     1     -11.233  11.718  65.650  0.00  0.00    +0.000 A 
ATOM     13  C   UNL     1     -10.800  11.364  64.382  0.00  0.00    +0.000 A 
ATOM     14  C   UNL     1     -11.267  12.014  63.262  0.00  0.00    +0.000 A 
ATOM     15  C   UNL     1     -11.983  13.181  63.405  0.00  0.00    +0.000 A 
ATOM     16  C   UNL     1     -12.364  13.578  64.678  0.00  0.00    +0.000 A 
ATOM     17  C   UNL     1     -12.107  12.789  65.767  0.00  0.00    +0.000 A 
ENDBRANCH  11  12
ENDBRANCH   8  10
ENDBRANCH   2   7
BRANCH   1  18
ATOM     18  S   UNL     1     -12.519  11.284  70.669  0.00  0.00    -0.112 S 
BRANCH  18  19
ATOM     19  C   UNL     1     -13.362  11.968  72.110  0.00  0.00    +0.064 C 
BRANCH  19  20
ATOM     20  C   UNL     1     -13.562  13.456  72.005  0.00  0.00    +0.029 C 
BRANCH  20  21
ATOM     21  C   UNL     1     -12.743  14.087  70.912  0.00  0.00    +0.073 C 
BRANCH  21  23
ATOM     22  C   UNL     1     -12.303  15.938  72.356  0.00  0.00    +0.090 C 
ATOM     23  N   UNL     1     -12.669  15.521  71.005  0.00  0.00    -0.270 NA
ATOM     24  C   UNL     1     -11.570  15.951  70.145  0.00  0.00    +0.090 C 
ENDBRANCH  21  23
ENDBRANCH  20  21
ENDBRANCH  19  20
ENDBRANCH  18  19
ENDBRANCH   1  18
TORSDOF 8
ENDMDL
MODEL 8
REMARK VINA RESULT:      -5.8      2.269      2.701
REMARK  Name = 
REMARK  8 active torsions:
REMARK  status: ('A' for Active; 'I' for Inactive)
REMARK    1  A    between atoms: N_2  and  C_4
REMARK    2  A    between atoms: C_4  and  C_5
REMARK    3  A    between atoms: C_5  and  C_6
REMARK    4  A    between atoms: C_6  and  S_7
REMARK    5  A    between atoms: S_7  and  C_8
REMARK    6  A    between atoms: C_13  and  N_14
REMARK    7  A    between atoms: C_15  and  C_17
REMARK    8  A    between atoms: C_18  and  C_19
REMARK                            x       y       z     vdW  Elec       q    Type
REMARK                         _______ _______ _______ _____ _____    ______ ____
ROOT
ATOM      1  C   UNL     1     -11.002  14.370  66.849  0.00  0.00    +0.041 A 
ATOM      2  C   UNL     1     -11.889  13.432  66.375  0.00  0.00    +0.079 A 
ATOM      3  C   UNL     1     -12.574  13.702  65.215  0.00  0.00    +0.017 A 
ATOM      4  C   UNL     1     -12.224  14.808  64.468  0.00  0.00    +0.001 A 
ATOM      5  C   UNL     1     -11.163  15.606  64.845  0.00  0.00    +0.001 A 
ATOM      6  C   UNL     1     -10.656  15.496  66.112  0.00  0.00    +0.007 A 
ENDROOT
BRANCH   2   7
ATOM      7  N   UNL     1     -11.847  12.143  66.947  0.00  0.00    -0.175 NA
ATOM      8  C   UNL     1     -10.896  11.156  66.557  0.00  0.00    +0.269 C 
ATOM      9  O   UNL     1     -10.351  11.260  65.433  0.00  0.00    -0.268 OA
BRANCH   8  10
ATOM     10  C   UNL     1     -10.538  10.040  67.416  0.00  0.00    +0.060 C 
ATOM     11  C   UNL     1     -10.316   8.839  66.920  0.00  0.00    +0.005 C 
BRANCH  11  12
ATOM     12  C   UNL     1     -10.588   7.633  67.701  0.00  0.00    +0.000 A 
ATOM     13  C   UNL     1     -10.499   7.674  69.083  0.00  0.00    +0.000 A 
ATOM     14  C   UNL     1     -10.533   6.521  69.834  0.00  0.00    +0.000 A 
ATOM     15  C   UNL     1     -10.412   5.300  69.209  0.00  0.00    +0.000 A 
ATOM     16  C   UNL     1     -10.434   5.257  67.822  0.00  0.00    +0.000 A 
ATOM     17  C   UNL     1     -10.652   6.391  67.086  0.00  0.00    +0.000 A 
ENDBRANCH  11  12
ENDBRANCH   8  10
ENDBRANCH   2   7
BRANCH   1  18
ATOM     18  S   UNL     1     -10.617  14.392  68.600  0.00  0.00    -0.112 S 
BRANCH  18  19
ATOM     19  C   UNL     1     -11.904  15.308  69.472  0.00  0.00    +0.064 C 
BRANCH  19  20
ATOM     20  C   UNL     1     -11.385  15.989  70.711  0.00  0.00    +0.029 C 
BRANCH  20  21
ATOM     21  C   UNL     1     -11.763  15.276  71.980  0.00  0.00    +0.073 C 
BRANCH  21  23
ATOM     22  C   UNL     1     -14.088  15.509  72.476  0.00  0.00    +0.090 C 
ATOM     23  N   UNL     1     -12.738  15.984  72.767  0.00  0.00    -0.270 NA
ATOM     24  C   UNL     1     -12.490  15.643  74.165  0.00  0.00    +0.090 C 
ENDBRANCH  21  23
ENDBRANCH  20  21
ENDBRANCH  19  20
ENDBRANCH  18  19
ENDBRANCH   1  18
TORSDOF 8
ENDMDL
MODEL 9
REMARK VINA RESULT:      -5.8      4.570      6.161
REMARK  Name = 
REMARK  8 active torsions:
REMARK  status: ('A' for Active; 'I' for Inactive)
REMARK    1  A    between atoms: N_2  and  C_4
REMARK    2  A    between atoms: C_4  and  C_5
REMARK    3  A    between atoms: C_5  and  C_6
REMARK    4  A    between atoms: C_6  and  S_7
REMARK    5  A    between atoms: S_7  and  C_8
REMARK    6  A    between atoms: C_13  and  N_14
REMARK    7  A    between atoms: C_15  and  C_17
REMARK    8  A    between atoms: C_18  and  C_19
REMARK                            x       y       z     vdW  Elec       q    Type
REMARK                         _______ _______ _______ _____ _____    ______ ____
ROOT
ATOM      1  C   UNL     1      -8.607  17.744  66.447  0.00  0.00    +0.041 A 
ATOM      2  C   UNL     1      -9.913  17.520  66.817  0.00  0.00    +0.079 A 
ATOM      3  C   UNL     1     -10.680  18.593  67.202  0.00  0.00    +0.017 A 
ATOM      4  C   UNL     1     -10.186  19.869  67.035  0.00  0.00    +0.001 A 
ATOM      5  C   UNL     1      -8.960  20.077  66.436  0.00  0.00    +0.001 A 
ATOM      6  C   UNL     1      -8.094  19.027  66.293  0.00  0.00    +0.007 A 
ENDROOT
BRANCH   2   7
ATOM      7  N   UNL     1     -10.469  16.257  66.522  0.00  0.00    -0.175 NA
ATOM      8  C   UNL     1     -10.889  15.886  65.211  0.00  0.00    +0.269 C 
ATOM      9  O   UNL     1     -11.155  16.793  64.387  0.00  0.00    -0.268 OA
BRANCH   8  10
ATOM     10  C   UNL     1     -11.017  14.498  64.802  0.00  0.00    +0.060 C 
ATOM     11  C   UNL     1     -11.681  13.628  65.537  0.00  0.00    +0.005 C 
BRANCH  11  12
ATOM     12  C   UNL     1     -11.321  12.210  65.543  0.00  0.00    +0.000 A 
ATOM     13  C   UNL     1     -11.146  11.549  66.749  0.00  0.00    +0.000 A 
ATOM     14  C   UNL     1     -10.601  10.287  66.797  0.00  0.00    +0.000 A 
ATOM     15  C   UNL     1     -10.000   9.764  65.674  0.00  0.00    +0.000 A 
ATOM     16  C   UNL     1     -10.115  10.453  64.475  0.00  0.00    +0.000 A 
ATOM     17  C   UNL     1     -10.875  11.588  64.386  0.00  0.00    +0.000 A 
ENDBRANCH  11  12
ENDBRANCH   8  10
ENDBRANCH   2   7
BRANCH   1  18
ATOM     18  S   UNL     1      -7.423  16.405  66.592  0.00  0.00    -0.112 S 
BRANCH  18  19
ATOM     19  C   UNL     1      -7.215  15.992  68.335  0.00  0.00    +0.064 C 
BRANCH  19  20
ATOM     20  C   UNL     1      -6.956  17.206  69.187  0.00  0.00    +0.029 C 
BRANCH  20  21
ATOM     21  C   UNL     1      -5.544  17.714  69.078  0.00  0.00    +0.073 C 
BRANCH  21  23
ATOM     22  C   UNL     1      -6.520  19.844  69.544  0.00  0.00    +0.090 C 
ATOM     23  N   UNL     1      -5.344  18.992  69.708  0.00  0.00    -0.270 NA
ATOM     24  C   UNL     1      -5.228  18.749  71.144  0.00  0.00    +0.090 C 
ENDBRANCH  21  23
ENDBRANCH  20  21
ENDBRANCH  19  20
ENDBRANCH  18  19
ENDBRANCH   1  18
TORSDOF 8
ENDMDL
