MODEL 1
REMARK VINA RESULT:      -6.6      0.000      0.000
REMARK  Name = 
REMARK  1 active torsions:
REMARK  status: ('A' for Active; 'I' for Inactive)
REMARK    1  A    between atoms: C_11  and  C_12
REMARK                            x       y       z     vdW  Elec       q    Type
REMARK                         _______ _______ _______ _____ _____    ______ ____
ROOT
ATOM      1  O   UNL     1     -12.804  12.661  63.496  0.00  0.00    -0.268 OA
ATOM      2  C   UNL     1     -12.171  12.775  64.496  0.00  0.00    +0.300 C 
ATOM      3  C   UNL     1     -12.010  14.387  64.739  0.00  0.00    +0.333 C 
ATOM      4  O   UNL     1     -10.475  14.343  64.935  0.00  0.00    -0.186 OA
ATOM      5  N   UNL     1     -12.385  14.289  66.289  0.00  0.00    -0.233 NA
ATOM      6  C   UNL     1     -11.609  13.895  67.196  0.00  0.00    +0.081 C 
ATOM      7  C   UNL     1     -10.517  12.942  67.099  0.00  0.00    +0.034 A 
ATOM      8  C   UNL     1     -10.471  11.923  66.151  0.00  0.00    +0.075 A 
ATOM      9  C   UNL     1      -9.328  11.173  66.147  0.00  0.00    +0.018 A 
ATOM     10  C   UNL     1      -8.160  11.585  66.776  0.00  0.00    +0.013 A 
ATOM     11  C   UNL     1      -8.178  12.772  67.478  0.00  0.00    +0.058 A 
ATOM     12 CL   UNL     1      -6.709  13.751  67.504  0.00  0.00    -0.082 Cl
ATOM     13  C   UNL     1      -9.406  13.301  67.852  0.00  0.00    +0.014 A 
ATOM     14  N   UNL     1     -11.274  11.809  64.967  0.00  0.00    -0.175 NA
ENDROOT
BRANCH   6  15
ATOM     15  C   UNL     1     -11.707  14.474  68.536  0.00  0.00    +0.028 A 
ATOM     16  C   UNL     1     -11.234  15.746  68.710  0.00  0.00    +0.059 A 
ATOM     17 CL   UNL     1     -10.713  16.695  67.349  0.00  0.00    -0.082 Cl
ATOM     18  C   UNL     1     -11.062  16.196  70.012  0.00  0.00    +0.011 A 
ATOM     19  C   UNL     1     -11.309  15.319  71.040  0.00  0.00    +0.001 A 
ATOM     20  C   UNL     1     -12.155  14.238  70.857  0.00  0.00    +0.000 A 
ATOM     21  C   UNL     1     -12.325  13.822  69.552  0.00  0.00    +0.002 A 
ENDBRANCH   6  15
TORSDOF 1
ENDMDL
MODEL 2
REMARK VINA RESULT:      -6.4      1.985      2.683
REMARK  Name = 
REMARK  1 active torsions:
REMARK  status: ('A' for Active; 'I' for Inactive)
REMARK    1  A    between atoms: C_11  and  C_12
REMARK                            x       y       z     vdW  Elec       q    Type
REMARK                         _______ _______ _______ _____ _____    ______ ____
ROOT
ATOM      1  O   UNL     1     -13.349  12.453  64.620  0.00  0.00    -0.268 OA
ATOM      2  C   UNL     1     -12.438  12.832  65.284  0.00  0.00    +0.300 C 
ATOM      3  C   UNL     1     -11.527  13.769  64.297  0.00  0.00    +0.333 C 
ATOM      4  O   UNL     1     -10.192  13.057  64.626  0.00  0.00    -0.186 OA
ATOM      5  N   UNL     1     -11.374  14.932  65.382  0.00  0.00    -0.233 NA
ATOM      6  C   UNL     1     -10.594  14.902  66.367  0.00  0.00    +0.081 C 
ATOM      7  C   UNL     1     -10.121  13.746  67.109  0.00  0.00    +0.034 A 
ATOM      8  C   UNL     1     -10.834  12.554  67.208  0.00  0.00    +0.075 A 
ATOM      9  C   UNL     1     -10.199  11.541  67.871  0.00  0.00    +0.018 A 
ATOM     10  C   UNL     1      -8.833  11.553  68.125  0.00  0.00    +0.013 A 
ATOM     11  C   UNL     1      -8.104  12.658  67.739  0.00  0.00    +0.058 A 
ATOM     12 CL   UNL     1      -6.440  12.418  67.203  0.00  0.00    -0.082 Cl
ATOM     13  C   UNL     1      -8.785  13.841  67.478  0.00  0.00    +0.014 A 
ATOM     14  N   UNL     1     -11.947  12.145  66.401  0.00  0.00    -0.175 NA
ENDROOT
BRANCH   6  15
ATOM     15  C   UNL     1      -9.985  16.143  66.848  0.00  0.00    +0.028 A 
ATOM     16  C   UNL     1     -10.544  16.734  67.948  0.00  0.00    +0.059 A 
ATOM     17 CL   UNL     1     -11.805  15.936  68.842  0.00  0.00    -0.082 Cl
ATOM     18  C   UNL     1     -10.164  18.036  68.241  0.00  0.00    +0.011 A 
ATOM     19  C   UNL     1      -9.310  18.675  67.375  0.00  0.00    +0.001 A 
ATOM     20  C   UNL     1      -8.468  17.946  66.551  0.00  0.00    +0.000 A 
ATOM     21  C   UNL     1      -8.857  16.647  66.291  0.00  0.00    +0.002 A 
ENDBRANCH   6  15
TORSDOF 1
ENDMDL
MODEL 3
REMARK VINA RESULT:      -6.4      2.282      3.568
REMARK  Name = 
REMARK  1 active torsions:
REMARK  status: ('A' for Active; 'I' for Inactive)
REMARK    1  A    between atoms: C_11  and  C_12
REMARK                            x       y       z     vdW  Elec       q    Type
REMARK                         _______ _______ _______ _____ _____    ______ ____
ROOT
ATOM      1  O   UNL     1     -11.823  12.934  63.173  0.00  0.00    -0.268 OA
ATOM      2  C   UNL     1     -11.439  13.108  64.285  0.00  0.00    +0.300 C 
ATOM      3  C   UNL     1     -12.747  12.890  65.246  0.00  0.00    +0.333 C 
ATOM      4  O   UNL     1     -12.570  14.217  66.024  0.00  0.00    -0.186 OA
ATOM      5  N   UNL     1     -11.950  11.974  66.286  0.00  0.00    -0.233 NA
ATOM      6  C   UNL     1     -11.156  12.400  67.162  0.00  0.00    +0.081 C 
ATOM      7  C   UNL     1     -10.324  13.590  67.124  0.00  0.00    +0.034 A 
ATOM      8  C   UNL     1      -9.863  14.166  65.944  0.00  0.00    +0.075 A 
ATOM      9  C   UNL     1      -9.167  15.333  66.091  0.00  0.00    +0.018 A 
ATOM     10  C   UNL     1      -9.202  16.085  67.258  0.00  0.00    +0.013 A 
ATOM     11  C   UNL     1      -9.926  15.600  68.327  0.00  0.00    +0.058 A 
ATOM     12 CL   UNL     1     -10.734  16.759  69.385  0.00  0.00    -0.082 Cl
ATOM     13  C   UNL     1     -10.258  14.251  68.344  0.00  0.00    +0.014 A 
ATOM     14  N   UNL     1     -10.338  13.907  64.615  0.00  0.00    -0.175 NA
ENDROOT
BRANCH   6  15
ATOM     15  C   UNL     1     -11.047  11.701  68.443  0.00  0.00    +0.028 A 
ATOM     16  C   UNL     1     -10.015  10.815  68.592  0.00  0.00    +0.059 A 
ATOM     17 CL   UNL     1      -8.781  10.674  67.375  0.00  0.00    -0.082 Cl
ATOM     18  C   UNL     1     -10.062   9.949  69.676  0.00  0.00    +0.011 A 
ATOM     19  C   UNL     1     -11.169   9.984  70.488  0.00  0.00    +0.001 A 
ATOM     20  C   UNL     1     -11.953  11.123  70.562  0.00  0.00    +0.000 A 
ATOM     21  C   UNL     1     -11.874  11.979  69.481  0.00  0.00    +0.002 A 
ENDBRANCH   6  15
TORSDOF 1
ENDMDL
MODEL 4
REMARK VINA RESULT:      -6.3      2.613      5.179
REMARK  Name = 
REMARK  1 active torsions:
REMARK  status: ('A' for Active; 'I' for Inactive)
REMARK    1  A    between atoms: C_11  and  C_12
REMARK                            x       y       z     vdW  Elec       q    Type
REMARK                         _______ _______ _______ _____ _____    ______ ____
ROOT
ATOM      1  O   UNL     1     -13.026  15.133  70.929  0.00  0.00    -0.268 OA
ATOM      2  C   UNL     1     -12.430  15.148  69.900  0.00  0.00    +0.300 C 
ATOM      3  C   UNL     1     -11.635  13.719  69.825  0.00  0.00    +0.333 C 
ATOM      4  O   UNL     1     -10.256  14.346  69.503  0.00  0.00    -0.186 OA
ATOM      5  N   UNL     1     -12.061  13.450  68.309  0.00  0.00    -0.233 NA
ATOM      6  C   UNL     1     -11.538  13.996  67.305  0.00  0.00    +0.081 C 
ATOM      7  C   UNL     1     -10.926  15.310  67.208  0.00  0.00    +0.034 A 
ATOM      8  C   UNL     1     -11.271  16.379  68.030  0.00  0.00    +0.075 A 
ATOM      9  C   UNL     1     -10.531  17.517  67.859  0.00  0.00    +0.018 A 
ATOM     10  C   UNL     1      -9.316  17.525  67.188  0.00  0.00    +0.013 A 
ATOM     11  C   UNL     1      -8.869  16.348  66.626  0.00  0.00    +0.058 A 
ATOM     12 CL   UNL     1      -7.131  16.044  66.590  0.00  0.00    -0.082 Cl
ATOM     13  C   UNL     1      -9.787  15.327  66.413  0.00  0.00    +0.014 A 
ATOM     14  N   UNL     1     -12.017  16.320  69.254  0.00  0.00    -0.175 NA
ENDROOT
BRANCH   6  15
ATOM     15  C   UNL     1     -11.431  13.253  66.049  0.00  0.00    +0.028 A 
ATOM     16  C   UNL     1     -10.452  12.302  65.961  0.00  0.00    +0.059 A 
ATOM     17 CL   UNL     1      -9.503  11.871  67.353  0.00  0.00    -0.082 Cl
ATOM     18  C   UNL     1     -10.158  11.796  64.702  0.00  0.00    +0.011 A 
ATOM     19  C   UNL     1     -10.814  12.327  63.619  0.00  0.00    +0.001 A 
ATOM     20  C   UNL     1     -12.042  12.948  63.774  0.00  0.00    +0.000 A 
ATOM     21  C   UNL     1     -12.320  13.425  65.039  0.00  0.00    +0.002 A 
ENDBRANCH   6  15
TORSDOF 1
ENDMDL
MODEL 5
REMARK VINA RESULT:      -6.2      2.882      5.223
REMARK  Name = 
REMARK  1 active torsions:
REMARK  status: ('A' for Active; 'I' for Inactive)
REMARK    1  A    between atoms: C_11  and  C_12
REMARK                            x       y       z     vdW  Elec       q    Type
REMARK                         _______ _______ _______ _____ _____    ______ ____
ROOT
ATOM      1  O   UNL     1     -12.786  11.302  71.104  0.00  0.00    -0.268 OA
ATOM      2  C   UNL     1     -12.245  11.797  70.168  0.00  0.00    +0.300 C 
ATOM      3  C   UNL     1     -11.460  10.576  69.411  0.00  0.00    +0.333 C 
ATOM      4  O   UNL     1     -10.098  11.310  69.342  0.00  0.00    -0.186 OA
ATOM      5  N   UNL     1     -11.966  11.019  67.961  0.00  0.00    -0.233 NA
ATOM      6  C   UNL     1     -11.496  11.973  67.293  0.00  0.00    +0.081 C 
ATOM      7  C   UNL     1     -10.886  13.200  67.776  0.00  0.00    +0.034 A 
ATOM      8  C   UNL     1     -11.183  13.769  69.011  0.00  0.00    +0.075 A 
ATOM      9  C   UNL     1     -10.450  14.875  69.342  0.00  0.00    +0.018 A 
ATOM     10  C   UNL     1      -9.272  15.214  68.690  0.00  0.00    +0.013 A 
ATOM     11  C   UNL     1      -8.860  14.432  67.632  0.00  0.00    +0.058 A 
ATOM     12 CL   UNL     1      -7.126  14.215  67.377  0.00  0.00    -0.082 Cl
ATOM     13  C   UNL     1      -9.791  13.602  67.022  0.00  0.00    +0.014 A 
ATOM     14  N   UNL     1     -11.863  13.143  70.108  0.00  0.00    -0.175 NA
ENDROOT
BRANCH   6  15
ATOM     15  C   UNL     1     -11.458  11.886  65.833  0.00  0.00    +0.028 A 
ATOM     16  C   UNL     1     -10.586  10.991  65.277  0.00  0.00    +0.059 A 
ATOM     17 CL   UNL     1      -9.701   9.875  66.275  0.00  0.00    -0.082 Cl
ATOM     18  C   UNL     1     -10.337  11.095  63.915  0.00  0.00    +0.011 A 
ATOM     19  C   UNL     1     -10.922  12.129  63.225  0.00  0.00    +0.001 A 
ATOM     20  C   UNL     1     -12.078  12.727  63.699  0.00  0.00    +0.000 A 
ATOM     21  C   UNL     1     -12.314  12.592  65.053  0.00  0.00    +0.002 A 
ENDBRANCH   6  15
TORSDOF 1
ENDMDL
MODEL 6
REMARK VINA RESULT:      -6.2      2.685      4.081
REMARK  Name = 
REMARK  1 active torsions:
REMARK  status: ('A' for Active; 'I' for Inactive)
REMARK    1  A    between atoms: C_11  and  C_12
REMARK                            x       y       z     vdW  Elec       q    Type
REMARK                         _______ _______ _______ _____ _____    ______ ____
ROOT
ATOM      1  O   UNL     1      -6.739  15.537  66.991  0.00  0.00    -0.268 OA
ATOM      2  C   UNL     1      -7.877  15.192  67.019  0.00  0.00    +0.300 C 
ATOM      3  C   UNL     1      -7.858  13.642  67.545  0.00  0.00    +0.333 C 
ATOM      4  O   UNL     1      -8.743  13.096  66.398  0.00  0.00    -0.186 OA
ATOM      5  N   UNL     1      -9.049  13.878  68.584  0.00  0.00    -0.233 NA
ATOM      6  C   UNL     1     -10.267  13.948  68.282  0.00  0.00    +0.081 C 
ATOM      7  C   UNL     1     -10.864  14.412  67.042  0.00  0.00    +0.034 A 
ATOM      8  C   UNL     1     -10.255  15.334  66.195  0.00  0.00    +0.075 A 
ATOM      9  C   UNL     1     -10.919  15.590  65.028  0.00  0.00    +0.018 A 
ATOM     10  C   UNL     1     -11.925  14.765  64.542  0.00  0.00    +0.013 A 
ATOM     11  C   UNL     1     -12.302  13.676  65.299  0.00  0.00    +0.058 A 
ATOM     12 CL   UNL     1     -12.817  12.210  64.460  0.00  0.00    -0.082 Cl
ATOM     13  C   UNL     1     -11.961  13.657  66.646  0.00  0.00    +0.014 A 
ATOM     14  N   UNL     1      -8.880  15.744  66.213  0.00  0.00    -0.175 NA
ENDROOT
BRANCH   6  15
ATOM     15  C   UNL     1     -11.276  13.453  69.220  0.00  0.00    +0.028 A 
ATOM     16  C   UNL     1     -11.961  14.381  69.956  0.00  0.00    +0.059 A 
ATOM     17 CL   UNL     1     -11.768  16.081  69.645  0.00  0.00    -0.082 Cl
ATOM     18  C   UNL     1     -12.705  13.924  71.035  0.00  0.00    +0.011 A 
ATOM     19  C   UNL     1     -12.653  12.586  71.340  0.00  0.00    +0.001 A 
ATOM     20  C   UNL     1     -12.316  11.655  70.372  0.00  0.00    +0.000 A 
ATOM     21  C   UNL     1     -11.593  12.137  69.299  0.00  0.00    +0.002 A 
ENDBRANCH   6  15
TORSDOF 1
ENDMDL
MODEL 7
REMARK VINA RESULT:      -6.1      3.777      4.593
REMARK  Name = 
REMARK  1 active torsions:
REMARK  status: ('A' for Active; 'I' for Inactive)
REMARK    1  A    between atoms: C_11  and  C_12
REMARK                            x       y       z     vdW  Elec       q    Type
REMARK                         _______ _______ _______ _____ _____    ______ ____
ROOT
ATOM      1  O   UNL     1     -10.354  20.029  65.605  0.00  0.00    -0.268 OA
ATOM      2  C   UNL     1      -9.990  19.094  66.243  0.00  0.00    +0.300 C 
ATOM      3  C   UNL     1     -10.480  19.384  67.777  0.00  0.00    +0.333 C 
ATOM      4  O   UNL     1      -9.096  19.116  68.418  0.00  0.00    -0.186 OA
ATOM      5  N   UNL     1     -11.052  17.904  67.977  0.00  0.00    -0.233 NA
ATOM      6  C   UNL     1     -10.352  16.886  68.204  0.00  0.00    +0.081 C 
ATOM      7  C   UNL     1      -8.986  16.618  67.790  0.00  0.00    +0.034 A 
ATOM      8  C   UNL     1      -8.404  17.178  66.656  0.00  0.00    +0.075 A 
ATOM      9  C   UNL     1      -7.082  16.887  66.467  0.00  0.00    +0.018 A 
ATOM     10  C   UNL     1      -6.276  16.375  67.476  0.00  0.00    +0.013 A 
ATOM     11  C   UNL     1      -6.852  16.101  68.698  0.00  0.00    +0.058 A 
ATOM     12 CL   UNL     1      -5.878  16.330  70.153  0.00  0.00    -0.082 Cl
ATOM     13  C   UNL     1      -8.233  15.975  68.766  0.00  0.00    +0.014 A 
ATOM     14  N   UNL     1      -8.893  18.294  65.899  0.00  0.00    -0.175 NA
ENDROOT
BRANCH   6  15
ATOM     15  C   UNL     1     -10.886  15.813  69.045  0.00  0.00    +0.028 A 
ATOM     16  C   UNL     1     -11.338  14.686  68.417  0.00  0.00    +0.059 A 
ATOM     17 CL   UNL     1     -11.111  14.469  66.706  0.00  0.00    -0.082 Cl
ATOM     18  C   UNL     1     -12.096  13.793  69.163  0.00  0.00    +0.011 A 
ATOM     19  C   UNL     1     -12.403  14.127  70.460  0.00  0.00    +0.001 A 
ATOM     20  C   UNL     1     -11.611  15.020  71.164  0.00  0.00    +0.000 A 
ATOM     21  C   UNL     1     -10.852  15.884  70.399  0.00  0.00    +0.002 A 
ENDBRANCH   6  15
TORSDOF 1
ENDMDL
MODEL 8
REMARK VINA RESULT:      -6.1      3.134      4.937
REMARK  Name = 
REMARK  1 active torsions:
REMARK  status: ('A' for Active; 'I' for Inactive)
REMARK    1  A    between atoms: C_11  and  C_12
REMARK                            x       y       z     vdW  Elec       q    Type
REMARK                         _______ _______ _______ _____ _____    ______ ____
ROOT
ATOM      1  O   UNL     1      -7.563  12.646  67.243  0.00  0.00    -0.268 OA
ATOM      2  C   UNL     1      -8.367  13.451  67.588  0.00  0.00    +0.300 C 
ATOM      3  C   UNL     1      -7.508  14.690  68.227  0.00  0.00    +0.333 C 
ATOM      4  O   UNL     1      -8.322  14.758  69.543  0.00  0.00    -0.186 OA
ATOM      5  N   UNL     1      -8.349  15.803  67.447  0.00  0.00    -0.233 NA
ATOM      6  C   UNL     1      -9.497  16.198  67.770  0.00  0.00    +0.081 C 
ATOM      7  C   UNL     1     -10.548  15.460  68.449  0.00  0.00    +0.034 A 
ATOM      8  C   UNL     1     -10.674  14.075  68.388  0.00  0.00    +0.075 A 
ATOM      9  C   UNL     1     -11.668  13.540  69.159  0.00  0.00    +0.018 A 
ATOM     10  C   UNL     1     -12.280  14.245  70.187  0.00  0.00    +0.013 A 
ATOM     11  C   UNL     1     -11.905  15.555  70.397  0.00  0.00    +0.058 A 
ATOM     12 CL   UNL     1     -11.905  16.171  72.051  0.00  0.00    -0.082 Cl
ATOM     13  C   UNL     1     -11.246  16.226  69.375  0.00  0.00    +0.014 A 
ATOM     14  N   UNL     1      -9.686  13.138  67.938  0.00  0.00    -0.175 NA
ENDROOT
BRANCH   6  15
ATOM     15  C   UNL     1      -9.879  17.590  67.528  0.00  0.00    +0.028 A 
ATOM     16  C   UNL     1     -10.412  17.894  66.306  0.00  0.00    +0.059 A 
ATOM     17 CL   UNL     1     -10.791  16.638  65.164  0.00  0.00    -0.082 Cl
ATOM     18  C   UNL     1     -10.514  19.235  65.963  0.00  0.00    +0.011 A 
ATOM     19  C   UNL     1     -10.012  20.169  66.837  0.00  0.00    +0.001 A 
ATOM     20  C   UNL     1      -9.878  19.874  68.183  0.00  0.00    +0.000 A 
ATOM     21  C   UNL     1      -9.799  18.532  68.501  0.00  0.00    +0.002 A 
ENDBRANCH   6  15
TORSDOF 1
ENDMDL
MODEL 9
REMARK VINA RESULT:      -6.0      3.429      5.020
REMARK  Name = 
REMARK  1 active torsions:
REMARK  status: ('A' for Active; 'I' for Inactive)
REMARK    1  A    between atoms: C_11  and  C_12
REMARK                            x       y       z     vdW  Elec       q    Type
REMARK                         _______ _______ _______ _____ _____    ______ ____
ROOT
ATOM      1  O   UNL     1      -9.708  20.352  66.220  0.00  0.00    -0.268 OA
ATOM      2  C   UNL     1      -9.444  19.196  66.307  0.00  0.00    +0.300 C 
ATOM      3  C   UNL     1     -10.562  18.560  67.320  0.00  0.00    +0.333 C 
ATOM      4  O   UNL     1      -9.533  17.858  68.239  0.00  0.00    -0.186 OA
ATOM      5  N   UNL     1     -10.841  17.299  66.379  0.00  0.00    -0.233 NA
ATOM      6  C   UNL     1     -10.096  16.292  66.283  0.00  0.00    +0.081 C 
ATOM      7  C   UNL     1      -8.656  16.214  66.457  0.00  0.00    +0.034 A 
ATOM      8  C   UNL     1      -7.798  17.289  66.239  0.00  0.00    +0.075 A 
ATOM      9  C   UNL     1      -6.483  17.062  66.537  0.00  0.00    +0.018 A 
ATOM     10  C   UNL     1      -6.065  15.992  67.318  0.00  0.00    +0.013 A 
ATOM     11  C   UNL     1      -7.014  15.095  67.760  0.00  0.00    +0.058 A 
ATOM     12 CL   UNL     1      -6.782  14.343  69.341  0.00  0.00    -0.082 Cl
ATOM     13  C   UNL     1      -8.245  15.062  67.117  0.00  0.00    +0.014 A 
ATOM     14  N   UNL     1      -8.161  18.670  66.113  0.00  0.00    -0.175 NA
ENDROOT
BRANCH   6  15
ATOM     15  C   UNL     1     -10.685  14.976  66.033  0.00  0.00    +0.028 A 
ATOM     16  C   UNL     1     -11.372  14.387  67.059  0.00  0.00    +0.059 A 
ATOM     17 CL   UNL     1     -11.688  15.256  68.532  0.00  0.00    -0.082 Cl
ATOM     18  C   UNL     1     -11.688  13.041  66.933  0.00  0.00    +0.011 A 
ATOM     19  C   UNL     1     -11.233  12.368  65.826  0.00  0.00    +0.001 A 
ATOM     20  C   UNL     1     -10.929  13.052  64.661  0.00  0.00    +0.000 A 
ATOM     21  C   UNL     1     -10.638  14.394  64.809  0.00  0.00    +0.002 A 
ENDBRANCH   6  15
TORSDOF 1
ENDMDL
