MODEL 1
REMARK VINA RESULT:      -6.5      0.000      0.000
REMARK  Name = 
REMARK  5 active torsions:
REMARK  status: ('A' for Active; 'I' for Inactive)
REMARK    1  A    between atoms: C_2  and  C_12
REMARK    2  A    between atoms: C_3  and  C_4
REMARK    3  A    between atoms: C_5  and  C_6
REMARK    4  A    between atoms: C_8  and  C_9
REMARK    5  A    between atoms: C_13  and  C_14
REMARK                            x       y       z     vdW  Elec       q    Type
REMARK                         _______ _______ _______ _____ _____    ______ ____
ROOT
ATOM      1  C   UNL     1     -10.482  15.686  65.313  0.00  0.00    +0.031 C 
ATOM      2  C   UNL     1      -9.759  15.085  66.478  0.00  0.00    -0.022 C 
ATOM      3  C   UNL     1     -10.166  13.878  66.860  0.00  0.00    -0.004 C 
ENDROOT
BRANCH   2   4
ATOM      4  C   UNL     1      -8.331  15.353  66.691  0.00  0.00    -0.005 C 
ATOM      5  C   UNL     1      -8.069  16.360  67.525  0.00  0.00    -0.005 C 
BRANCH   5   6
ATOM      6  C   UNL     1      -8.719  17.634  67.188  0.00  0.00    -0.031 C 
ATOM      7  C   UNL     1      -9.681  18.270  68.141  0.00  0.00    +0.018 C 
ATOM      8  C   UNL     1      -8.893  19.201  69.052  0.00  0.00    +0.004 C 
ATOM      9  C   UNL     1     -10.416  17.261  68.974  0.00  0.00    +0.004 C 
ATOM     10  C   UNL     1     -10.599  19.131  67.306  0.00  0.00    +0.004 C 
ATOM     11  C   UNL     1      -9.767  20.286  66.780  0.00  0.00    +0.005 C 
ATOM     12  C   UNL     1      -8.310  19.947  66.658  0.00  0.00    +0.022 C 
ATOM     13  C   UNL     1      -8.081  18.493  66.389  0.00  0.00    -0.048 C 
ATOM     14  C   UNL     1      -6.798  18.081  65.754  0.00  0.00    +0.026 C 
ENDBRANCH   5   6
ENDBRANCH   2   4
BRANCH   3  15
ATOM     15  C   UNL     1     -11.507  13.370  66.574  0.00  0.00    -0.001 C 
ATOM     16  C   UNL     1     -11.560  12.145  66.051  0.00  0.00    -0.004 C 
BRANCH  16  17
ATOM     17  C   UNL     1     -10.589  11.883  64.982  0.00  0.00    -0.015 C 
ATOM     18  C   UNL     1     -10.831  12.423  63.807  0.00  0.00    +0.082 C 
ATOM     19  C   UNL     1      -9.373  11.045  65.210  0.00  0.00    +0.031 C 
BRANCH  18  20
ATOM     20  C   UNL     1     -12.214  12.701  63.466  0.00  0.00    +0.388 C 
ATOM     21  O   UNL     1     -13.056  11.656  63.145  0.00  0.00    -0.241 OA
ATOM     22  O   UNL     1     -12.577  13.910  63.342  0.00  0.00    -0.241 OA
ENDBRANCH  18  20
ENDBRANCH  16  17
ENDBRANCH   3  15
TORSDOF 5
ENDMDL
MODEL 2
REMARK VINA RESULT:      -6.4      4.512      7.255
REMARK  Name = 
REMARK  5 active torsions:
REMARK  status: ('A' for Active; 'I' for Inactive)
REMARK    1  A    between atoms: C_2  and  C_12
REMARK    2  A    between atoms: C_3  and  C_4
REMARK    3  A    between atoms: C_5  and  C_6
REMARK    4  A    between atoms: C_8  and  C_9
REMARK    5  A    between atoms: C_13  and  C_14
REMARK                            x       y       z     vdW  Elec       q    Type
REMARK                         _______ _______ _______ _____ _____    ______ ____
ROOT
ATOM      1  C   UNL     1     -12.077  10.802  69.473  0.00  0.00    +0.031 C 
ATOM      2  C   UNL     1     -11.272  12.009  69.108  0.00  0.00    -0.022 C 
ATOM      3  C   UNL     1     -11.447  13.083  69.872  0.00  0.00    -0.004 C 
ENDROOT
BRANCH   2   4
ATOM      4  C   UNL     1      -9.924  11.866  68.543  0.00  0.00    -0.005 C 
ATOM      5  C   UNL     1      -9.701  12.581  67.440  0.00  0.00    -0.005 C 
BRANCH   5   6
ATOM      6  C   UNL     1     -10.667  12.369  66.353  0.00  0.00    -0.031 C 
ATOM      7  C   UNL     1     -11.376  13.531  65.731  0.00  0.00    +0.018 C 
ATOM      8  C   UNL     1     -10.540  14.015  64.554  0.00  0.00    +0.004 C 
ATOM      9  C   UNL     1     -11.582  14.662  66.695  0.00  0.00    +0.004 C 
ATOM     10  C   UNL     1     -12.669  12.988  65.169  0.00  0.00    +0.004 C 
ATOM     11  C   UNL     1     -12.303  12.095  63.998  0.00  0.00    +0.005 C 
ATOM     12  C   UNL     1     -10.927  11.507  64.120  0.00  0.00    +0.022 C 
ATOM     13  C   UNL     1     -10.510  11.319  65.545  0.00  0.00    -0.048 C 
ATOM     14  C   UNL     1      -9.447  10.319  65.847  0.00  0.00    +0.026 C 
ENDBRANCH   5   6
ENDBRANCH   2   4
BRANCH   3  15
ATOM     15  C   UNL     1     -12.663  13.305  70.654  0.00  0.00    -0.001 C 
ATOM     16  C   UNL     1     -13.062  14.573  70.752  0.00  0.00    -0.004 C 
BRANCH  16  17
ATOM     17  C   UNL     1     -11.995  15.541  71.032  0.00  0.00    -0.015 C 
ATOM     18  C   UNL     1     -11.710  15.770  72.295  0.00  0.00    +0.082 C 
ATOM     19  C   UNL     1     -11.254  16.237  69.935  0.00  0.00    +0.031 C 
BRANCH  18  20
ATOM     20  C   UNL     1     -12.765  15.565  73.271  0.00  0.00    +0.388 C 
ATOM     21  O   UNL     1     -13.920  16.315  73.188  0.00  0.00    -0.241 OA
ATOM     22  O   UNL     1     -12.540  14.795  74.253  0.00  0.00    -0.241 OA
ENDBRANCH  18  20
ENDBRANCH  16  17
ENDBRANCH   3  15
TORSDOF 5
ENDMDL
MODEL 3
REMARK VINA RESULT:      -5.8      3.251      7.106
REMARK  Name = 
REMARK  5 active torsions:
REMARK  status: ('A' for Active; 'I' for Inactive)
REMARK    1  A    between atoms: C_2  and  C_12
REMARK    2  A    between atoms: C_3  and  C_4
REMARK    3  A    between atoms: C_5  and  C_6
REMARK    4  A    between atoms: C_8  and  C_9
REMARK    5  A    between atoms: C_13  and  C_14
REMARK                            x       y       z     vdW  Elec       q    Type
REMARK                         _______ _______ _______ _____ _____    ______ ____
ROOT
ATOM      1  C   UNL     1      -8.375  15.981  66.368  0.00  0.00    +0.031 C 
ATOM      2  C   UNL     1      -9.837  16.034  66.683  0.00  0.00    -0.022 C 
ATOM      3  C   UNL     1     -10.245  17.080  67.395  0.00  0.00    -0.004 C 
ENDROOT
BRANCH   2   4
ATOM      4  C   UNL     1     -10.825  15.509  65.732  0.00  0.00    -0.005 C 
ATOM      5  C   UNL     1     -11.462  14.409  66.137  0.00  0.00    -0.005 C 
BRANCH   5   6
ATOM      6  C   UNL     1     -10.591  13.296  66.538  0.00  0.00    -0.031 C 
ATOM      7  C   UNL     1     -10.673  12.729  67.921  0.00  0.00    +0.018 C 
ATOM      8  C   UNL     1     -11.690  11.597  67.904  0.00  0.00    +0.004 C 
ATOM      9  C   UNL     1     -11.083  13.753  68.939  0.00  0.00    +0.004 C 
ATOM     10  C   UNL     1      -9.323  12.115  68.208  0.00  0.00    +0.004 C 
ATOM     11  C   UNL     1      -9.187  10.901  67.308  0.00  0.00    +0.005 C 
ATOM     12  C   UNL     1     -10.000  11.013  66.051  0.00  0.00    +0.022 C 
ATOM     13  C   UNL     1     -10.178  12.432  65.609  0.00  0.00    -0.048 C 
ATOM     14  C   UNL     1     -10.495  12.695  64.177  0.00  0.00    +0.026 C 
ENDBRANCH   5   6
ENDBRANCH   2   4
BRANCH   3  15
ATOM     15  C   UNL     1      -9.349  17.840  68.265  0.00  0.00    -0.001 C 
ATOM     16  C   UNL     1      -9.348  19.160  68.078  0.00  0.00    -0.004 C 
BRANCH  16  17
ATOM     17  C   UNL     1      -9.314  19.591  66.675  0.00  0.00    -0.015 C 
ATOM     18  C   UNL     1      -8.129  19.751  66.126  0.00  0.00    +0.082 C 
ATOM     19  C   UNL     1     -10.566  19.831  65.894  0.00  0.00    +0.031 C 
BRANCH  18  20
ATOM     20  C   UNL     1      -7.020  20.080  67.002  0.00  0.00    +0.388 C 
ATOM     21  O   UNL     1      -6.830  21.390  67.392  0.00  0.00    -0.241 OA
ATOM     22  O   UNL     1      -6.177  19.174  67.279  0.00  0.00    -0.241 OA
ENDBRANCH  18  20
ENDBRANCH  16  17
ENDBRANCH   3  15
TORSDOF 5
ENDMDL
MODEL 4
REMARK VINA RESULT:      -5.7      1.827      2.249
REMARK  Name = 
REMARK  5 active torsions:
REMARK  status: ('A' for Active; 'I' for Inactive)
REMARK    1  A    between atoms: C_2  and  C_12
REMARK    2  A    between atoms: C_3  and  C_4
REMARK    3  A    between atoms: C_5  and  C_6
REMARK    4  A    between atoms: C_8  and  C_9
REMARK    5  A    between atoms: C_13  and  C_14
REMARK                            x       y       z     vdW  Elec       q    Type
REMARK                         _______ _______ _______ _____ _____    ______ ____
ROOT
ATOM      1  C   UNL     1     -10.617  15.756  65.046  0.00  0.00    +0.031 C 
ATOM      2  C   UNL     1      -9.933  15.138  66.225  0.00  0.00    -0.022 C 
ATOM      3  C   UNL     1     -10.377  13.942  66.599  0.00  0.00    -0.004 C 
ENDROOT
BRANCH   2   4
ATOM      4  C   UNL     1      -8.503  15.371  66.465  0.00  0.00    -0.005 C 
ATOM      5  C   UNL     1      -8.234  16.322  67.360  0.00  0.00    -0.005 C 
BRANCH   5   6
ATOM      6  C   UNL     1      -8.861  17.624  67.094  0.00  0.00    -0.031 C 
ATOM      7  C   UNL     1      -9.834  18.210  68.068  0.00  0.00    +0.018 C 
ATOM      8  C   UNL     1      -9.052  19.070  69.052  0.00  0.00    +0.004 C 
ATOM      9  C   UNL     1     -10.598  17.160  68.821  0.00  0.00    +0.004 C 
ATOM     10  C   UNL     1     -10.724  19.136  67.273  0.00  0.00    +0.004 C 
ATOM     11  C   UNL     1      -9.868  20.311  66.839  0.00  0.00    +0.005 C 
ATOM     12  C   UNL     1      -8.413  19.961  66.722  0.00  0.00    +0.022 C 
ATOM     13  C   UNL     1      -8.198  18.524  66.365  0.00  0.00    -0.048 C 
ATOM     14  C   UNL     1      -6.907  18.136  65.728  0.00  0.00    +0.026 C 
ENDBRANCH   5   6
ENDBRANCH   2   4
BRANCH   3  15
ATOM     15  C   UNL     1     -11.725  13.468  66.287  0.00  0.00    -0.001 C 
ATOM     16  C   UNL     1     -11.827  12.169  66.006  0.00  0.00    -0.004 C 
BRANCH  16  17
ATOM     17  C   UNL     1     -10.794  11.642  65.107  0.00  0.00    -0.015 C 
ATOM     18  C   UNL     1     -10.179  10.541  65.480  0.00  0.00    +0.082 C 
ATOM     19  C   UNL     1     -10.452  12.318  63.817  0.00  0.00    +0.031 C 
BRANCH  18  20
ATOM     20  C   UNL     1     -10.098  10.264  66.902  0.00  0.00    +0.388 C 
ATOM     21  O   UNL     1      -9.123  10.881  67.659  0.00  0.00    -0.241 OA
ATOM     22  O   UNL     1     -10.843   9.360  67.387  0.00  0.00    -0.241 OA
ENDBRANCH  18  20
ENDBRANCH  16  17
ENDBRANCH   3  15
TORSDOF 5
ENDMDL
MODEL 5
REMARK VINA RESULT:      -5.7      4.193      7.324
REMARK  Name = 
REMARK  5 active torsions:
REMARK  status: ('A' for Active; 'I' for Inactive)
REMARK    1  A    between atoms: C_2  and  C_12
REMARK    2  A    between atoms: C_3  and  C_4
REMARK    3  A    between atoms: C_5  and  C_6
REMARK    4  A    between atoms: C_8  and  C_9
REMARK    5  A    between atoms: C_13  and  C_14
REMARK                            x       y       z     vdW  Elec       q    Type
REMARK                         _______ _______ _______ _____ _____    ______ ____
ROOT
ATOM      1  C   UNL     1     -10.662  15.402  67.302  0.00  0.00    +0.031 C 
ATOM      2  C   UNL     1     -11.530  14.221  67.602  0.00  0.00    -0.022 C 
ATOM      3  C   UNL     1     -12.202  14.264  68.749  0.00  0.00    -0.004 C 
ENDROOT
BRANCH   2   4
ATOM      4  C   UNL     1     -12.202  13.493  66.519  0.00  0.00    -0.005 C 
ATOM      5  C   UNL     1     -11.934  12.188  66.471  0.00  0.00    -0.005 C 
BRANCH   5   6
ATOM      6  C   UNL     1     -10.506  11.846  66.422  0.00  0.00    -0.031 C 
ATOM      7  C   UNL     1      -9.923  10.880  67.406  0.00  0.00    +0.018 C 
ATOM      8  C   UNL     1     -10.021   9.484  66.807  0.00  0.00    +0.004 C 
ATOM      9  C   UNL     1     -10.634  10.907  68.727  0.00  0.00    +0.004 C 
ATOM     10  C   UNL     1      -8.455  11.220  67.514  0.00  0.00    +0.004 C 
ATOM     11  C   UNL     1      -7.814  10.846  66.191  0.00  0.00    +0.005 C 
ATOM     12  C   UNL     1      -8.780  10.889  65.043  0.00  0.00    +0.022 C 
ATOM     13  C   UNL     1      -9.870  11.892  65.249  0.00  0.00    -0.048 C 
ATOM     14  C   UNL     1     -10.586  12.420  64.054  0.00  0.00    +0.026 C 
ENDBRANCH   5   6
ENDBRANCH   2   4
BRANCH   3  15
ATOM     15  C   UNL     1     -11.774  15.082  69.883  0.00  0.00    -0.001 C 
ATOM     16  C   UNL     1     -11.639  14.435  71.041  0.00  0.00    -0.004 C 
BRANCH  16  17
ATOM     17  C   UNL     1     -12.724  13.501  71.362  0.00  0.00    -0.015 C 
ATOM     18  C   UNL     1     -13.757  13.985  72.018  0.00  0.00    +0.082 C 
ATOM     19  C   UNL     1     -12.671  12.062  70.960  0.00  0.00    +0.031 C 
BRANCH  18  20
ATOM     20  C   UNL     1     -13.534  15.141  72.866  0.00  0.00    +0.388 C 
ATOM     21  O   UNL     1     -12.681  15.037  73.945  0.00  0.00    -0.241 OA
ATOM     22  O   UNL     1     -14.234  16.180  72.669  0.00  0.00    -0.241 OA
ENDBRANCH  18  20
ENDBRANCH  16  17
ENDBRANCH   3  15
TORSDOF 5
ENDMDL
MODEL 6
REMARK VINA RESULT:      -5.6      4.955      8.180
REMARK  Name = 
REMARK  5 active torsions:
REMARK  status: ('A' for Active; 'I' for Inactive)
REMARK    1  A    between atoms: C_2  and  C_12
REMARK    2  A    between atoms: C_3  and  C_4
REMARK    3  A    between atoms: C_5  and  C_6
REMARK    4  A    between atoms: C_8  and  C_9
REMARK    5  A    between atoms: C_13  and  C_14
REMARK                            x       y       z     vdW  Elec       q    Type
REMARK                         _______ _______ _______ _____ _____    ______ ____
ROOT
ATOM      1  C   UNL     1      -6.145  18.708  66.610  0.00  0.00    +0.031 C 
ATOM      2  C   UNL     1      -6.805  18.639  67.951  0.00  0.00    -0.022 C 
ATOM      3  C   UNL     1      -5.995  18.649  69.004  0.00  0.00    -0.004 C 
ENDROOT
BRANCH   2   4
ATOM      4  C   UNL     1      -8.115  19.264  68.171  0.00  0.00    -0.005 C 
ATOM      5  C   UNL     1      -9.110  18.410  68.414  0.00  0.00    -0.005 C 
BRANCH   5   6
ATOM      6  C   UNL     1      -9.283  17.352  67.410  0.00  0.00    -0.031 C 
ATOM      7  C   UNL     1      -9.301  15.913  67.819  0.00  0.00    +0.018 C 
ATOM      8  C   UNL     1     -10.745  15.526  68.109  0.00  0.00    +0.004 C 
ATOM      9  C   UNL     1      -8.461  15.650  69.035  0.00  0.00    +0.004 C 
ATOM     10  C   UNL     1      -8.859  15.122  66.611  0.00  0.00    +0.004 C 
ATOM     11  C   UNL     1      -9.964  15.236  65.577  0.00  0.00    +0.005 C 
ATOM     12  C   UNL     1     -10.772  16.493  65.723  0.00  0.00    +0.022 C 
ATOM     13  C   UNL     1      -9.975  17.621  66.301  0.00  0.00    -0.048 C 
ATOM     14  C   UNL     1     -10.434  19.016  66.049  0.00  0.00    +0.026 C 
ENDBRANCH   5   6
ENDBRANCH   2   4
BRANCH   3  15
ATOM     15  C   UNL     1      -4.597  18.227  68.929  0.00  0.00    -0.001 C 
ATOM     16  C   UNL     1      -3.725  19.005  69.571  0.00  0.00    -0.004 C 
BRANCH  16  17
ATOM     17  C   UNL     1      -3.917  20.447  69.378  0.00  0.00    -0.015 C 
ATOM     18  C   UNL     1      -4.023  21.187  70.461  0.00  0.00    +0.082 C 
ATOM     19  C   UNL     1      -3.984  21.059  68.016  0.00  0.00    +0.031 C 
BRANCH  18  20
ATOM     20  C   UNL     1      -4.529  20.551  71.663  0.00  0.00    +0.388 C 
ATOM     21  O   UNL     1      -5.891  20.494  71.878  0.00  0.00    -0.241 OA
ATOM     22  O   UNL     1      -3.700  20.184  72.549  0.00  0.00    -0.241 OA
ENDBRANCH  18  20
ENDBRANCH  16  17
ENDBRANCH   3  15
TORSDOF 5
ENDMDL
MODEL 7
REMARK VINA RESULT:      -5.4      4.853      7.350
REMARK  Name = 
REMARK  5 active torsions:
REMARK  status: ('A' for Active; 'I' for Inactive)
REMARK    1  A    between atoms: C_2  and  C_12
REMARK    2  A    between atoms: C_3  and  C_4
REMARK    3  A    between atoms: C_5  and  C_6
REMARK    4  A    between atoms: C_8  and  C_9
REMARK    5  A    between atoms: C_13  and  C_14
REMARK                            x       y       z     vdW  Elec       q    Type
REMARK                         _______ _______ _______ _____ _____    ______ ____
ROOT
ATOM      1  C   UNL     1     -10.772   8.524  67.470  0.00  0.00    +0.031 C 
ATOM      2  C   UNL     1     -10.122   9.853  67.691  0.00  0.00    -0.022 C 
ATOM      3  C   UNL     1     -10.163  10.326  68.933  0.00  0.00    -0.004 C 
ENDROOT
BRANCH   2   4
ATOM      4  C   UNL     1      -8.934  10.241  66.920  0.00  0.00    -0.005 C 
ATOM      5  C   UNL     1      -8.999  11.450  66.361  0.00  0.00    -0.005 C 
BRANCH   5   6
ATOM      6  C   UNL     1     -10.177  11.683  65.515  0.00  0.00    -0.031 C 
ATOM      7  C   UNL     1     -11.007  12.915  65.693  0.00  0.00    +0.018 C 
ATOM      8  C   UNL     1     -10.447  13.994  64.775  0.00  0.00    +0.004 C 
ATOM      9  C   UNL     1     -11.001  13.413  67.109  0.00  0.00    +0.004 C 
ATOM     10  C   UNL     1     -12.389  12.572  65.190  0.00  0.00    +0.004 C 
ATOM     11  C   UNL     1     -12.284  12.400  63.686  0.00  0.00    +0.005 C 
ATOM     12  C   UNL     1     -10.913  11.979  63.242  0.00  0.00    +0.022 C 
ATOM     13  C   UNL     1     -10.197  11.175  64.281  0.00  0.00    -0.048 C 
ATOM     14  C   UNL     1      -9.091  10.277  63.845  0.00  0.00    +0.026 C 
ENDBRANCH   5   6
ENDBRANCH   2   4
BRANCH   3  15
ATOM     15  C   UNL     1     -11.176   9.912  69.902  0.00  0.00    -0.001 C 
ATOM     16  C   UNL     1     -10.710   9.458  71.065  0.00  0.00    -0.004 C 
BRANCH  16  17
ATOM     17  C   UNL     1      -9.578   8.530  70.963  0.00  0.00    -0.015 C 
ATOM     18  C   UNL     1      -9.861   7.252  70.828  0.00  0.00    +0.082 C 
ATOM     19  C   UNL     1      -8.161   9.007  71.000  0.00  0.00    +0.031 C 
BRANCH  18  20
ATOM     20  C   UNL     1     -11.124   6.782  71.366  0.00  0.00    +0.388 C 
ATOM     21  O   UNL     1     -11.227   6.506  72.714  0.00  0.00    -0.241 OA
ATOM     22  O   UNL     1     -12.063   6.512  70.558  0.00  0.00    -0.241 OA
ENDBRANCH  18  20
ENDBRANCH  16  17
ENDBRANCH   3  15
TORSDOF 5
ENDMDL
MODEL 8
REMARK VINA RESULT:      -5.3      1.453      3.021
REMARK  Name = 
REMARK  5 active torsions:
REMARK  status: ('A' for Active; 'I' for Inactive)
REMARK    1  A    between atoms: C_2  and  C_12
REMARK    2  A    between atoms: C_3  and  C_4
REMARK    3  A    between atoms: C_5  and  C_6
REMARK    4  A    between atoms: C_8  and  C_9
REMARK    5  A    between atoms: C_13  and  C_14
REMARK                            x       y       z     vdW  Elec       q    Type
REMARK                         _______ _______ _______ _____ _____    ______ ____
ROOT
ATOM      1  C   UNL     1      -9.263  15.502  68.458  0.00  0.00    +0.031 C 
ATOM      2  C   UNL     1      -9.491  16.041  67.080  0.00  0.00    -0.022 C 
ATOM      3  C   UNL     1      -9.775  15.145  66.141  0.00  0.00    -0.004 C 
ENDROOT
BRANCH   2   4
ATOM      4  C   UNL     1     -10.109  17.358  66.886  0.00  0.00    -0.005 C 
ATOM      5  C   UNL     1      -9.261  18.329  66.545  0.00  0.00    -0.005 C 
BRANCH   5   6
ATOM      6  C   UNL     1      -8.114  18.502  67.446  0.00  0.00    -0.031 C 
ATOM      7  C   UNL     1      -6.722  18.557  66.901  0.00  0.00    +0.018 C 
ATOM      8  C   UNL     1      -6.389  20.013  66.608  0.00  0.00    +0.004 C 
ATOM      9  C   UNL     1      -6.563  17.748  65.647  0.00  0.00    +0.004 C 
ATOM     10  C   UNL     1      -5.810  18.105  68.017  0.00  0.00    +0.004 C 
ATOM     11  C   UNL     1      -5.843  19.186  69.082  0.00  0.00    +0.005 C 
ATOM     12  C   UNL     1      -7.122  19.971  69.076  0.00  0.00    +0.022 C 
ATOM     13  C   UNL     1      -8.286  19.165  68.591  0.00  0.00    -0.048 C 
ATOM     14  C   UNL     1      -9.658  19.591  68.987  0.00  0.00    +0.026 C 
ENDBRANCH   5   6
ENDBRANCH   2   4
BRANCH   3  15
ATOM     15  C   UNL     1      -9.392  13.737  66.251  0.00  0.00    -0.001 C 
ATOM     16  C   UNL     1     -10.326  12.856  65.892  0.00  0.00    -0.004 C 
BRANCH  16  17
ATOM     17  C   UNL     1     -11.676  13.141  66.393  0.00  0.00    -0.015 C 
ATOM     18  C   UNL     1     -12.650  13.163  65.510  0.00  0.00    +0.082 C 
ATOM     19  C   UNL     1     -11.943  13.390  67.843  0.00  0.00    +0.031 C 
BRANCH  18  20
ATOM     20  C   UNL     1     -12.309  13.500  64.140  0.00  0.00    +0.388 C 
ATOM     21  O   UNL     1     -11.765  12.534  63.320  0.00  0.00    -0.241 OA
ATOM     22  O   UNL     1     -12.398  14.711  63.774  0.00  0.00    -0.241 OA
ENDBRANCH  18  20
ENDBRANCH  16  17
ENDBRANCH   3  15
TORSDOF 5
ENDMDL
MODEL 9
REMARK VINA RESULT:      -5.3      3.196      6.792
REMARK  Name = 
REMARK  5 active torsions:
REMARK  status: ('A' for Active; 'I' for Inactive)
REMARK    1  A    between atoms: C_2  and  C_12
REMARK    2  A    between atoms: C_3  and  C_4
REMARK    3  A    between atoms: C_5  and  C_6
REMARK    4  A    between atoms: C_8  and  C_9
REMARK    5  A    between atoms: C_13  and  C_14
REMARK                            x       y       z     vdW  Elec       q    Type
REMARK                         _______ _______ _______ _____ _____    ______ ____
ROOT
ATOM      1  C   UNL     1     -10.731  19.303  67.089  0.00  0.00    +0.031 C 
ATOM      2  C   UNL     1      -9.599  18.451  67.573  0.00  0.00    -0.022 C 
ATOM      3  C   UNL     1      -8.381  18.824  67.192  0.00  0.00    -0.004 C 
ENDROOT
BRANCH   2   4
ATOM      4  C   UNL     1      -9.664  17.800  68.888  0.00  0.00    -0.005 C 
ATOM      5  C   UNL     1      -9.510  16.475  68.864  0.00  0.00    -0.005 C 
BRANCH   5   6
ATOM      6  C   UNL     1     -10.423  15.758  67.963  0.00  0.00    -0.031 C 
ATOM      7  C   UNL     1      -9.883  14.927  66.841  0.00  0.00    +0.018 C 
ATOM      8  C   UNL     1      -9.684  13.510  67.361  0.00  0.00    +0.004 C 
ATOM      9  C   UNL     1      -8.580  15.452  66.312  0.00  0.00    +0.004 C 
ATOM     10  C   UNL     1     -10.970  14.872  65.794  0.00  0.00    +0.004 C 
ATOM     11  C   UNL     1     -12.101  14.042  66.371  0.00  0.00    +0.005 C 
ATOM     12  C   UNL     1     -12.143  14.076  67.871  0.00  0.00    +0.022 C 
ATOM     13  C   UNL     1     -11.607  15.357  68.429  0.00  0.00    -0.048 C 
ATOM     14  C   UNL     1     -12.027  15.765  69.799  0.00  0.00    +0.026 C 
ENDBRANCH   5   6
ENDBRANCH   2   4
BRANCH   3  15
ATOM     15  C   UNL     1      -8.141  19.633  65.998  0.00  0.00    -0.001 C 
ATOM     16  C   UNL     1      -6.880  19.664  65.566  0.00  0.00    -0.004 C 
BRANCH  16  17
ATOM     17  C   UNL     1      -5.867  19.841  66.613  0.00  0.00    -0.015 C 
ATOM     18  C   UNL     1      -4.805  19.068  66.556  0.00  0.00    +0.082 C 
ATOM     19  C   UNL     1      -6.024  20.859  67.697  0.00  0.00    +0.031 C 
BRANCH  18  20
ATOM     20  C   UNL     1      -4.946  17.777  65.908  0.00  0.00    +0.388 C 
ATOM     21  O   UNL     1      -5.484  16.720  66.613  0.00  0.00    -0.241 OA
ATOM     22  O   UNL     1      -4.448  17.621  64.753  0.00  0.00    -0.241 OA
ENDBRANCH  18  20
ENDBRANCH  16  17
ENDBRANCH   3  15
TORSDOF 5
ENDMDL
