MODEL 1
REMARK VINA RESULT:      -7.4      0.000      0.000
REMARK  Name = 
REMARK  3 active torsions:
REMARK  status: ('A' for Active; 'I' for Inactive)
REMARK    1  A    between atoms: O_2  and  C_3
REMARK    2  A    between atoms: C_12  and  C_14
REMARK    3  A    between atoms: C_26  and  O_27
REMARK                            x       y       z     vdW  Elec       q    Type
REMARK                         _______ _______ _______ _____ _____    ______ ____
ROOT
ATOM      1  C   UNL     1     -12.818  14.297  71.006  0.00  0.00    +0.174 A 
ATOM      2  C   UNL     1     -12.267  13.207  70.342  0.00  0.00    +0.173 A 
ATOM      3  C   UNL     1     -11.835  13.292  69.023  0.00  0.00    +0.044 A 
ATOM      4  C   UNL     1     -11.693  14.569  68.513  0.00  0.00    +0.056 A 
ATOM      5  C   UNL     1     -11.740  15.667  69.364  0.00  0.00    +0.090 A 
ATOM      6  N   UNL     1     -11.072  16.795  69.020  0.00  0.00    -0.213 NA
ATOM      7  C   UNL     1     -10.345  16.804  67.876  0.00  0.00    +0.221 A 
ATOM      8  N   UNL     1     -10.728  15.950  66.900  0.00  0.00    -0.195 NA
ATOM      9  N   UNL     1      -9.116  17.537  67.813  0.00  0.00    -0.275 N 
ATOM     10  C   UNL     1      -7.917  16.875  67.357  0.00  0.00    +0.115 C 
ATOM     11  C   UNL     1      -7.377  17.574  66.113  0.00  0.00    +0.115 C 
ATOM     12  N   UNL     1      -7.386  18.997  66.452  0.00  0.00    -0.274 N 
ATOM     13  C   UNL     1      -6.434  19.569  67.352  0.00  0.00    +0.253 C 
ATOM     14  O   UNL     1      -6.788  20.201  68.396  0.00  0.00    -0.272 OA
ATOM     15  C   UNL     1      -8.746  19.526  66.574  0.00  0.00    +0.115 C 
ATOM     16  C   UNL     1      -9.236  18.989  67.915  0.00  0.00    +0.115 C 
ATOM     17  C   UNL     1     -11.463  14.846  67.188  0.00  0.00    +0.174 A 
ATOM     18  N   UNL     1     -11.714  13.820  66.235  0.00  0.00    -0.107 NA
ATOM     19  C   UNL     1     -12.429  15.558  70.566  0.00  0.00    +0.059 A 
ENDROOT
BRANCH  13  20
ATOM     20  C   UNL     1      -5.231  18.499  67.748  0.00  0.00    +0.191 C 
ATOM     21  O   UNL     1      -4.473  18.728  66.412  0.00  0.00    -0.347 OA
ATOM     22  C   UNL     1      -4.643  20.058  66.236  0.00  0.00    +0.143 C 
ATOM     23  C   UNL     1      -4.440  20.784  67.520  0.00  0.00    +0.035 C 
ATOM     24  C   UNL     1      -4.316  19.690  68.515  0.00  0.00    +0.042 C 
ENDBRANCH  13  20
BRANCH   1  26
ATOM     25  C   UNL     1     -15.000  14.965  71.546  0.00  0.00    +0.253 C 
ATOM     26  O   UNL     1     -13.967  14.112  71.785  0.00  0.00    -0.468 OA
ENDBRANCH   1  26
BRANCH   2  27
ATOM     27  O   UNL     1     -12.268  11.990  71.002  0.00  0.00    -0.468 OA
ATOM     28  C   UNL     1     -11.879  10.780  70.405  0.00  0.00    +0.253 C 
ENDBRANCH   2  27
TORSDOF 3
ENDMDL
MODEL 2
REMARK VINA RESULT:      -7.3      2.504      3.336
REMARK  Name = 
REMARK  3 active torsions:
REMARK  status: ('A' for Active; 'I' for Inactive)
REMARK    1  A    between atoms: O_2  and  C_3
REMARK    2  A    between atoms: C_12  and  C_14
REMARK    3  A    between atoms: C_26  and  O_27
REMARK                            x       y       z     vdW  Elec       q    Type
REMARK                         _______ _______ _______ _____ _____    ______ ____
ROOT
ATOM      1  C   UNL     1     -11.179  12.478  66.909  0.00  0.00    +0.174 A 
ATOM      2  C   UNL     1     -10.981  12.539  65.534  0.00  0.00    +0.173 A 
ATOM      3  C   UNL     1     -10.932  13.750  64.852  0.00  0.00    +0.044 A 
ATOM      4  C   UNL     1     -10.780  14.881  65.634  0.00  0.00    +0.056 A 
ATOM      5  C   UNL     1     -10.445  14.757  66.978  0.00  0.00    +0.090 A 
ATOM      6  N   UNL     1      -9.764  15.761  67.581  0.00  0.00    -0.213 NA
ATOM      7  C   UNL     1      -9.395  16.838  66.845  0.00  0.00    +0.221 A 
ATOM      8  N   UNL     1     -10.144  17.120  65.754  0.00  0.00    -0.195 NA
ATOM      9  N   UNL     1      -8.151  17.497  67.111  0.00  0.00    -0.275 N 
ATOM     10  C   UNL     1      -7.224  17.728  66.029  0.00  0.00    +0.115 C 
ATOM     11  C   UNL     1      -6.974  19.225  65.869  0.00  0.00    +0.115 C 
ATOM     12  N   UNL     1      -6.706  19.705  67.224  0.00  0.00    -0.274 N 
ATOM     13  C   UNL     1      -5.474  19.434  67.897  0.00  0.00    +0.253 C 
ATOM     14  O   UNL     1      -5.436  18.848  69.023  0.00  0.00    -0.272 OA
ATOM     15  C   UNL     1      -7.898  19.651  68.074  0.00  0.00    +0.115 C 
ATOM     16  C   UNL     1      -8.053  18.169  68.404  0.00  0.00    +0.115 C 
ATOM     17  C   UNL     1     -10.901  16.164  65.161  0.00  0.00    +0.174 A 
ATOM     18  N   UNL     1     -11.539  16.358  63.904  0.00  0.00    -0.107 NA
ATOM     19  C   UNL     1     -10.774  13.584  67.648  0.00  0.00    +0.059 A 
ENDROOT
BRANCH  13  20
ATOM     20  C   UNL     1      -4.354  18.743  66.887  0.00  0.00    +0.191 C 
ATOM     21  O   UNL     1      -3.992  20.100  66.224  0.00  0.00    -0.347 OA
ATOM     22  C   UNL     1      -4.036  20.935  67.288  0.00  0.00    +0.143 C 
ATOM     23  C   UNL     1      -3.379  20.308  68.469  0.00  0.00    +0.035 C 
ATOM     24  C   UNL     1      -3.113  18.920  68.015  0.00  0.00    +0.042 C 
ENDBRANCH  13  20
BRANCH   1  26
ATOM     25  C   UNL     1     -11.717  10.947  68.602  0.00  0.00    +0.253 C 
ATOM     26  O   UNL     1     -12.075  11.535  67.428  0.00  0.00    -0.468 OA
ENDBRANCH   1  26
BRANCH   2  27
ATOM     27  O   UNL     1     -10.949  11.342  64.840  0.00  0.00    -0.468 OA
ATOM     28  C   UNL     1     -10.581  11.235  63.489  0.00  0.00    +0.253 C 
ENDBRANCH   2  27
TORSDOF 3
ENDMDL
MODEL 3
REMARK VINA RESULT:      -7.2      3.087      4.834
REMARK  Name = 
REMARK  3 active torsions:
REMARK  status: ('A' for Active; 'I' for Inactive)
REMARK    1  A    between atoms: O_2  and  C_3
REMARK    2  A    between atoms: C_12  and  C_14
REMARK    3  A    between atoms: C_26  and  O_27
REMARK                            x       y       z     vdW  Elec       q    Type
REMARK                         _______ _______ _______ _____ _____    ______ ____
ROOT
ATOM      1  C   UNL     1     -12.261   9.311  71.786  0.00  0.00    +0.174 A 
ATOM      2  C   UNL     1     -10.919   8.949  71.760  0.00  0.00    +0.173 A 
ATOM      3  C   UNL     1     -10.128   9.141  70.632  0.00  0.00    +0.044 A 
ATOM      4  C   UNL     1     -10.648   9.979  69.662  0.00  0.00    +0.056 A 
ATOM      5  C   UNL     1     -11.765  10.757  69.942  0.00  0.00    +0.090 A 
ATOM      6  N   UNL     1     -11.934  11.927  69.278  0.00  0.00    -0.213 NA
ATOM      7  C   UNL     1     -10.988  12.321  68.392  0.00  0.00    +0.221 A 
ATOM      8  N   UNL     1     -10.241  11.348  67.820  0.00  0.00    -0.195 NA
ATOM      9  N   UNL     1     -10.675  13.711  68.246  0.00  0.00    -0.275 N 
ATOM     10  C   UNL     1      -9.301  14.144  68.340  0.00  0.00    +0.115 C 
ATOM     11  C   UNL     1      -8.877  14.815  67.038  0.00  0.00    +0.115 C 
ATOM     12  N   UNL     1      -9.957  15.753  66.732  0.00  0.00    -0.274 N 
ATOM     13  C   UNL     1     -10.134  16.970  67.459  0.00  0.00    +0.253 C 
ATOM     14  O   UNL     1     -11.222  17.249  68.052  0.00  0.00    -0.272 OA
ATOM     15  C   UNL     1     -11.198  15.064  66.369  0.00  0.00    +0.115 C 
ATOM     16  C   UNL     1     -11.740  14.547  67.698  0.00  0.00    +0.115 C 
ATOM     17  C   UNL     1     -10.104  10.135  68.411  0.00  0.00    +0.174 A 
ATOM     18  N   UNL     1      -9.174   9.159  67.956  0.00  0.00    -0.107 NA
ATOM     19  C   UNL     1     -12.648  10.337  70.930  0.00  0.00    +0.059 A 
ENDROOT
BRANCH  13  20
ATOM     20  C   UNL     1      -8.865  17.274  68.483  0.00  0.00    +0.191 C 
ATOM     21  O   UNL     1      -7.960  17.804  67.338  0.00  0.00    -0.347 OA
ATOM     22  C   UNL     1      -8.855  18.485  66.587  0.00  0.00    +0.143 C 
ATOM     23  C   UNL     1      -9.765  19.282  67.456  0.00  0.00    +0.035 C 
ATOM     24  C   UNL     1      -9.411  18.832  68.825  0.00  0.00    +0.042 C 
ENDBRANCH  13  20
BRANCH   1  26
ATOM     25  C   UNL     1     -14.386   8.323  71.699  0.00  0.00    +0.253 C 
ATOM     26  O   UNL     1     -13.194   8.431  72.347  0.00  0.00    -0.468 OA
ENDBRANCH   1  26
BRANCH   2  27
ATOM     27  O   UNL     1     -10.417   8.280  72.862  0.00  0.00    -0.468 OA
ATOM     28  C   UNL     1      -9.048   8.052  73.078  0.00  0.00    +0.253 C 
ENDBRANCH   2  27
TORSDOF 3
ENDMDL
MODEL 4
REMARK VINA RESULT:      -7.1      1.928      2.488
REMARK  Name = 
REMARK  3 active torsions:
REMARK  status: ('A' for Active; 'I' for Inactive)
REMARK    1  A    between atoms: O_2  and  C_3
REMARK    2  A    between atoms: C_12  and  C_14
REMARK    3  A    between atoms: C_26  and  O_27
REMARK                            x       y       z     vdW  Elec       q    Type
REMARK                         _______ _______ _______ _____ _____    ______ ____
ROOT
ATOM      1  C   UNL     1     -11.798  11.259  69.342  0.00  0.00    +0.174 A 
ATOM      2  C   UNL     1     -11.367  10.848  68.086  0.00  0.00    +0.173 A 
ATOM      3  C   UNL     1     -11.431  11.685  66.977  0.00  0.00    +0.044 A 
ATOM      4  C   UNL     1     -11.648  13.025  67.240  0.00  0.00    +0.056 A 
ATOM      5  C   UNL     1     -11.549  13.503  68.542  0.00  0.00    +0.090 A 
ATOM      6  N   UNL     1     -11.200  14.797  68.743  0.00  0.00    -0.213 NA
ATOM      7  C   UNL     1     -10.919  15.575  67.669  0.00  0.00    +0.221 A 
ATOM      8  N   UNL     1     -11.496  15.228  66.495  0.00  0.00    -0.195 NA
ATOM      9  N   UNL     1      -9.900  16.577  67.755  0.00  0.00    -0.275 N 
ATOM     10  C   UNL     1      -8.853  16.611  66.761  0.00  0.00    +0.115 C 
ATOM     11  C   UNL     1      -8.875  17.949  66.029  0.00  0.00    +0.115 C 
ATOM     12  N   UNL     1      -8.960  18.953  67.089  0.00  0.00    -0.274 N 
ATOM     13  C   UNL     1      -7.844  19.275  67.922  0.00  0.00    +0.253 C 
ATOM     14  O   UNL     1      -7.899  19.184  69.188  0.00  0.00    -0.272 OA
ATOM     15  C   UNL     1     -10.254  18.922  67.775  0.00  0.00    +0.115 C 
ATOM     16  C   UNL     1     -10.174  17.685  68.664  0.00  0.00    +0.115 C 
ATOM     17  C   UNL     1     -11.929  13.961  66.277  0.00  0.00    +0.174 A 
ATOM     18  N   UNL     1     -12.351  13.503  64.998  0.00  0.00    -0.107 NA
ATOM     19  C   UNL     1     -11.759  12.625  69.599  0.00  0.00    +0.059 A 
ENDROOT
BRANCH  13  20
ATOM     20  C   UNL     1      -6.444  18.563  67.388  0.00  0.00    +0.191 C 
ATOM     21  O   UNL     1      -6.234  19.621  66.271  0.00  0.00    -0.347 OA
ATOM     22  C   UNL     1      -6.634  20.751  66.898  0.00  0.00    +0.143 C 
ATOM     23  C   UNL     1      -6.100  20.793  68.287  0.00  0.00    +0.035 C 
ATOM     24  C   UNL     1      -5.491  19.450  68.460  0.00  0.00    +0.042 C 
ENDBRANCH  13  20
BRANCH   1  26
ATOM     25  C   UNL     1     -12.911  10.824  71.360  0.00  0.00    +0.253 C 
ATOM     26  O   UNL     1     -12.572  10.386  70.116  0.00  0.00    -0.468 OA
ENDBRANCH   1  26
BRANCH   2  27
ATOM     27  O   UNL     1     -10.974   9.528  67.946  0.00  0.00    -0.468 OA
ATOM     28  C   UNL     1     -10.266   9.040  66.836  0.00  0.00    +0.253 C 
ENDBRANCH   2  27
TORSDOF 3
ENDMDL
MODEL 5
REMARK VINA RESULT:      -6.8      3.705      5.109
REMARK  Name = 
REMARK  3 active torsions:
REMARK  status: ('A' for Active; 'I' for Inactive)
REMARK    1  A    between atoms: O_2  and  C_3
REMARK    2  A    between atoms: C_12  and  C_14
REMARK    3  A    between atoms: C_26  and  O_27
REMARK                            x       y       z     vdW  Elec       q    Type
REMARK                         _______ _______ _______ _____ _____    ______ ____
ROOT
ATOM      1  C   UNL     1      -9.536   9.595  65.728  0.00  0.00    +0.174 A 
ATOM      2  C   UNL     1      -9.819   9.976  64.421  0.00  0.00    +0.173 A 
ATOM      3  C   UNL     1     -10.638  11.062  64.134  0.00  0.00    +0.044 A 
ATOM      4  C   UNL     1     -10.900  11.920  65.187  0.00  0.00    +0.056 A 
ATOM      5  C   UNL     1     -10.173  11.814  66.367  0.00  0.00    +0.090 A 
ATOM      6  N   UNL     1     -10.003  12.916  67.137  0.00  0.00    -0.213 NA
ATOM      7  C   UNL     1     -10.514  14.098  66.712  0.00  0.00    +0.221 A 
ATOM      8  N   UNL     1     -11.578  14.041  65.878  0.00  0.00    -0.195 NA
ATOM      9  N   UNL     1      -9.814  15.319  66.977  0.00  0.00    -0.275 N 
ATOM     10  C   UNL     1      -9.530  16.225  65.890  0.00  0.00    +0.115 C 
ATOM     11  C   UNL     1     -10.191  17.575  66.150  0.00  0.00    +0.115 C 
ATOM     12  N   UNL     1      -9.840  17.901  67.533  0.00  0.00    -0.274 N 
ATOM     13  C   UNL     1      -8.525  18.321  67.904  0.00  0.00    +0.253 C 
ATOM     14  O   UNL     1      -7.845  17.709  68.784  0.00  0.00    -0.272 OA
ATOM     15  C   UNL     1     -10.498  17.011  68.493  0.00  0.00    +0.115 C 
ATOM     16  C   UNL     1      -9.719  15.704  68.382  0.00  0.00    +0.115 C 
ATOM     17  C   UNL     1     -11.831  12.928  65.144  0.00  0.00    +0.174 A 
ATOM     18  N   UNL     1     -12.809  12.894  64.112  0.00  0.00    -0.107 NA
ATOM     19  C   UNL     1      -9.598  10.592  66.696  0.00  0.00    +0.059 A 
ENDROOT
BRANCH  13  20
ATOM     20  C   UNL     1      -7.568  18.609  66.580  0.00  0.00    +0.191 C 
ATOM     21  O   UNL     1      -8.169  20.021  66.348  0.00  0.00    -0.347 OA
ATOM     22  C   UNL     1      -8.317  20.459  67.619  0.00  0.00    +0.143 C 
ATOM     23  C   UNL     1      -7.117  20.115  68.431  0.00  0.00    +0.035 C 
ATOM     24  C   UNL     1      -6.324  19.251  67.521  0.00  0.00    +0.042 C 
ENDBRANCH  13  20
BRANCH   1  26
ATOM     25  C   UNL     1     -10.561   7.860  66.927  0.00  0.00    +0.253 C 
ATOM     26  O   UNL     1      -9.576   8.237  66.066  0.00  0.00    -0.468 OA
ENDBRANCH   1  26
BRANCH   2  27
ATOM     27  O   UNL     1      -9.350   9.164  63.404  0.00  0.00    -0.468 OA
ATOM     28  C   UNL     1      -9.070   9.625  62.107  0.00  0.00    +0.253 C 
ENDBRANCH   2  27
TORSDOF 3
ENDMDL
MODEL 6
REMARK VINA RESULT:      -6.6      1.768      2.400
REMARK  Name = 
REMARK  3 active torsions:
REMARK  status: ('A' for Active; 'I' for Inactive)
REMARK    1  A    between atoms: O_2  and  C_3
REMARK    2  A    between atoms: C_12  and  C_14
REMARK    3  A    between atoms: C_26  and  O_27
REMARK                            x       y       z     vdW  Elec       q    Type
REMARK                         _______ _______ _______ _____ _____    ______ ____
ROOT
ATOM      1  C   UNL     1     -11.647  15.063  69.269  0.00  0.00    +0.174 A 
ATOM      2  C   UNL     1     -11.406  14.318  68.120  0.00  0.00    +0.173 A 
ATOM      3  C   UNL     1     -11.036  14.916  66.921  0.00  0.00    +0.044 A 
ATOM      4  C   UNL     1     -10.623  16.234  67.003  0.00  0.00    +0.056 A 
ATOM      5  C   UNL     1     -10.364  16.806  68.243  0.00  0.00    +0.090 A 
ATOM      6  N   UNL     1      -9.467  17.818  68.327  0.00  0.00    -0.213 NA
ATOM      7  C   UNL     1      -8.820  18.216  67.204  0.00  0.00    +0.221 A 
ATOM      8  N   UNL     1      -9.446  17.993  66.025  0.00  0.00    -0.195 NA
ATOM      9  N   UNL     1      -7.458  18.652  67.277  0.00  0.00    -0.275 N 
ATOM     10  C   UNL     1      -6.475  18.062  66.399  0.00  0.00    +0.115 C 
ATOM     11  C   UNL     1      -5.852  19.140  65.517  0.00  0.00    +0.115 C 
ATOM     12  N   UNL     1      -5.506  20.222  66.439  0.00  0.00    -0.274 N 
ATOM     13  C   UNL     1      -4.400  20.128  67.340  0.00  0.00    +0.253 C 
ATOM     14  O   UNL     1      -4.539  20.264  68.595  0.00  0.00    -0.272 OA
ATOM     15  C   UNL     1      -6.695  20.879  66.987  0.00  0.00    +0.115 C 
ATOM     16  C   UNL     1      -7.226  19.888  68.018  0.00  0.00    +0.115 C 
ATOM     17  C   UNL     1     -10.405  17.040  65.913  0.00  0.00    +0.174 A 
ATOM     18  N   UNL     1     -10.941  16.633  64.659  0.00  0.00    -0.107 NA
ATOM     19  C   UNL     1     -10.995  16.287  69.368  0.00  0.00    +0.059 A 
ENDROOT
BRANCH  13  20
ATOM     20  C   UNL     1      -3.465  18.792  67.038  0.00  0.00    +0.191 C 
ATOM     21  O   UNL     1      -2.748  19.462  65.835  0.00  0.00    -0.347 OA
ATOM     22  C   UNL     1      -2.607  20.730  66.283  0.00  0.00    +0.143 C 
ATOM     23  C   UNL     1      -2.169  20.735  67.707  0.00  0.00    +0.035 C 
ATOM     24  C   UNL     1      -2.254  19.304  68.095  0.00  0.00    +0.042 C 
ENDBRANCH  13  20
BRANCH   1  26
ATOM     25  C   UNL     1     -12.968  15.550  71.144  0.00  0.00    +0.253 C 
ATOM     26  O   UNL     1     -12.765  14.759  70.056  0.00  0.00    -0.468 OA
ENDBRANCH   1  26
BRANCH   2  27
ATOM     27  O   UNL     1     -11.659  12.958  68.176  0.00  0.00    -0.468 OA
ATOM     28  C   UNL     1     -11.489  12.089  67.085  0.00  0.00    +0.253 C 
ENDBRANCH   2  27
TORSDOF 3
ENDMDL
MODEL 7
REMARK VINA RESULT:      -6.5      2.268      8.432
REMARK  Name = 
REMARK  3 active torsions:
REMARK  status: ('A' for Active; 'I' for Inactive)
REMARK    1  A    between atoms: O_2  and  C_3
REMARK    2  A    between atoms: C_12  and  C_14
REMARK    3  A    between atoms: C_26  and  O_27
REMARK                            x       y       z     vdW  Elec       q    Type
REMARK                         _______ _______ _______ _____ _____    ______ ____
ROOT
ATOM      1  C   UNL     1      -6.175  20.115  66.073  0.00  0.00    +0.174 A 
ATOM      2  C   UNL     1      -6.485  20.413  67.395  0.00  0.00    +0.173 A 
ATOM      3  C   UNL     1      -7.735  20.139  67.937  0.00  0.00    +0.044 A 
ATOM      4  C   UNL     1      -8.541  19.286  67.203  0.00  0.00    +0.056 A 
ATOM      5  C   UNL     1      -8.006  18.572  66.136  0.00  0.00    +0.090 A 
ATOM      6  N   UNL     1      -8.564  17.385  65.795  0.00  0.00    -0.213 NA
ATOM      7  C   UNL     1      -9.600  16.912  66.529  0.00  0.00    +0.221 A 
ATOM      8  N   UNL     1     -10.356  17.825  67.181  0.00  0.00    -0.195 NA
ATOM      9  N   UNL     1      -9.735  15.504  66.755  0.00  0.00    -0.275 N 
ATOM     10  C   UNL     1      -9.895  15.013  68.103  0.00  0.00    +0.115 C 
ATOM     11  C   UNL     1     -11.221  14.270  68.233  0.00  0.00    +0.115 C 
ATOM     12  N   UNL     1     -11.259  13.371  67.080  0.00  0.00    -0.274 N 
ATOM     13  C   UNL     1     -10.451  12.194  67.007  0.00  0.00    +0.253 C 
ATOM     14  O   UNL     1      -9.641  11.990  66.050  0.00  0.00    -0.272 OA
ATOM     15  C   UNL     1     -11.403  14.100  65.817  0.00  0.00    +0.115 C 
ATOM     16  C   UNL     1     -10.020  14.696  65.572  0.00  0.00    +0.115 C 
ATOM     17  C   UNL     1      -9.865  19.054  67.479  0.00  0.00    +0.174 A 
ATOM     18  N   UNL     1     -10.543  19.966  68.334  0.00  0.00    -0.107 NA
ATOM     19  C   UNL     1      -6.885  19.073  65.486  0.00  0.00    +0.059 A 
ENDROOT
BRANCH  13  20
ATOM     20  C   UNL     1      -9.686  11.875  68.443  0.00  0.00    +0.191 C 
ATOM     21  O   UNL     1     -10.960  11.257  69.081  0.00  0.00    -0.347 OA
ATOM     22  C   UNL     1     -11.484  10.587  68.030  0.00  0.00    +0.143 C 
ATOM     23  C   UNL     1     -10.414   9.869  67.283  0.00  0.00    +0.035 C 
ATOM     24  C   UNL     1      -9.166  10.358  67.920  0.00  0.00    +0.042 C 
ENDBRANCH  13  20
BRANCH   1  26
ATOM     25  C   UNL     1      -5.429  20.823  63.966  0.00  0.00    +0.253 C 
ATOM     26  O   UNL     1      -5.484  21.060  65.305  0.00  0.00    -0.468 OA
ENDBRANCH   1  26
BRANCH   2  27
ATOM     27  O   UNL     1      -5.538  21.103  68.132  0.00  0.00    -0.468 OA
ATOM     28  C   UNL     1      -5.257  20.838  69.483  0.00  0.00    +0.253 C 
ENDBRANCH   2  27
TORSDOF 3
ENDMDL
MODEL 8
REMARK VINA RESULT:      -6.5      2.750      4.129
REMARK  Name = 
REMARK  3 active torsions:
REMARK  status: ('A' for Active; 'I' for Inactive)
REMARK    1  A    between atoms: O_2  and  C_3
REMARK    2  A    between atoms: C_12  and  C_14
REMARK    3  A    between atoms: C_26  and  O_27
REMARK                            x       y       z     vdW  Elec       q    Type
REMARK                         _______ _______ _______ _____ _____    ______ ____
ROOT
ATOM      1  C   UNL     1     -10.579  11.938  65.932  0.00  0.00    +0.174 A 
ATOM      2  C   UNL     1     -11.723  12.727  65.878  0.00  0.00    +0.173 A 
ATOM      3  C   UNL     1     -11.933  13.778  66.763  0.00  0.00    +0.044 A 
ATOM      4  C   UNL     1     -10.829  14.192  67.486  0.00  0.00    +0.056 A 
ATOM      5  C   UNL     1      -9.561  13.738  67.140  0.00  0.00    +0.090 A 
ATOM      6  N   UNL     1      -8.486  14.514  67.421  0.00  0.00    -0.213 NA
ATOM      7  C   UNL     1      -8.683  15.726  67.995  0.00  0.00    +0.221 A 
ATOM      8  N   UNL     1      -9.809  15.880  68.730  0.00  0.00    -0.195 NA
ATOM      9  N   UNL     1      -7.836  16.829  67.652  0.00  0.00    -0.275 N 
ATOM     10  C   UNL     1      -8.429  18.076  67.232  0.00  0.00    +0.115 C 
ATOM     11  C   UNL     1      -8.019  19.195  68.185  0.00  0.00    +0.115 C 
ATOM     12  N   UNL     1      -6.571  19.045  68.333  0.00  0.00    -0.274 N 
ATOM     13  C   UNL     1      -5.659  19.411  67.294  0.00  0.00    +0.253 C 
ATOM     14  O   UNL     1      -4.827  18.585  66.806  0.00  0.00    -0.272 OA
ATOM     15  C   UNL     1      -6.215  17.829  69.067  0.00  0.00    +0.115 C 
ATOM     16  C   UNL     1      -6.439  16.706  68.058  0.00  0.00    +0.115 C 
ATOM     17  C   UNL     1     -10.885  15.077  68.535  0.00  0.00    +0.174 A 
ATOM     18  N   UNL     1     -12.150  15.329  69.134  0.00  0.00    -0.107 NA
ATOM     19  C   UNL     1      -9.440  12.527  66.470  0.00  0.00    +0.059 A 
ENDROOT
BRANCH  13  20
ATOM     20  C   UNL     1      -6.417  20.215  66.057  0.00  0.00    +0.191 C 
ATOM     21  O   UNL     1      -6.463  21.553  66.843  0.00  0.00    -0.347 OA
ATOM     22  C   UNL     1      -5.265  21.534  67.469  0.00  0.00    +0.143 C 
ATOM     23  C   UNL     1      -4.197  21.075  66.538  0.00  0.00    +0.035 C 
ATOM     24  C   UNL     1      -4.954  20.644  65.336  0.00  0.00    +0.042 C 
ENDBRANCH  13  20
BRANCH   1  26
ATOM     25  C   UNL     1      -9.836   9.937  64.962  0.00  0.00    +0.253 C 
ATOM     26  O   UNL     1     -10.703  10.549  65.814  0.00  0.00    -0.468 OA
ENDBRANCH   1  26
BRANCH   2  27
ATOM     27  O   UNL     1     -12.710  12.359  64.980  0.00  0.00    -0.468 OA
ATOM     28  C   UNL     1     -12.503  12.258  63.594  0.00  0.00    +0.253 C 
ENDBRANCH   2  27
TORSDOF 3
ENDMDL
MODEL 9
REMARK VINA RESULT:      -6.5      3.347      5.556
REMARK  Name = 
REMARK  3 active torsions:
REMARK  status: ('A' for Active; 'I' for Inactive)
REMARK    1  A    between atoms: O_2  and  C_3
REMARK    2  A    between atoms: C_12  and  C_14
REMARK    3  A    between atoms: C_26  and  O_27
REMARK                            x       y       z     vdW  Elec       q    Type
REMARK                         _______ _______ _______ _____ _____    ______ ____
ROOT
ATOM      1  C   UNL     1     -10.943   8.549  71.623  0.00  0.00    +0.174 A 
ATOM      2  C   UNL     1      -9.770   8.182  70.972  0.00  0.00    +0.173 A 
ATOM      3  C   UNL     1      -9.561   8.456  69.625  0.00  0.00    +0.044 A 
ATOM      4  C   UNL     1     -10.425   9.370  69.050  0.00  0.00    +0.056 A 
ATOM      5  C   UNL     1     -11.266  10.132  69.854  0.00  0.00    +0.090 A 
ATOM      6  N   UNL     1     -11.666  11.351  69.417  0.00  0.00    -0.213 NA
ATOM      7  C   UNL     1     -11.202  11.807  68.228  0.00  0.00    +0.221 A 
ATOM      8  N   UNL     1     -10.831  10.877  67.318  0.00  0.00    -0.195 NA
ATOM      9  N   UNL     1     -10.931  13.202  68.051  0.00  0.00    -0.275 N 
ATOM     10  C   UNL     1      -9.644  13.617  67.546  0.00  0.00    +0.115 C 
ATOM     11  C   UNL     1      -9.820  14.385  66.239  0.00  0.00    +0.115 C 
ATOM     12  N   UNL     1     -10.884  15.350  66.515  0.00  0.00    -0.274 N 
ATOM     13  C   UNL     1     -10.667  16.509  67.324  0.00  0.00    +0.253 C 
ATOM     14  O   UNL     1     -11.361  16.748  68.360  0.00  0.00    -0.272 OA
ATOM     15  C   UNL     1     -12.183  14.700  66.704  0.00  0.00    +0.115 C 
ATOM     16  C   UNL     1     -12.093  14.085  68.097  0.00  0.00    +0.115 C 
ATOM     17  C   UNL     1     -10.494   9.620  67.702  0.00  0.00    +0.174 A 
ATOM     18  N   UNL     1      -9.907   8.677  66.814  0.00  0.00    -0.107 NA
ATOM     19  C   UNL     1     -11.629   9.642  71.103  0.00  0.00    +0.059 A 
ENDROOT
BRANCH  13  20
ATOM     20  C   UNL     1      -9.062  16.723  67.685  0.00  0.00    +0.191 C 
ATOM     21  O   UNL     1      -8.764  17.420  66.331  0.00  0.00    -0.347 OA
ATOM     22  C   UNL     1      -9.883  18.160  66.161  0.00  0.00    +0.143 C 
ATOM     23  C   UNL     1     -10.274  18.814  67.441  0.00  0.00    +0.035 C 
ATOM     24  C   UNL     1      -9.347  18.209  68.431  0.00  0.00    +0.042 C 
ENDBRANCH  13  20
BRANCH   1  26
ATOM     25  C   UNL     1     -12.272   6.636  71.890  0.00  0.00    +0.253 C 
ATOM     26  O   UNL     1     -11.560   7.634  72.483  0.00  0.00    -0.468 OA
ENDBRANCH   1  26
BRANCH   2  27
ATOM     27  O   UNL     1      -8.856   7.425  71.684  0.00  0.00    -0.468 OA
ATOM     28  C   UNL     1      -7.545   7.174  71.246  0.00  0.00    +0.253 C 
ENDBRANCH   2  27
TORSDOF 3
ENDMDL
