MODEL 1
REMARK VINA RESULT:      -6.0      0.000      0.000
REMARK  Name = 
REMARK  14 active torsions:
REMARK  status: ('A' for Active; 'I' for Inactive)
REMARK    1  A    between atoms: C_2  and  C_3
REMARK    2  A    between atoms: C_3  and  C_4
REMARK    3  A    between atoms: C_4  and  C_5
REMARK    4  A    between atoms: C_5  and  C_8
REMARK    5  A    between atoms: C_8  and  C_9
REMARK    6  A    between atoms: C_10  and  C_11
REMARK    7  A    between atoms: C_17  and  C_18
REMARK    8  A    between atoms: C_18  and  C_19
REMARK    9  A    between atoms: C_19  and  C_20
REMARK   10  A    between atoms: C_20  and  C_21
REMARK   11  A    between atoms: C_21  and  C_22
REMARK   12  A    between atoms: C_22  and  C_23
REMARK   13  A    between atoms: C_23  and  C_24
REMARK   14  A    between atoms: C_24  and  O_26
REMARK                            x       y       z     vdW  Elec       q    Type
REMARK                         _______ _______ _______ _____ _____    ______ ____
ROOT
ATOM      1  C   UNL     1      -9.585  11.845  67.265  0.00  0.00    +0.059 C 
ATOM      2  C   UNL     1     -10.669  10.757  66.526  0.00  0.00    +0.064 C 
ATOM      3  C   UNL     1     -10.186   9.421  67.279  0.00  0.00    +0.153 C 
ATOM      4  O   UNL     1     -10.713   8.467  66.769  0.00  0.00    -0.296 OA
ATOM      5  C   UNL     1     -10.254   9.896  68.584  0.00  0.00    +0.098 C 
ATOM      6  C   UNL     1      -8.840  10.761  68.377  0.00  0.00    +0.164 C 
ATOM      7  O   UNL     1      -8.213   9.881  67.268  0.00  0.00    -0.222 OA
ENDROOT
BRANCH   1   9
ATOM      8  C   UNL     1     -10.863  13.559  68.607  0.00  0.00    -0.028 C 
ATOM      9  C   UNL     1     -10.605  12.312  68.402  0.00  0.00    -0.028 C 
BRANCH   8  10
ATOM     10  C   UNL     1     -12.166  13.974  69.235  0.00  0.00    +0.056 C 
BRANCH  10  11
ATOM     11  C   UNL     1     -11.905  15.366  69.795  0.00  0.00    +0.131 C 
ATOM     12  O   UNL     1     -12.057  16.357  68.837  0.00  0.00    -0.225 OA
ATOM     13  C   UNL     1     -10.526  15.501  70.382  0.00  0.00    +0.033 C 
BRANCH  11  14
ATOM     14  C   UNL     1     -12.986  15.560  70.856  0.00  0.00    +0.031 C 
BRANCH  14  15
ATOM     15  C   UNL     1     -12.198  15.904  72.116  0.00  0.00    +0.003 C 
BRANCH  15  17
ATOM     16  C   UNL     1     -12.452  15.565  74.476  0.00  0.00    +0.000 C 
ATOM     17  C   UNL     1     -13.224  15.799  73.237  0.00  0.00    +0.000 C 
ENDBRANCH  15  17
ENDBRANCH  14  15
ENDBRANCH  11  14
ENDBRANCH  10  11
ENDBRANCH   8  10
ENDBRANCH   1   9
BRANCH   2  18
ATOM     18  C   UNL     1      -9.627  10.483  65.259  0.00  0.00    +0.008 C 
BRANCH  18  19
ATOM     19  C   UNL     1     -10.490  10.703  64.022  0.00  0.00    +0.000 C 
BRANCH  19  20
ATOM     20  C   UNL     1     -10.453  12.168  63.601  0.00  0.00    +0.000 C 
BRANCH  20  21
ATOM     21  C   UNL     1     -11.848  12.732  63.551  0.00  0.00    +0.001 C 
BRANCH  21  22
ATOM     22  C   UNL     1     -11.996  13.836  64.553  0.00  0.00    +0.012 C 
BRANCH  22  23
ATOM     23  C   UNL     1     -10.643  14.467  64.855  0.00  0.00    +0.110 C 
BRANCH  23  24
ATOM     24  C   UNL     1     -10.853  15.922  65.100  0.00  0.00    +0.317 C 
ATOM     25  O   UNL     1     -11.315  16.627  64.156  0.00  0.00    -0.250 OA
BRANCH  24  26
ATOM     26  O   UNL     1     -10.131  16.564  66.100  0.00  0.00    -0.444 OA
ATOM     27  C   UNL     1      -8.732  16.481  66.228  0.00  0.00    +0.256 C 
ENDBRANCH  24  26
ENDBRANCH  23  24
ENDBRANCH  22  23
ENDBRANCH  21  22
ENDBRANCH  20  21
ENDBRANCH  19  20
ENDBRANCH  18  19
ENDBRANCH   2  18
TORSDOF 14
ENDMDL
MODEL 2
REMARK VINA RESULT:      -5.8      2.536      6.202
REMARK  Name = 
REMARK  14 active torsions:
REMARK  status: ('A' for Active; 'I' for Inactive)
REMARK    1  A    between atoms: C_2  and  C_3
REMARK    2  A    between atoms: C_3  and  C_4
REMARK    3  A    between atoms: C_4  and  C_5
REMARK    4  A    between atoms: C_5  and  C_8
REMARK    5  A    between atoms: C_8  and  C_9
REMARK    6  A    between atoms: C_10  and  C_11
REMARK    7  A    between atoms: C_17  and  C_18
REMARK    8  A    between atoms: C_18  and  C_19
REMARK    9  A    between atoms: C_19  and  C_20
REMARK   10  A    between atoms: C_20  and  C_21
REMARK   11  A    between atoms: C_21  and  C_22
REMARK   12  A    between atoms: C_22  and  C_23
REMARK   13  A    between atoms: C_23  and  C_24
REMARK   14  A    between atoms: C_24  and  O_26
REMARK                            x       y       z     vdW  Elec       q    Type
REMARK                         _______ _______ _______ _____ _____    ______ ____
ROOT
ATOM      1  C   UNL     1     -11.472  14.490  66.320  0.00  0.00    +0.059 C 
ATOM      2  C   UNL     1     -10.562  13.166  66.886  0.00  0.00    +0.064 C 
ATOM      3  C   UNL     1     -10.765  12.200  65.617  0.00  0.00    +0.153 C 
ATOM      4  O   UNL     1     -10.340  11.106  65.880  0.00  0.00    -0.296 OA
ATOM      5  C   UNL     1     -10.388  13.098  64.625  0.00  0.00    +0.098 C 
ATOM      6  C   UNL     1     -11.850  13.897  64.747  0.00  0.00    +0.164 C 
ATOM      7  O   UNL     1     -12.696  12.714  65.277  0.00  0.00    -0.222 OA
ENDROOT
BRANCH   1   9
ATOM      8  C   UNL     1      -9.631  16.215  66.386  0.00  0.00    -0.028 C 
ATOM      9  C   UNL     1     -10.220  15.280  65.721  0.00  0.00    -0.028 C 
BRANCH   8  10
ATOM     10  C   UNL     1      -8.191  16.555  66.111  0.00  0.00    +0.056 C 
BRANCH  10  11
ATOM     11  C   UNL     1      -7.705  17.255  67.374  0.00  0.00    +0.131 C 
ATOM     12  O   UNL     1      -6.398  16.919  67.694  0.00  0.00    -0.225 OA
ATOM     13  C   UNL     1      -8.565  16.945  68.570  0.00  0.00    +0.033 C 
BRANCH  11  14
ATOM     14  C   UNL     1      -7.743  18.741  67.027  0.00  0.00    +0.031 C 
BRANCH  14  15
ATOM     15  C   UNL     1      -8.689  19.331  68.069  0.00  0.00    +0.003 C 
BRANCH  15  17
ATOM     16  C   UNL     1     -10.719  19.603  66.822  0.00  0.00    +0.000 C 
ATOM     17  C   UNL     1      -9.523  20.338  67.287  0.00  0.00    +0.000 C 
ENDBRANCH  15  17
ENDBRANCH  14  15
ENDBRANCH  11  14
ENDBRANCH  10  11
ENDBRANCH   8  10
ENDBRANCH   1   9
BRANCH   2  18
ATOM     18  C   UNL     1     -11.878  12.512  67.662  0.00  0.00    +0.008 C 
BRANCH  18  19
ATOM     19  C   UNL     1     -11.478  12.522  69.133  0.00  0.00    +0.000 C 
BRANCH  19  20
ATOM     20  C   UNL     1     -12.102  13.716  69.846  0.00  0.00    +0.000 C 
BRANCH  20  21
ATOM     21  C   UNL     1     -11.074  14.799  70.047  0.00  0.00    +0.001 C 
BRANCH  21  22
ATOM     22  C   UNL     1     -11.560  15.792  71.059  0.00  0.00    +0.012 C 
BRANCH  22  23
ATOM     23  C   UNL     1     -12.027  15.080  72.322  0.00  0.00    +0.110 C 
BRANCH  23  24
ATOM     24  C   UNL     1     -13.040  15.943  72.993  0.00  0.00    +0.317 C 
ATOM     25  O   UNL     1     -12.846  16.263  74.203  0.00  0.00    -0.250 OA
BRANCH  24  26
ATOM     26  O   UNL     1     -14.344  15.979  72.511  0.00  0.00    -0.444 OA
ATOM     27  C   UNL     1     -14.885  15.005  71.652  0.00  0.00    +0.256 C 
ENDBRANCH  24  26
ENDBRANCH  23  24
ENDBRANCH  22  23
ENDBRANCH  21  22
ENDBRANCH  20  21
ENDBRANCH  19  20
ENDBRANCH  18  19
ENDBRANCH   2  18
TORSDOF 14
ENDMDL
MODEL 3
REMARK VINA RESULT:      -5.8      2.322      5.658
REMARK  Name = 
REMARK  14 active torsions:
REMARK  status: ('A' for Active; 'I' for Inactive)
REMARK    1  A    between atoms: C_2  and  C_3
REMARK    2  A    between atoms: C_3  and  C_4
REMARK    3  A    between atoms: C_4  and  C_5
REMARK    4  A    between atoms: C_5  and  C_8
REMARK    5  A    between atoms: C_8  and  C_9
REMARK    6  A    between atoms: C_10  and  C_11
REMARK    7  A    between atoms: C_17  and  C_18
REMARK    8  A    between atoms: C_18  and  C_19
REMARK    9  A    between atoms: C_19  and  C_20
REMARK   10  A    between atoms: C_20  and  C_21
REMARK   11  A    between atoms: C_21  and  C_22
REMARK   12  A    between atoms: C_22  and  C_23
REMARK   13  A    between atoms: C_23  and  C_24
REMARK   14  A    between atoms: C_24  and  O_26
REMARK                            x       y       z     vdW  Elec       q    Type
REMARK                         _______ _______ _______ _____ _____    ______ ____
ROOT
ATOM      1  C   UNL     1     -11.683  14.342  66.459  0.00  0.00    +0.059 C 
ATOM      2  C   UNL     1     -10.546  13.148  66.887  0.00  0.00    +0.064 C 
ATOM      3  C   UNL     1     -10.643  12.262  65.548  0.00  0.00    +0.153 C 
ATOM      4  O   UNL     1     -10.035  11.237  65.707  0.00  0.00    -0.296 OA
ATOM      5  C   UNL     1     -10.459  13.285  64.624  0.00  0.00    +0.098 C 
ATOM      6  C   UNL     1     -12.025  13.819  64.854  0.00  0.00    +0.164 C 
ATOM      7  O   UNL     1     -12.645  12.475  65.308  0.00  0.00    -0.222 OA
ENDROOT
BRANCH   1   9
ATOM      8  C   UNL     1     -10.576  16.604  66.278  0.00  0.00    -0.028 C 
ATOM      9  C   UNL     1     -10.602  15.373  65.894  0.00  0.00    -0.028 C 
BRANCH   8  10
ATOM     10  C   UNL     1      -9.299  17.397  66.210  0.00  0.00    +0.056 C 
BRANCH  10  11
ATOM     11  C   UNL     1      -9.411  18.418  67.334  0.00  0.00    +0.131 C 
ATOM     12  O   UNL     1     -10.497  19.265  67.171  0.00  0.00    -0.225 OA
ATOM     13  C   UNL     1      -8.178  19.271  67.462  0.00  0.00    +0.033 C 
BRANCH  11  14
ATOM     14  C   UNL     1      -9.645  17.582  68.589  0.00  0.00    +0.031 C 
BRANCH  14  15
ATOM     15  C   UNL     1      -8.317  16.860  68.795  0.00  0.00    +0.003 C 
BRANCH  15  17
ATOM     16  C   UNL     1     -10.109  15.590  69.757  0.00  0.00    +0.000 C 
ATOM     17  C   UNL     1      -8.718  15.469  69.268  0.00  0.00    +0.000 C 
ENDBRANCH  15  17
ENDBRANCH  14  15
ENDBRANCH  11  14
ENDBRANCH  10  11
ENDBRANCH   8  10
ENDBRANCH   1   9
BRANCH   2  18
ATOM     18  C   UNL     1     -11.705  12.227  67.643  0.00  0.00    +0.008 C 
BRANCH  18  19
ATOM     19  C   UNL     1     -11.351  12.334  69.122  0.00  0.00    +0.000 C 
BRANCH  19  20
ATOM     20  C   UNL     1     -11.954  11.169  69.899  0.00  0.00    +0.000 C 
BRANCH  20  21
ATOM     21  C   UNL     1     -12.664  11.673  71.128  0.00  0.00    +0.001 C 
BRANCH  21  22
ATOM     22  C   UNL     1     -12.762  13.168  71.091  0.00  0.00    +0.012 C 
BRANCH  22  23
ATOM     23  C   UNL     1     -13.575  13.677  72.275  0.00  0.00    +0.110 C 
BRANCH  23  24
ATOM     24  C   UNL     1     -13.702  15.156  72.150  0.00  0.00    +0.317 C 
ATOM     25  O   UNL     1     -13.453  15.684  71.026  0.00  0.00    -0.250 OA
BRANCH  24  26
ATOM     26  O   UNL     1     -13.598  15.957  73.282  0.00  0.00    -0.444 OA
ATOM     27  C   UNL     1     -12.434  16.052  74.067  0.00  0.00    +0.256 C 
ENDBRANCH  24  26
ENDBRANCH  23  24
ENDBRANCH  22  23
ENDBRANCH  21  22
ENDBRANCH  20  21
ENDBRANCH  19  20
ENDBRANCH  18  19
ENDBRANCH   2  18
TORSDOF 14
ENDMDL
MODEL 4
REMARK VINA RESULT:      -5.7      2.985      6.492
REMARK  Name = 
REMARK  14 active torsions:
REMARK  status: ('A' for Active; 'I' for Inactive)
REMARK    1  A    between atoms: C_2  and  C_3
REMARK    2  A    between atoms: C_3  and  C_4
REMARK    3  A    between atoms: C_4  and  C_5
REMARK    4  A    between atoms: C_5  and  C_8
REMARK    5  A    between atoms: C_8  and  C_9
REMARK    6  A    between atoms: C_10  and  C_11
REMARK    7  A    between atoms: C_17  and  C_18
REMARK    8  A    between atoms: C_18  and  C_19
REMARK    9  A    between atoms: C_19  and  C_20
REMARK   10  A    between atoms: C_20  and  C_21
REMARK   11  A    between atoms: C_21  and  C_22
REMARK   12  A    between atoms: C_22  and  C_23
REMARK   13  A    between atoms: C_23  and  C_24
REMARK   14  A    between atoms: C_24  and  O_26
REMARK                            x       y       z     vdW  Elec       q    Type
REMARK                         _______ _______ _______ _____ _____    ______ ____
ROOT
ATOM      1  C   UNL     1     -10.405  12.851  67.931  0.00  0.00    +0.059 C 
ATOM      2  C   UNL     1     -11.740  13.850  67.581  0.00  0.00    +0.064 C 
ATOM      3  C   UNL     1     -11.878  13.494  66.019  0.00  0.00    +0.153 C 
ATOM      4  O   UNL     1     -12.673  14.240  65.511  0.00  0.00    -0.296 OA
ATOM      5  C   UNL     1     -11.891  12.109  66.135  0.00  0.00    +0.098 C 
ATOM      6  C   UNL     1     -10.242  12.082  66.398  0.00  0.00    +0.164 C 
ATOM      7  O   UNL     1      -9.887  13.395  65.656  0.00  0.00    -0.222 OA
ENDROOT
BRANCH   1   9
ATOM      8  C   UNL     1     -10.981  10.995  69.542  0.00  0.00    -0.028 C 
ATOM      9  C   UNL     1     -11.280  11.622  68.455  0.00  0.00    -0.028 C 
BRANCH   8  10
ATOM     10  C   UNL     1     -12.043  10.261  70.314  0.00  0.00    +0.056 C 
BRANCH  10  11
ATOM     11  C   UNL     1     -11.331   9.053  70.910  0.00  0.00    +0.131 C 
ATOM     12  O   UNL     1     -10.152   9.400  71.552  0.00  0.00    -0.225 OA
ATOM     13  C   UNL     1     -11.001   8.012  69.874  0.00  0.00    +0.033 C 
BRANCH  11  14
ATOM     14  C   UNL     1     -12.302   8.514  71.956  0.00  0.00    +0.031 C 
BRANCH  14  15
ATOM     15  C   UNL     1     -12.720   7.157  71.396  0.00  0.00    +0.003 C 
BRANCH  15  17
ATOM     16  C   UNL     1     -14.601   8.396  72.221  0.00  0.00    +0.000 C 
ATOM     17  C   UNL     1     -14.242   7.185  71.451  0.00  0.00    +0.000 C 
ENDBRANCH  15  17
ENDBRANCH  14  15
ENDBRANCH  11  14
ENDBRANCH  10  11
ENDBRANCH   8  10
ENDBRANCH   1   9
BRANCH   2  18
ATOM     18  C   UNL     1     -10.760  15.152  67.252  0.00  0.00    +0.008 C 
BRANCH  18  19
ATOM     19  C   UNL     1     -11.249  16.231  68.212  0.00  0.00    +0.000 C 
BRANCH  19  20
ATOM     20  C   UNL     1     -10.505  16.138  69.540  0.00  0.00    +0.000 C 
BRANCH  20  21
ATOM     21  C   UNL     1     -11.484  16.051  70.681  0.00  0.00    +0.001 C 
BRANCH  21  22
ATOM     22  C   UNL     1     -11.758  14.618  71.020  0.00  0.00    +0.012 C 
BRANCH  22  23
ATOM     23  C   UNL     1     -13.247  14.402  71.261  0.00  0.00    +0.110 C 
BRANCH  23  24
ATOM     24  C   UNL     1     -13.595  15.000  72.580  0.00  0.00    +0.317 C 
ATOM     25  O   UNL     1     -14.373  15.999  72.597  0.00  0.00    -0.250 OA
BRANCH  24  26
ATOM     26  O   UNL     1     -12.746  14.817  73.666  0.00  0.00    -0.444 OA
ATOM     27  C   UNL     1     -12.463  15.819  74.613  0.00  0.00    +0.256 C 
ENDBRANCH  24  26
ENDBRANCH  23  24
ENDBRANCH  22  23
ENDBRANCH  21  22
ENDBRANCH  20  21
ENDBRANCH  19  20
ENDBRANCH  18  19
ENDBRANCH   2  18
TORSDOF 14
ENDMDL
MODEL 5
REMARK VINA RESULT:      -5.7      2.418      5.323
REMARK  Name = 
REMARK  14 active torsions:
REMARK  status: ('A' for Active; 'I' for Inactive)
REMARK    1  A    between atoms: C_2  and  C_3
REMARK    2  A    between atoms: C_3  and  C_4
REMARK    3  A    between atoms: C_4  and  C_5
REMARK    4  A    between atoms: C_5  and  C_8
REMARK    5  A    between atoms: C_8  and  C_9
REMARK    6  A    between atoms: C_10  and  C_11
REMARK    7  A    between atoms: C_17  and  C_18
REMARK    8  A    between atoms: C_18  and  C_19
REMARK    9  A    between atoms: C_19  and  C_20
REMARK   10  A    between atoms: C_20  and  C_21
REMARK   11  A    between atoms: C_21  and  C_22
REMARK   12  A    between atoms: C_22  and  C_23
REMARK   13  A    between atoms: C_23  and  C_24
REMARK   14  A    between atoms: C_24  and  O_26
REMARK                            x       y       z     vdW  Elec       q    Type
REMARK                         _______ _______ _______ _____ _____    ______ ____
ROOT
ATOM      1  C   UNL     1     -10.703  16.654  67.650  0.00  0.00    +0.059 C 
ATOM      2  C   UNL     1      -9.064  16.206  67.778  0.00  0.00    +0.064 C 
ATOM      3  C   UNL     1      -8.419  17.655  67.515  0.00  0.00    +0.153 C 
ATOM      4  O   UNL     1      -7.229  17.541  67.382  0.00  0.00    -0.296 OA
ATOM      5  C   UNL     1      -9.155  18.370  68.453  0.00  0.00    +0.098 C 
ATOM      6  C   UNL     1     -10.498  18.354  67.460  0.00  0.00    +0.164 C 
ATOM      7  O   UNL     1      -9.760  18.223  66.105  0.00  0.00    -0.222 OA
ENDROOT
BRANCH   1   9
ATOM      8  C   UNL     1     -11.707  16.091  69.897  0.00  0.00    -0.028 C 
ATOM      9  C   UNL     1     -10.919  16.855  69.220  0.00  0.00    -0.028 C 
BRANCH   8  10
ATOM     10  C   UNL     1     -11.499  15.899  71.375  0.00  0.00    +0.056 C 
BRANCH  10  11
ATOM     11  C   UNL     1     -12.704  15.091  71.839  0.00  0.00    +0.131 C 
ATOM     12  O   UNL     1     -13.892  15.552  71.290  0.00  0.00    -0.225 OA
ATOM     13  C   UNL     1     -12.858  15.095  73.336  0.00  0.00    +0.033 C 
BRANCH  11  14
ATOM     14  C   UNL     1     -12.449  13.684  71.306  0.00  0.00    +0.031 C 
BRANCH  14  15
ATOM     15  C   UNL     1     -13.546  12.846  71.958  0.00  0.00    +0.003 C 
BRANCH  15  17
ATOM     16  C   UNL     1     -12.273  11.363  70.568  0.00  0.00    +0.000 C 
ATOM     17  C   UNL     1     -13.046  11.413  71.828  0.00  0.00    +0.000 C 
ENDBRANCH  15  17
ENDBRANCH  14  15
ENDBRANCH  11  14
ENDBRANCH  10  11
ENDBRANCH   8  10
ENDBRANCH   1   9
BRANCH   2  18
ATOM     18  C   UNL     1      -8.980  15.817  66.163  0.00  0.00    +0.008 C 
BRANCH  18  19
ATOM     19  C   UNL     1      -9.037  14.294  66.150  0.00  0.00    +0.000 C 
BRANCH  19  20
ATOM     20  C   UNL     1      -8.957  13.746  67.571  0.00  0.00    +0.000 C 
BRANCH  20  21
ATOM     21  C   UNL     1      -9.964  12.643  67.761  0.00  0.00    +0.001 C 
BRANCH  21  22
ATOM     22  C   UNL     1     -11.345  13.147  67.470  0.00  0.00    +0.012 C 
BRANCH  22  23
ATOM     23  C   UNL     1     -12.028  12.262  66.434  0.00  0.00    +0.110 C 
BRANCH  23  24
ATOM     24  C   UNL     1     -12.497  13.132  65.319  0.00  0.00    +0.317 C 
ATOM     25  O   UNL     1     -13.125  14.192  65.611  0.00  0.00    -0.250 OA
BRANCH  24  26
ATOM     26  O   UNL     1     -12.691  12.587  64.054  0.00  0.00    -0.444 OA
ATOM     27  C   UNL     1     -11.674  11.960  63.310  0.00  0.00    +0.256 C 
ENDBRANCH  24  26
ENDBRANCH  23  24
ENDBRANCH  22  23
ENDBRANCH  21  22
ENDBRANCH  20  21
ENDBRANCH  19  20
ENDBRANCH  18  19
ENDBRANCH   2  18
TORSDOF 14
ENDMDL
MODEL 6
REMARK VINA RESULT:      -5.7      2.577      6.237
REMARK  Name = 
REMARK  14 active torsions:
REMARK  status: ('A' for Active; 'I' for Inactive)
REMARK    1  A    between atoms: C_2  and  C_3
REMARK    2  A    between atoms: C_3  and  C_4
REMARK    3  A    between atoms: C_4  and  C_5
REMARK    4  A    between atoms: C_5  and  C_8
REMARK    5  A    between atoms: C_8  and  C_9
REMARK    6  A    between atoms: C_10  and  C_11
REMARK    7  A    between atoms: C_17  and  C_18
REMARK    8  A    between atoms: C_18  and  C_19
REMARK    9  A    between atoms: C_19  and  C_20
REMARK   10  A    between atoms: C_20  and  C_21
REMARK   11  A    between atoms: C_21  and  C_22
REMARK   12  A    between atoms: C_22  and  C_23
REMARK   13  A    between atoms: C_23  and  C_24
REMARK   14  A    between atoms: C_24  and  O_26
REMARK                            x       y       z     vdW  Elec       q    Type
REMARK                         _______ _______ _______ _____ _____    ______ ____
ROOT
ATOM      1  C   UNL     1     -11.701  14.294  66.607  0.00  0.00    +0.059 C 
ATOM      2  C   UNL     1     -10.458  13.152  66.837  0.00  0.00    +0.064 C 
ATOM      3  C   UNL     1     -10.582  12.402  65.421  0.00  0.00    +0.153 C 
ATOM      4  O   UNL     1      -9.895  11.415  65.434  0.00  0.00    -0.296 OA
ATOM      5  C   UNL     1     -10.532  13.523  64.601  0.00  0.00    +0.098 C 
ATOM      6  C   UNL     1     -12.113  13.911  64.978  0.00  0.00    +0.164 C 
ATOM      7  O   UNL     1     -12.605  12.484  65.324  0.00  0.00    -0.222 OA
ENDROOT
BRANCH   1   9
ATOM      8  C   UNL     1     -10.611  16.567  66.732  0.00  0.00    -0.028 C 
ATOM      9  C   UNL     1     -10.735  15.456  66.090  0.00  0.00    -0.028 C 
BRANCH   8  10
ATOM     10  C   UNL     1      -9.358  17.390  66.597  0.00  0.00    +0.056 C 
BRANCH  10  11
ATOM     11  C   UNL     1      -9.759  18.790  67.044  0.00  0.00    +0.131 C 
ATOM     12  O   UNL     1     -10.549  18.774  68.183  0.00  0.00    -0.225 OA
ATOM     13  C   UNL     1     -10.505  19.543  65.977  0.00  0.00    +0.033 C 
BRANCH  11  14
ATOM     14  C   UNL     1      -8.438  19.473  67.391  0.00  0.00    +0.031 C 
BRANCH  14  15
ATOM     15  C   UNL     1      -7.476  18.961  66.324  0.00  0.00    +0.003 C 
BRANCH  15  17
ATOM     16  C   UNL     1      -6.436  21.000  67.040  0.00  0.00    +0.000 C 
ATOM     17  C   UNL     1      -6.766  20.215  65.831  0.00  0.00    +0.000 C 
ENDBRANCH  15  17
ENDBRANCH  14  15
ENDBRANCH  11  14
ENDBRANCH  10  11
ENDBRANCH   8  10
ENDBRANCH   1   9
BRANCH   2  18
ATOM     18  C   UNL     1     -11.497  12.074  67.560  0.00  0.00    +0.008 C 
BRANCH  18  19
ATOM     19  C   UNL     1     -11.046  12.051  69.016  0.00  0.00    +0.000 C 
BRANCH  19  20
ATOM     20  C   UNL     1     -12.252  11.969  69.945  0.00  0.00    +0.000 C 
BRANCH  20  21
ATOM     21  C   UNL     1     -12.288  13.163  70.862  0.00  0.00    +0.001 C 
BRANCH  21  22
ATOM     22  C   UNL     1     -11.632  14.339  70.204  0.00  0.00    +0.012 C 
BRANCH  22  23
ATOM     23  C   UNL     1     -12.514  15.576  70.322  0.00  0.00    +0.110 C 
BRANCH  23  24
ATOM     24  C   UNL     1     -13.073  15.617  71.703  0.00  0.00    +0.317 C 
ATOM     25  O   UNL     1     -14.327  15.719  71.837  0.00  0.00    -0.250 OA
BRANCH  24  26
ATOM     26  O   UNL     1     -12.269  16.028  72.761  0.00  0.00    -0.444 OA
ATOM     27  C   UNL     1     -12.473  15.632  74.096  0.00  0.00    +0.256 C 
ENDBRANCH  24  26
ENDBRANCH  23  24
ENDBRANCH  22  23
ENDBRANCH  21  22
ENDBRANCH  20  21
ENDBRANCH  19  20
ENDBRANCH  18  19
ENDBRANCH   2  18
TORSDOF 14
ENDMDL
MODEL 7
REMARK VINA RESULT:      -5.6      2.188      6.476
REMARK  Name = 
REMARK  14 active torsions:
REMARK  status: ('A' for Active; 'I' for Inactive)
REMARK    1  A    between atoms: C_2  and  C_3
REMARK    2  A    between atoms: C_3  and  C_4
REMARK    3  A    between atoms: C_4  and  C_5
REMARK    4  A    between atoms: C_5  and  C_8
REMARK    5  A    between atoms: C_8  and  C_9
REMARK    6  A    between atoms: C_10  and  C_11
REMARK    7  A    between atoms: C_17  and  C_18
REMARK    8  A    between atoms: C_18  and  C_19
REMARK    9  A    between atoms: C_19  and  C_20
REMARK   10  A    between atoms: C_20  and  C_21
REMARK   11  A    between atoms: C_21  and  C_22
REMARK   12  A    between atoms: C_22  and  C_23
REMARK   13  A    between atoms: C_23  and  C_24
REMARK   14  A    between atoms: C_24  and  O_26
REMARK                            x       y       z     vdW  Elec       q    Type
REMARK                         _______ _______ _______ _____ _____    ______ ____
ROOT
ATOM      1  C   UNL     1     -10.118  12.523  66.328  0.00  0.00    +0.059 C 
ATOM      2  C   UNL     1     -11.658  13.124  66.739  0.00  0.00    +0.064 C 
ATOM      3  C   UNL     1     -12.191  13.404  65.249  0.00  0.00    +0.153 C 
ATOM      4  O   UNL     1     -13.227  14.013  65.306  0.00  0.00    -0.296 OA
ATOM      5  C   UNL     1     -11.910  12.156  64.703  0.00  0.00    +0.098 C 
ATOM      6  C   UNL     1     -10.284  12.526  64.613  0.00  0.00    +0.164 C 
ATOM      7  O   UNL     1     -10.420  14.065  64.520  0.00  0.00    -0.222 OA
ENDROOT
BRANCH   1   9
ATOM      8  C   UNL     1      -9.818  10.094  66.946  0.00  0.00    -0.028 C 
ATOM      9  C   UNL     1     -10.549  10.986  66.368  0.00  0.00    -0.028 C 
BRANCH   8  10
ATOM     10  C   UNL     1     -10.435   8.826  67.471  0.00  0.00    +0.056 C 
BRANCH  10  11
ATOM     11  C   UNL     1      -9.598   8.458  68.690  0.00  0.00    +0.131 C 
ATOM     12  O   UNL     1      -8.876   9.536  69.179  0.00  0.00    -0.225 OA
ATOM     13  C   UNL     1      -8.627   7.345  68.405  0.00  0.00    +0.033 C 
BRANCH  11  14
ATOM     14  C   UNL     1     -10.621   8.052  69.747  0.00  0.00    +0.031 C 
BRANCH  14  15
ATOM     15  C   UNL     1     -10.637   9.237  70.708  0.00  0.00    +0.003 C 
BRANCH  15  17
ATOM     16  C   UNL     1     -12.404  10.827  70.390  0.00  0.00    +0.000 C 
ATOM     17  C   UNL     1     -12.117   9.493  70.960  0.00  0.00    +0.000 C 
ENDBRANCH  15  17
ENDBRANCH  14  15
ENDBRANCH  11  14
ENDBRANCH  10  11
ENDBRANCH   8  10
ENDBRANCH   1   9
BRANCH   2  18
ATOM     18  C   UNL     1     -11.083  14.677  66.882  0.00  0.00    +0.008 C 
BRANCH  18  19
ATOM     19  C   UNL     1     -11.745  15.198  68.153  0.00  0.00    +0.000 C 
BRANCH  19  20
ATOM     20  C   UNL     1     -10.735  15.251  69.295  0.00  0.00    +0.000 C 
BRANCH  20  21
ATOM     21  C   UNL     1     -11.443  15.464  70.607  0.00  0.00    +0.001 C 
BRANCH  21  22
ATOM     22  C   UNL     1     -12.665  14.601  70.682  0.00  0.00    +0.012 C 
BRANCH  22  23
ATOM     23  C   UNL     1     -12.997  14.273  72.133  0.00  0.00    +0.110 C 
BRANCH  23  24
ATOM     24  C   UNL     1     -13.785  15.405  72.697  0.00  0.00    +0.317 C 
ATOM     25  O   UNL     1     -14.741  15.869  72.008  0.00  0.00    -0.250 OA
BRANCH  24  26
ATOM     26  O   UNL     1     -13.215  16.230  73.660  0.00  0.00    -0.444 OA
ATOM     27  C   UNL     1     -12.442  15.756  74.735  0.00  0.00    +0.256 C 
ENDBRANCH  24  26
ENDBRANCH  23  24
ENDBRANCH  22  23
ENDBRANCH  21  22
ENDBRANCH  20  21
ENDBRANCH  19  20
ENDBRANCH  18  19
ENDBRANCH   2  18
TORSDOF 14
ENDMDL
MODEL 8
REMARK VINA RESULT:      -5.6      2.317      6.748
REMARK  Name = 
REMARK  14 active torsions:
REMARK  status: ('A' for Active; 'I' for Inactive)
REMARK    1  A    between atoms: C_2  and  C_3
REMARK    2  A    between atoms: C_3  and  C_4
REMARK    3  A    between atoms: C_4  and  C_5
REMARK    4  A    between atoms: C_5  and  C_8
REMARK    5  A    between atoms: C_8  and  C_9
REMARK    6  A    between atoms: C_10  and  C_11
REMARK    7  A    between atoms: C_17  and  C_18
REMARK    8  A    between atoms: C_18  and  C_19
REMARK    9  A    between atoms: C_19  and  C_20
REMARK   10  A    between atoms: C_20  and  C_21
REMARK   11  A    between atoms: C_21  and  C_22
REMARK   12  A    between atoms: C_22  and  C_23
REMARK   13  A    between atoms: C_23  and  C_24
REMARK   14  A    between atoms: C_24  and  O_26
REMARK                            x       y       z     vdW  Elec       q    Type
REMARK                         _______ _______ _______ _____ _____    ______ ____
ROOT
ATOM      1  C   UNL     1     -10.278  12.782  66.475  0.00  0.00    +0.059 C 
ATOM      2  C   UNL     1     -11.917  13.054  66.851  0.00  0.00    +0.064 C 
ATOM      3  C   UNL     1     -12.385  13.598  65.412  0.00  0.00    +0.153 C 
ATOM      4  O   UNL     1     -13.505  14.030  65.497  0.00  0.00    -0.296 OA
ATOM      5  C   UNL     1     -11.876  12.563  64.636  0.00  0.00    +0.098 C 
ATOM      6  C   UNL     1     -10.325  13.162  64.795  0.00  0.00    +0.164 C 
ATOM      7  O   UNL     1     -10.693  14.647  65.031  0.00  0.00    -0.222 OA
ENDROOT
BRANCH   1   9
ATOM      8  C   UNL     1      -9.945  10.310  66.866  0.00  0.00    -0.028 C 
ATOM      9  C   UNL     1     -10.465  11.233  66.131  0.00  0.00    -0.028 C 
BRANCH   8  10
ATOM     10  C   UNL     1     -10.547   8.932  66.898  0.00  0.00    +0.056 C 
BRANCH  10  11
ATOM     11  C   UNL     1     -10.074   8.327  68.214  0.00  0.00    +0.131 C 
ATOM     12  O   UNL     1      -8.692   8.240  68.287  0.00  0.00    -0.225 OA
ATOM     13  C   UNL     1     -10.634   6.951  68.448  0.00  0.00    +0.033 C 
BRANCH  11  14
ATOM     14  C   UNL     1     -10.546   9.313  69.279  0.00  0.00    +0.031 C 
BRANCH  14  15
ATOM     15  C   UNL     1     -11.151   8.418  70.356  0.00  0.00    +0.003 C 
BRANCH  15  17
ATOM     16  C   UNL     1     -10.917   7.970  72.700  0.00  0.00    +0.000 C 
ATOM     17  C   UNL     1     -10.573   8.960  71.658  0.00  0.00    +0.000 C 
ENDBRANCH  15  17
ENDBRANCH  14  15
ENDBRANCH  11  14
ENDBRANCH  10  11
ENDBRANCH   8  10
ENDBRANCH   1   9
BRANCH   2  18
ATOM     18  C   UNL     1     -11.603  14.594  67.391  0.00  0.00    +0.008 C 
BRANCH  18  19
ATOM     19  C   UNL     1     -12.100  14.586  68.832  0.00  0.00    +0.000 C 
BRANCH  19  20
ATOM     20  C   UNL     1     -11.377  15.652  69.649  0.00  0.00    +0.000 C 
BRANCH  20  21
ATOM     21  C   UNL     1     -11.300  15.237  71.095  0.00  0.00    +0.001 C 
BRANCH  21  22
ATOM     22  C   UNL     1     -11.934  16.277  71.966  0.00  0.00    +0.012 C 
BRANCH  22  23
ATOM     23  C   UNL     1     -12.857  15.626  72.989  0.00  0.00    +0.110 C 
BRANCH  23  24
ATOM     24  C   UNL     1     -13.888  14.843  72.251  0.00  0.00    +0.317 C 
ATOM     25  O   UNL     1     -14.819  15.476  71.672  0.00  0.00    -0.250 OA
BRANCH  24  26
ATOM     26  O   UNL     1     -14.116  13.513  72.587  0.00  0.00    -0.444 OA
ATOM     27  C   UNL     1     -13.428  12.432  72.006  0.00  0.00    +0.256 C 
ENDBRANCH  24  26
ENDBRANCH  23  24
ENDBRANCH  22  23
ENDBRANCH  21  22
ENDBRANCH  20  21
ENDBRANCH  19  20
ENDBRANCH  18  19
ENDBRANCH   2  18
TORSDOF 14
ENDMDL
MODEL 9
REMARK VINA RESULT:      -5.5      2.068      5.302
REMARK  Name = 
REMARK  14 active torsions:
REMARK  status: ('A' for Active; 'I' for Inactive)
REMARK    1  A    between atoms: C_2  and  C_3
REMARK    2  A    between atoms: C_3  and  C_4
REMARK    3  A    between atoms: C_4  and  C_5
REMARK    4  A    between atoms: C_5  and  C_8
REMARK    5  A    between atoms: C_8  and  C_9
REMARK    6  A    between atoms: C_10  and  C_11
REMARK    7  A    between atoms: C_17  and  C_18
REMARK    8  A    between atoms: C_18  and  C_19
REMARK    9  A    between atoms: C_19  and  C_20
REMARK   10  A    between atoms: C_20  and  C_21
REMARK   11  A    between atoms: C_21  and  C_22
REMARK   12  A    between atoms: C_22  and  C_23
REMARK   13  A    between atoms: C_23  and  C_24
REMARK   14  A    between atoms: C_24  and  O_26
REMARK                            x       y       z     vdW  Elec       q    Type
REMARK                         _______ _______ _______ _____ _____    ______ ____
ROOT
ATOM      1  C   UNL     1     -10.888  16.825  68.281  0.00  0.00    +0.059 C 
ATOM      2  C   UNL     1     -10.136  15.564  67.417  0.00  0.00    +0.064 C 
ATOM      3  C   UNL     1      -8.635  16.138  67.450  0.00  0.00    +0.153 C 
ATOM      4  O   UNL     1      -7.941  15.475  66.726  0.00  0.00    -0.296 OA
ATOM      5  C   UNL     1      -8.545  16.370  68.818  0.00  0.00    +0.098 C 
ATOM      6  C   UNL     1      -9.486  17.744  68.681  0.00  0.00    +0.164 C 
ATOM      7  O   UNL     1      -9.155  18.082  67.206  0.00  0.00    -0.222 OA
ENDROOT
BRANCH   1   9
ATOM      8  C   UNL     1     -11.878  15.759  70.344  0.00  0.00    -0.028 C 
ATOM      9  C   UNL     1     -10.813  16.092  69.698  0.00  0.00    -0.028 C 
BRANCH   8  10
ATOM     10  C   UNL     1     -11.846  14.628  71.335  0.00  0.00    +0.056 C 
BRANCH  10  11
ATOM     11  C   UNL     1     -13.057  14.857  72.231  0.00  0.00    +0.131 C 
ATOM     12  O   UNL     1     -13.915  15.820  71.722  0.00  0.00    -0.225 OA
ATOM     13  C   UNL     1     -12.671  15.275  73.624  0.00  0.00    +0.033 C 
BRANCH  11  14
ATOM     14  C   UNL     1     -13.791  13.518  72.231  0.00  0.00    +0.031 C 
BRANCH  14  15
ATOM     15  C   UNL     1     -12.859  12.595  71.452  0.00  0.00    +0.003 C 
BRANCH  15  17
ATOM     16  C   UNL     1     -12.469  10.259  71.076  0.00  0.00    +0.000 C 
ATOM     17  C   UNL     1     -13.254  11.196  71.907  0.00  0.00    +0.000 C 
ENDBRANCH  15  17
ENDBRANCH  14  15
ENDBRANCH  11  14
ENDBRANCH  10  11
ENDBRANCH   8  10
ENDBRANCH   1   9
BRANCH   2  18
ATOM     18  C   UNL     1     -10.441  16.298  65.957  0.00  0.00    +0.008 C 
BRANCH  18  19
ATOM     19  C   UNL     1     -11.100  15.203  65.126  0.00  0.00    +0.000 C 
BRANCH  19  20
ATOM     20  C   UNL     1     -11.933  14.289  66.017  0.00  0.00    +0.000 C 
BRANCH  20  21
ATOM     21  C   UNL     1     -12.269  13.014  65.287  0.00  0.00    +0.001 C 
BRANCH  21  22
ATOM     22  C   UNL     1     -11.474  11.874  65.846  0.00  0.00    +0.012 C 
BRANCH  22  23
ATOM     23  C   UNL     1     -11.446  11.938  67.368  0.00  0.00    +0.110 C 
BRANCH  23  24
ATOM     24  C   UNL     1     -10.781  10.704  67.873  0.00  0.00    +0.317 C 
ATOM     25  O   UNL     1      -9.849  10.831  68.720  0.00  0.00    -0.250 OA
BRANCH  24  26
ATOM     26  O   UNL     1     -10.814   9.542  67.110  0.00  0.00    -0.444 OA
ATOM     27  C   UNL     1      -9.675   8.771  66.812  0.00  0.00    +0.256 C 
ENDBRANCH  24  26
ENDBRANCH  23  24
ENDBRANCH  22  23
ENDBRANCH  21  22
ENDBRANCH  20  21
ENDBRANCH  19  20
ENDBRANCH  18  19
ENDBRANCH   2  18
TORSDOF 14
ENDMDL
