MODEL 1
REMARK VINA RESULT:      -7.4      0.000      0.000
REMARK  Name = 
REMARK  2 active torsions:
REMARK  status: ('A' for Active; 'I' for Inactive)
REMARK    1  A    between atoms: C_2  and  CA_4
REMARK    2  A    between atoms: C_6  and  C_7
REMARK                            x       y       z     vdW  Elec       q    Type
REMARK                         _______ _______ _______ _____ _____    ______ ____
ROOT
ATOM      1  CA  UNL     1     -11.164  17.255  67.815  0.00  0.00    +0.284 C 
ATOM      2  C   UNL     1     -10.222  16.338  66.818  0.00  0.00    +0.279 C 
ATOM      3  O   UNL     1      -9.891  17.093  65.861  0.00  0.00    -0.270 OA
ATOM      4  N   UNL     1     -10.865  15.139  66.357  0.00  0.00    -0.177 NA
ATOM      5  C   UNL     1     -11.566  14.193  67.169  0.00  0.00    +0.075 A 
ATOM      6  C   UNL     1     -11.629  14.197  68.557  0.00  0.00    +0.033 A 
ATOM      7  C   UNL     1     -11.587  13.023  69.304  0.00  0.00    +0.014 A 
ATOM      8  C   UNL     1     -11.377  11.810  68.654  0.00  0.00    +0.058 A 
ATOM      9  C   UNL     1     -11.744  11.808  67.313  0.00  0.00    +0.013 A 
ATOM     10 CL   UNL     1     -10.338  10.557  69.317  0.00  0.00    -0.082 Cl
ATOM     11  C   UNL     1     -11.420  15.358  69.438  0.00  0.00    +0.078 C 
ATOM     12  C   UNL     1     -11.741  12.966  66.551  0.00  0.00    +0.018 A 
ATOM     13  N   UNL     1     -10.741  16.426  69.133  0.00  0.00    -0.252 NA
ENDROOT
BRANCH  11  14
ATOM     14  C   UNL     1     -12.149  15.241  70.672  0.00  0.00    +0.017 A 
ATOM     15  C   UNL     1     -13.526  15.147  70.772  0.00  0.00    +0.001 A 
ATOM     16  C   UNL     1     -14.153  15.296  72.006  0.00  0.00    +0.000 A 
ATOM     17  C   UNL     1     -13.468  15.839  73.089  0.00  0.00    +0.000 A 
ATOM     18  C   UNL     1     -12.094  15.997  72.987  0.00  0.00    +0.000 A 
ATOM     19  C   UNL     1     -11.508  15.448  71.891  0.00  0.00    +0.001 A 
ENDBRANCH  11  14
BRANCH   1  21
ATOM     20  O   UNL     1     -10.407  19.271  68.201  0.00  0.00    -0.243 OA
ATOM     21  C   UNL     1      -9.981  18.379  68.052  0.00  0.00    +0.396 C 
ATOM     22  OXT UNL     1      -8.876  17.931  68.718  0.00  0.00    -0.243 OA
ENDBRANCH   1  21
TORSDOF 2
ENDMDL
MODEL 2
REMARK VINA RESULT:      -7.3      3.157      4.881
REMARK  Name = 
REMARK  2 active torsions:
REMARK  status: ('A' for Active; 'I' for Inactive)
REMARK    1  A    between atoms: C_2  and  CA_4
REMARK    2  A    between atoms: C_6  and  C_7
REMARK                            x       y       z     vdW  Elec       q    Type
REMARK                         _______ _______ _______ _____ _____    ______ ____
ROOT
ATOM      1  CA  UNL     1     -12.167  14.625  72.016  0.00  0.00    +0.284 C 
ATOM      2  C   UNL     1     -13.268  13.472  71.592  0.00  0.00    +0.279 C 
ATOM      3  O   UNL     1     -13.832  13.119  72.665  0.00  0.00    -0.270 OA
ATOM      4  N   UNL     1     -12.694  12.354  70.894  0.00  0.00    -0.177 NA
ATOM      5  C   UNL     1     -11.794  12.423  69.786  0.00  0.00    +0.075 A 
ATOM      6  C   UNL     1     -11.426  13.577  69.105  0.00  0.00    +0.033 A 
ATOM      7  C   UNL     1     -11.255  13.599  67.723  0.00  0.00    +0.014 A 
ATOM      8  C   UNL     1     -11.554  12.459  66.983  0.00  0.00    +0.058 A 
ATOM      9  C   UNL     1     -11.492  11.274  67.706  0.00  0.00    +0.013 A 
ATOM     10 CL   UNL     1     -12.369  12.537  65.428  0.00  0.00    -0.082 Cl
ATOM     11  C   UNL     1     -11.483  14.954  69.623  0.00  0.00    +0.078 C 
ATOM     12  C   UNL     1     -11.711  11.239  69.075  0.00  0.00    +0.018 A 
ATOM     13  N   UNL     1     -12.255  15.368  70.586  0.00  0.00    -0.252 NA
ENDROOT
BRANCH  11  14
ATOM     14  C   UNL     1     -10.495  15.804  69.015  0.00  0.00    +0.017 A 
ATOM     15  C   UNL     1      -9.128  15.687  69.199  0.00  0.00    +0.001 A 
ATOM     16  C   UNL     1      -8.273  16.702  68.780  0.00  0.00    +0.000 A 
ATOM     17  C   UNL     1      -8.771  17.962  68.462  0.00  0.00    +0.000 A 
ATOM     18  C   UNL     1     -10.142  18.116  68.331  0.00  0.00    +0.000 A 
ATOM     19  C   UNL     1     -10.878  16.973  68.362  0.00  0.00    +0.001 A 
ENDBRANCH  11  14
BRANCH   1  21
ATOM     20  O   UNL     1     -12.865  16.262  73.287  0.00  0.00    -0.243 OA
ATOM     21  C   UNL     1     -13.313  15.607  72.679  0.00  0.00    +0.396 C 
ATOM     22  OXT UNL     1     -14.367  15.907  71.866  0.00  0.00    -0.243 OA
ENDBRANCH   1  21
TORSDOF 2
ENDMDL
MODEL 3
REMARK VINA RESULT:      -7.2      2.814      5.108
REMARK  Name = 
REMARK  2 active torsions:
REMARK  status: ('A' for Active; 'I' for Inactive)
REMARK    1  A    between atoms: C_2  and  CA_4
REMARK    2  A    between atoms: C_6  and  C_7
REMARK                            x       y       z     vdW  Elec       q    Type
REMARK                         _______ _______ _______ _____ _____    ______ ____
ROOT
ATOM      1  CA  UNL     1     -10.919  12.943  66.214  0.00  0.00    +0.284 C 
ATOM      2  C   UNL     1     -11.665  14.411  66.321  0.00  0.00    +0.279 C 
ATOM      3  O   UNL     1     -11.417  15.006  65.235  0.00  0.00    -0.270 OA
ATOM      4  N   UNL     1     -11.259  15.184  67.461  0.00  0.00    -0.177 NA
ATOM      5  C   UNL     1     -11.177  14.718  68.810  0.00  0.00    +0.075 A 
ATOM      6  C   UNL     1     -11.606  13.480  69.273  0.00  0.00    +0.033 A 
ATOM      7  C   UNL     1     -12.230  13.327  70.508  0.00  0.00    +0.014 A 
ATOM      8  C   UNL     1     -12.524  14.456  71.267  0.00  0.00    +0.058 A 
ATOM      9  C   UNL     1     -11.726  15.559  70.985  0.00  0.00    +0.013 A 
ATOM     10 CL   UNL     1     -14.031  14.625  72.154  0.00  0.00    -0.082 Cl
ATOM     11  C   UNL     1     -11.783  12.259  68.469  0.00  0.00    +0.078 C 
ATOM     12  C   UNL     1     -11.142  15.742  69.741  0.00  0.00    +0.018 A 
ATOM     13  N   UNL     1     -11.988  12.223  67.184  0.00  0.00    -0.252 NA
ENDROOT
BRANCH  11  14
ATOM     14  C   UNL     1     -11.595  11.065  69.248  0.00  0.00    +0.017 A 
ATOM     15  C   UNL     1     -12.466  10.609  70.222  0.00  0.00    +0.001 A 
ATOM     16  C   UNL     1     -12.079   9.595  71.093  0.00  0.00    +0.000 A 
ATOM     17  C   UNL     1     -10.739   9.238  71.214  0.00  0.00    +0.000 A 
ATOM     18  C   UNL     1      -9.839   9.732  70.283  0.00  0.00    +0.000 A 
ATOM     19  C   UNL     1     -10.375  10.394  69.224  0.00  0.00    +0.001 A 
ENDBRANCH  11  14
BRANCH   1  21
ATOM     20  O   UNL     1     -11.232  11.815  64.366  0.00  0.00    -0.243 OA
ATOM     21  C   UNL     1     -11.752  12.515  64.857  0.00  0.00    +0.396 C 
ATOM     22  OXT UNL     1     -13.111  12.521  64.979  0.00  0.00    -0.243 OA
ENDBRANCH   1  21
TORSDOF 2
ENDMDL
MODEL 4
REMARK VINA RESULT:      -6.8      3.239      4.719
REMARK  Name = 
REMARK  2 active torsions:
REMARK  status: ('A' for Active; 'I' for Inactive)
REMARK    1  A    between atoms: C_2  and  CA_4
REMARK    2  A    between atoms: C_6  and  C_7
REMARK                            x       y       z     vdW  Elec       q    Type
REMARK                         _______ _______ _______ _____ _____    ______ ____
ROOT
ATOM      1  CA  UNL     1     -10.499  12.572  68.445  0.00  0.00    +0.284 C 
ATOM      2  C   UNL     1      -9.863  13.229  67.071  0.00  0.00    +0.279 C 
ATOM      3  O   UNL     1      -9.408  12.260  66.401  0.00  0.00    -0.270 OA
ATOM      4  N   UNL     1      -8.861  14.228  67.319  0.00  0.00    -0.177 NA
ATOM      5  C   UNL     1      -8.969  15.323  68.231  0.00  0.00    +0.075 A 
ATOM      6  C   UNL     1     -10.111  15.691  68.932  0.00  0.00    +0.033 A 
ATOM      7  C   UNL     1     -10.456  17.025  69.139  0.00  0.00    +0.014 A 
ATOM      8  C   UNL     1      -9.691  18.025  68.546  0.00  0.00    +0.058 A 
ATOM      9  C   UNL     1      -8.388  17.647  68.246  0.00  0.00    +0.013 A 
ATOM     10 CL   UNL     1     -10.413  19.458  67.829  0.00  0.00    -0.082 Cl
ATOM     11  C   UNL     1     -11.255  14.823  69.258  0.00  0.00    +0.078 C 
ATOM     12  C   UNL     1      -8.047  16.328  67.990  0.00  0.00    +0.018 A 
ATOM     13  N   UNL     1     -11.594  13.745  68.612  0.00  0.00    -0.252 NA
ENDROOT
BRANCH  11  14
ATOM     14  C   UNL     1     -11.922  15.234  70.464  0.00  0.00    +0.017 A 
ATOM     15  C   UNL     1     -11.328  15.308  71.712  0.00  0.00    +0.001 A 
ATOM     16  C   UNL     1     -12.108  15.467  72.853  0.00  0.00    +0.000 A 
ATOM     17  C   UNL     1     -13.482  15.246  72.810  0.00  0.00    +0.000 A 
ATOM     18  C   UNL     1     -14.088  15.110  71.571  0.00  0.00    +0.000 A 
ATOM     19  C   UNL     1     -13.308  15.373  70.490  0.00  0.00    +0.001 A 
ENDBRANCH  11  14
BRANCH   1  21
ATOM     20  O   UNL     1     -11.930  10.931  68.235  0.00  0.00    -0.243 OA
ATOM     21  C   UNL     1     -11.548  11.611  67.611  0.00  0.00    +0.396 C 
ATOM     22  OXT UNL     1     -12.257  12.238  66.626  0.00  0.00    -0.243 OA
ENDBRANCH   1  21
TORSDOF 2
ENDMDL
MODEL 5
REMARK VINA RESULT:      -6.5      3.122      4.033
REMARK  Name = 
REMARK  2 active torsions:
REMARK  status: ('A' for Active; 'I' for Inactive)
REMARK    1  A    between atoms: C_2  and  CA_4
REMARK    2  A    between atoms: C_6  and  C_7
REMARK                            x       y       z     vdW  Elec       q    Type
REMARK                         _______ _______ _______ _____ _____    ______ ____
ROOT
ATOM      1  CA  UNL     1     -10.721  15.955  67.217  0.00  0.00    +0.284 C 
ATOM      2  C   UNL     1     -10.423  16.114  65.602  0.00  0.00    +0.279 C 
ATOM      3  O   UNL     1     -10.535  17.346  65.348  0.00  0.00    -0.270 OA
ATOM      4  N   UNL     1     -11.284  15.315  64.774  0.00  0.00    -0.177 NA
ATOM      5  C   UNL     1     -11.579  13.928  64.957  0.00  0.00    +0.075 A 
ATOM      6  C   UNL     1     -10.979  13.081  65.880  0.00  0.00    +0.033 A 
ATOM      7  C   UNL     1     -10.666  11.758  65.577  0.00  0.00    +0.014 A 
ATOM      8  C   UNL     1     -10.867  11.290  64.283  0.00  0.00    +0.058 A 
ATOM      9  C   UNL     1     -11.823  11.996  63.561  0.00  0.00    +0.013 A 
ATOM     10 CL   UNL     1      -9.723  10.225  63.481  0.00  0.00    -0.082 Cl
ATOM     11  C   UNL     1     -10.303  13.482  67.125  0.00  0.00    +0.078 C 
ATOM     12  C   UNL     1     -12.104  13.328  63.825  0.00  0.00    +0.018 A 
ATOM     13  N   UNL     1      -9.781  14.652  67.358  0.00  0.00    -0.252 NA
ENDROOT
BRANCH  11  14
ATOM     14  C   UNL     1     -10.370  12.459  68.133  0.00  0.00    +0.017 A 
ATOM     15  C   UNL     1      -9.386  11.515  68.369  0.00  0.00    +0.001 A 
ATOM     16  C   UNL     1      -9.647  10.417  69.184  0.00  0.00    +0.000 A 
ATOM     17  C   UNL     1     -10.954  10.076  69.518  0.00  0.00    +0.000 A 
ATOM     18  C   UNL     1     -11.964  10.983  69.236  0.00  0.00    +0.000 A 
ATOM     19  C   UNL     1     -11.564  12.208  68.804  0.00  0.00    +0.001 A 
ENDBRANCH  11  14
BRANCH   1  21
ATOM     20  O   UNL     1      -9.785  17.523  68.422  0.00  0.00    -0.243 OA
ATOM     21  C   UNL     1      -9.495  16.975  67.637  0.00  0.00    +0.396 C 
ATOM     22  OXT UNL     1      -8.236  16.476  67.468  0.00  0.00    -0.243 OA
ENDBRANCH   1  21
TORSDOF 2
ENDMDL
MODEL 6
REMARK VINA RESULT:      -6.4      4.314      5.662
REMARK  Name = 
REMARK  2 active torsions:
REMARK  status: ('A' for Active; 'I' for Inactive)
REMARK    1  A    between atoms: C_2  and  CA_4
REMARK    2  A    between atoms: C_6  and  C_7
REMARK                            x       y       z     vdW  Elec       q    Type
REMARK                         _______ _______ _______ _____ _____    ______ ____
ROOT
ATOM      1  CA  UNL     1     -11.452  14.315  66.255  0.00  0.00    +0.284 C 
ATOM      2  C   UNL     1     -10.199  13.405  65.686  0.00  0.00    +0.279 C 
ATOM      3  O   UNL     1     -10.675  12.256  65.469  0.00  0.00    -0.270 OA
ATOM      4  N   UNL     1      -9.070  13.358  66.574  0.00  0.00    -0.177 NA
ATOM      5  C   UNL     1      -8.448  14.479  67.208  0.00  0.00    +0.075 A 
ATOM      6  C   UNL     1      -8.740  15.816  66.968  0.00  0.00    +0.033 A 
ATOM      7  C   UNL     1      -7.750  16.795  66.929  0.00  0.00    +0.014 A 
ATOM      8  C   UNL     1      -6.415  16.417  67.034  0.00  0.00    +0.058 A 
ATOM      9  C   UNL     1      -6.213  15.202  67.678  0.00  0.00    +0.013 A 
ATOM     10 CL   UNL     1      -5.150  17.153  66.061  0.00  0.00    -0.082 Cl
ATOM     11  C   UNL     1      -9.994  16.352  66.414  0.00  0.00    +0.078 C 
ATOM     12  C   UNL     1      -7.176  14.204  67.680  0.00  0.00    +0.018 A 
ATOM     13  N   UNL     1     -10.838  15.691  65.676  0.00  0.00    -0.252 NA
ENDROOT
BRANCH  11  14
ATOM     14  C   UNL     1     -10.260  17.690  66.869  0.00  0.00    +0.017 A 
ATOM     15  C   UNL     1     -10.327  18.806  66.053  0.00  0.00    +0.001 A 
ATOM     16  C   UNL     1     -10.334  20.083  66.606  0.00  0.00    +0.000 A 
ATOM     17  C   UNL     1      -9.966  20.282  67.933  0.00  0.00    +0.000 A 
ATOM     18  C   UNL     1      -9.835  19.173  68.755  0.00  0.00    +0.000 A 
ATOM     19  C   UNL     1     -10.243  17.988  68.230  0.00  0.00    +0.001 A 
ENDBRANCH  11  14
BRANCH   1  21
ATOM     20  O   UNL     1     -13.200  13.584  65.162  0.00  0.00    -0.243 OA
ATOM     21  C   UNL     1     -12.365  14.069  64.904  0.00  0.00    +0.396 C 
ATOM     22  OXT UNL     1     -12.308  15.064  63.971  0.00  0.00    -0.243 OA
ENDBRANCH   1  21
TORSDOF 2
ENDMDL
MODEL 7
REMARK VINA RESULT:      -6.4      4.674      5.762
REMARK  Name = 
REMARK  2 active torsions:
REMARK  status: ('A' for Active; 'I' for Inactive)
REMARK    1  A    between atoms: C_2  and  CA_4
REMARK    2  A    between atoms: C_6  and  C_7
REMARK                            x       y       z     vdW  Elec       q    Type
REMARK                         _______ _______ _______ _____ _____    ______ ____
ROOT
ATOM      1  CA  UNL     1     -11.177   9.998  71.000  0.00  0.00    +0.284 C 
ATOM      2  C   UNL     1     -11.223   9.318  69.497  0.00  0.00    +0.279 C 
ATOM      3  O   UNL     1     -10.834   8.126  69.643  0.00  0.00    -0.270 OA
ATOM      4  N   UNL     1     -10.440  10.023  68.520  0.00  0.00    -0.177 NA
ATOM      5  C   UNL     1     -10.456  11.433  68.284  0.00  0.00    +0.075 A 
ATOM      6  C   UNL     1     -11.329  12.347  68.861  0.00  0.00    +0.033 A 
ATOM      7  C   UNL     1     -11.860  13.417  68.145  0.00  0.00    +0.014 A 
ATOM      8  C   UNL     1     -11.589  13.527  66.785  0.00  0.00    +0.058 A 
ATOM      9  C   UNL     1     -10.426  12.885  66.379  0.00  0.00    +0.013 A 
ATOM     10 CL   UNL     1     -12.809  14.024  65.622  0.00  0.00    -0.082 Cl
ATOM     11  C   UNL     1     -12.068  12.174  70.123  0.00  0.00    +0.078 C 
ATOM     12  C   UNL     1      -9.919  11.788  67.058  0.00  0.00    +0.018 A 
ATOM     13  N   UNL     1     -12.370  11.033  70.672  0.00  0.00    -0.252 NA
ENDROOT
BRANCH  11  14
ATOM     14  C   UNL     1     -12.341  13.430  70.768  0.00  0.00    +0.017 A 
ATOM     15  C   UNL     1     -11.539  14.554  70.684  0.00  0.00    +0.001 A 
ATOM     16  C   UNL     1     -11.747  15.632  71.540  0.00  0.00    +0.000 A 
ATOM     17  C   UNL     1     -12.534  15.491  72.679  0.00  0.00    +0.000 A 
ATOM     18  C   UNL     1     -13.301  14.344  72.812  0.00  0.00    +0.000 A 
ATOM     19  C   UNL     1     -13.345  13.524  71.729  0.00  0.00    +0.001 A 
ENDBRANCH  11  14
BRANCH   1  21
ATOM     20  O   UNL     1     -11.852   8.565  72.509  0.00  0.00    -0.243 OA
ATOM     21  C   UNL     1     -12.217   8.887  71.635  0.00  0.00    +0.396 C 
ATOM     22  OXT UNL     1     -13.540   9.119  71.391  0.00  0.00    -0.243 OA
ENDBRANCH   1  21
TORSDOF 2
ENDMDL
MODEL 8
REMARK VINA RESULT:      -6.3      2.862      4.192
REMARK  Name = 
REMARK  2 active torsions:
REMARK  status: ('A' for Active; 'I' for Inactive)
REMARK    1  A    between atoms: C_2  and  CA_4
REMARK    2  A    between atoms: C_6  and  C_7
REMARK                            x       y       z     vdW  Elec       q    Type
REMARK                         _______ _______ _______ _____ _____    ______ ____
ROOT
ATOM      1  CA  UNL     1     -12.763  14.441  70.029  0.00  0.00    +0.284 C 
ATOM      2  C   UNL     1     -11.797  15.115  68.872  0.00  0.00    +0.279 C 
ATOM      3  O   UNL     1     -12.087  16.344  68.852  0.00  0.00    -0.270 OA
ATOM      4  N   UNL     1     -11.938  14.509  67.577  0.00  0.00    -0.177 NA
ATOM      5  C   UNL     1     -11.920  13.107  67.295  0.00  0.00    +0.075 A 
ATOM      6  C   UNL     1     -11.626  12.097  68.203  0.00  0.00    +0.033 A 
ATOM      7  C   UNL     1     -10.883  10.975  67.846  0.00  0.00    +0.014 A 
ATOM      8  C   UNL     1     -10.331  10.901  66.571  0.00  0.00    +0.058 A 
ATOM      9  C   UNL     1     -10.983  11.675  65.619  0.00  0.00    +0.013 A 
ATOM     10 CL   UNL     1      -8.716  10.270  66.282  0.00  0.00    -0.082 Cl
ATOM     11  C   UNL     1     -11.736  12.179  69.669  0.00  0.00    +0.078 C 
ATOM     12  C   UNL     1     -11.684  12.821  65.961  0.00  0.00    +0.018 A 
ATOM     13  N   UNL     1     -11.700  13.275  70.369  0.00  0.00    -0.252 NA
ENDROOT
BRANCH  11  14
ATOM     14  C   UNL     1     -12.002  10.898  70.265  0.00  0.00    +0.017 A 
ATOM     15  C   UNL     1     -13.207  10.522  70.831  0.00  0.00    +0.001 A 
ATOM     16  C   UNL     1     -13.292   9.369  71.605  0.00  0.00    +0.000 A 
ATOM     17  C   UNL     1     -12.141   8.749  72.082  0.00  0.00    +0.000 A 
ATOM     18  C   UNL     1     -10.916   9.151  71.571  0.00  0.00    +0.000 A 
ATOM     19  C   UNL     1     -10.959  10.009  70.518  0.00  0.00    +0.001 A 
ENDBRANCH  11  14
BRANCH   1  21
ATOM     20  O   UNL     1     -12.945  15.746  71.774  0.00  0.00    -0.243 OA
ATOM     21  C   UNL     1     -12.180  15.422  71.219  0.00  0.00    +0.396 C 
ATOM     22  OXT UNL     1     -10.959  15.071  71.718  0.00  0.00    -0.243 OA
ENDBRANCH   1  21
TORSDOF 2
ENDMDL
MODEL 9
REMARK VINA RESULT:      -6.3      2.352      3.579
REMARK  Name = 
REMARK  2 active torsions:
REMARK  status: ('A' for Active; 'I' for Inactive)
REMARK    1  A    between atoms: C_2  and  CA_4
REMARK    2  A    between atoms: C_6  and  C_7
REMARK                            x       y       z     vdW  Elec       q    Type
REMARK                         _______ _______ _______ _____ _____    ______ ____
ROOT
ATOM      1  CA  UNL     1     -12.241  13.952  65.288  0.00  0.00    +0.284 C 
ATOM      2  C   UNL     1     -11.206  12.948  64.487  0.00  0.00    +0.279 C 
ATOM      3  O   UNL     1     -11.610  12.915  63.291  0.00  0.00    -0.270 OA
ATOM      4  N   UNL     1     -11.117  11.633  65.059  0.00  0.00    -0.177 NA
ATOM      5  C   UNL     1     -10.925  11.326  66.443  0.00  0.00    +0.075 A 
ATOM      6  C   UNL     1     -10.654  12.243  67.451  0.00  0.00    +0.033 A 
ATOM      7  C   UNL     1      -9.763  11.964  68.485  0.00  0.00    +0.014 A 
ATOM      8  C   UNL     1      -9.047  10.772  68.463  0.00  0.00    +0.058 A 
ATOM      9  C   UNL     1      -9.643   9.758  67.722  0.00  0.00    +0.013 A 
ATOM     10 CL   UNL     1      -7.354  10.685  68.927  0.00  0.00    -0.082 Cl
ATOM     11  C   UNL     1     -10.959  13.683  67.429  0.00  0.00    +0.078 C 
ATOM     12  C   UNL     1     -10.492  10.029  66.660  0.00  0.00    +0.018 A 
ATOM     13  N   UNL     1     -11.123  14.405  66.359  0.00  0.00    -0.252 NA
ENDROOT
BRANCH  11  14
ATOM     14  C   UNL     1     -11.173  14.212  68.749  0.00  0.00    +0.017 A 
ATOM     15  C   UNL     1     -12.152  13.781  69.627  0.00  0.00    +0.001 A 
ATOM     16  C   UNL     1     -12.445  14.517  70.771  0.00  0.00    +0.000 A 
ATOM     17  C   UNL     1     -12.002  15.830  70.901  0.00  0.00    +0.000 A 
ATOM     18  C   UNL     1     -11.064  16.302  69.996  0.00  0.00    +0.000 A 
ATOM     19  C   UNL     1     -10.531  15.381  69.152  0.00  0.00    +0.001 A 
ENDBRANCH  11  14
BRANCH   1  21
ATOM     20  O   UNL     1     -12.778  15.579  63.929  0.00  0.00    -0.243 OA
ATOM     21  C   UNL     1     -11.917  15.229  64.297  0.00  0.00    +0.396 C 
ATOM     22  OXT UNL     1     -10.866  16.012  64.680  0.00  0.00    -0.243 OA
ENDBRANCH   1  21
TORSDOF 2
ENDMDL
