MODEL 1
REMARK VINA RESULT:      -6.5      0.000      0.000
REMARK  Name = 
REMARK  6 active torsions:
REMARK  status: ('A' for Active; 'I' for Inactive)
REMARK    1  A    between atoms: C_6  and  C_7
REMARK    2  A    between atoms: C_7  and  O_8
REMARK    3  A    between atoms: O_8  and  C_9
REMARK    4  A    between atoms: C_9  and  C_10
REMARK    5  A    between atoms: C_9  and  C_16
REMARK    6  A    between atoms: C_10  and  N_11
REMARK                            x       y       z     vdW  Elec       q    Type
REMARK                         _______ _______ _______ _____ _____    ______ ____
ROOT
ATOM      1  C   UNL     1     -11.226  14.642  67.228  0.00  0.00    +0.161 C 
ENDROOT
BRANCH   1   2
ATOM      2  C   UNL     1     -10.213  15.902  67.037  0.00  0.00    +0.017 A 
ATOM      3  C   UNL     1     -10.489  16.771  66.026  0.00  0.00    +0.057 A 
ATOM      4 CL   UNL     1     -11.243  16.254  64.559  0.00  0.00    -0.082 Cl
ATOM      5  C   UNL     1      -9.941  18.046  66.115  0.00  0.00    +0.023 A 
ATOM      6  C   UNL     1      -9.821  18.640  67.364  0.00  0.00    +0.058 A 
ATOM      7 CL   UNL     1      -8.826  20.072  67.612  0.00  0.00    -0.082 Cl
ATOM      8  C   UNL     1     -10.223  17.888  68.461  0.00  0.00    +0.011 A 
ATOM      9  C   UNL     1     -10.254  16.511  68.297  0.00  0.00    -0.000 A 
ENDBRANCH   1   2
BRANCH   1  10
ATOM     10  O   UNL     1     -10.826  14.446  68.686  0.00  0.00    -0.345 OA
BRANCH  10  11
ATOM     11  C   UNL     1     -11.558  13.390  69.161  0.00  0.00    +0.170 C 
BRANCH  11  14
ATOM     12 CL   UNL     1     -12.721  11.196  71.198  0.00  0.00    -0.075 Cl
ATOM     13  C   UNL     1     -12.850  12.923  71.293  0.00  0.00    +0.085 A 
ATOM     14  C   UNL     1     -12.180  13.809  70.456  0.00  0.00    +0.024 A 
ATOM     15  C   UNL     1     -12.109  15.059  70.997  0.00  0.00    +0.006 A 
ATOM     16  C   UNL     1     -13.286  15.471  71.569  0.00  0.00    +0.036 A 
ATOM     17  S   UNL     1     -13.895  13.975  72.154  0.00  0.00    -0.075 S 
ENDBRANCH  11  14
ENDBRANCH  10  11
ENDBRANCH   1  10
BRANCH   1  18
ATOM     18  C   UNL     1     -10.181  13.465  66.715  0.00  0.00    +0.142 C 
BRANCH  18  19
ATOM     19  N   UNL     1     -11.016  12.967  65.614  0.00  0.00    -0.305 N 
ATOM     20  C   UNL     1     -12.360  13.010  65.561  0.00  0.00    +0.179 A 
ATOM     21  N   UNL     1     -12.775  12.831  64.282  0.00  0.00    -0.222 NA
ATOM     22  C   UNL     1     -11.714  12.405  63.555  0.00  0.00    +0.119 A 
ATOM     23  C   UNL     1     -10.621  12.774  64.331  0.00  0.00    +0.098 A 
ENDBRANCH  18  19
ENDBRANCH   1  18
TORSDOF 6
ENDMDL
MODEL 2
REMARK VINA RESULT:      -6.1      3.493      6.616
REMARK  Name = 
REMARK  6 active torsions:
REMARK  status: ('A' for Active; 'I' for Inactive)
REMARK    1  A    between atoms: C_6  and  C_7
REMARK    2  A    between atoms: C_7  and  O_8
REMARK    3  A    between atoms: O_8  and  C_9
REMARK    4  A    between atoms: C_9  and  C_10
REMARK    5  A    between atoms: C_9  and  C_16
REMARK    6  A    between atoms: C_10  and  N_11
REMARK                            x       y       z     vdW  Elec       q    Type
REMARK                         _______ _______ _______ _____ _____    ______ ____
ROOT
ATOM      1  C   UNL     1     -12.231  15.365  69.287  0.00  0.00    +0.161 C 
ENDROOT
BRANCH   1   2
ATOM      2  C   UNL     1     -11.428  14.230  68.440  0.00  0.00    +0.017 A 
ATOM      3  C   UNL     1     -11.699  12.929  68.735  0.00  0.00    +0.057 A 
ATOM      4 CL   UNL     1     -12.137  12.428  70.330  0.00  0.00    -0.082 Cl
ATOM      5  C   UNL     1     -11.392  11.979  67.767  0.00  0.00    +0.023 A 
ATOM      6  C   UNL     1     -11.555  12.308  66.428  0.00  0.00    +0.058 A 
ATOM      7 CL   UNL     1     -10.861  11.319  65.146  0.00  0.00    -0.082 Cl
ATOM      8  C   UNL     1     -11.977  13.600  66.143  0.00  0.00    +0.011 A 
ATOM      9  C   UNL     1     -11.751  14.561  67.118  0.00  0.00    -0.000 A 
ENDBRANCH   1   2
BRANCH   1  10
ATOM     10  O   UNL     1     -11.652  16.503  68.454  0.00  0.00    -0.345 OA
BRANCH  10  11
ATOM     11  C   UNL     1     -10.522  16.933  69.098  0.00  0.00    +0.170 C 
BRANCH  11  14
ATOM     12 CL   UNL     1      -7.322  17.043  68.847  0.00  0.00    -0.075 Cl
ATOM     13  C   UNL     1      -8.487  18.163  68.216  0.00  0.00    +0.085 A 
ATOM     14  C   UNL     1      -9.863  17.959  68.230  0.00  0.00    +0.024 A 
ATOM     15  C   UNL     1     -10.500  18.748  67.319  0.00  0.00    +0.006 A 
ATOM     16  C   UNL     1     -10.036  20.039  67.300  0.00  0.00    +0.036 A 
ATOM     17  S   UNL     1      -8.379  19.786  67.674  0.00  0.00    -0.075 S 
ENDBRANCH  11  14
ENDBRANCH  10  11
ENDBRANCH   1  10
BRANCH   1  18
ATOM     18  C   UNL     1     -11.095  15.569  70.475  0.00  0.00    +0.142 C 
BRANCH  18  19
ATOM     19  N   UNL     1     -12.039  15.676  71.594  0.00  0.00    -0.305 N 
ATOM     20  C   UNL     1     -13.378  15.575  71.510  0.00  0.00    +0.179 A 
ATOM     21  N   UNL     1     -13.899  15.337  72.739  0.00  0.00    -0.222 NA
ATOM     22  C   UNL     1     -12.924  15.553  73.655  0.00  0.00    +0.119 A 
ATOM     23  C   UNL     1     -11.755  15.477  72.905  0.00  0.00    +0.098 A 
ENDBRANCH  18  19
ENDBRANCH   1  18
TORSDOF 6
ENDMDL
MODEL 3
REMARK VINA RESULT:      -6.1      2.583      5.363
REMARK  Name = 
REMARK  6 active torsions:
REMARK  status: ('A' for Active; 'I' for Inactive)
REMARK    1  A    between atoms: C_6  and  C_7
REMARK    2  A    between atoms: C_7  and  O_8
REMARK    3  A    between atoms: O_8  and  C_9
REMARK    4  A    between atoms: C_9  and  C_10
REMARK    5  A    between atoms: C_9  and  C_16
REMARK    6  A    between atoms: C_10  and  N_11
REMARK                            x       y       z     vdW  Elec       q    Type
REMARK                         _______ _______ _______ _____ _____    ______ ____
ROOT
ATOM      1  C   UNL     1     -10.904  14.655  67.664  0.00  0.00    +0.161 C 
ENDROOT
BRANCH   1   2
ATOM      2  C   UNL     1     -11.963  14.654  68.900  0.00  0.00    +0.017 A 
ATOM      3  C   UNL     1     -11.947  13.575  69.730  0.00  0.00    +0.057 A 
ATOM      4 CL   UNL     1     -11.537  11.994  69.162  0.00  0.00    -0.082 Cl
ATOM      5  C   UNL     1     -12.489  13.738  70.999  0.00  0.00    +0.023 A 
ATOM      6  C   UNL     1     -12.333  14.958  71.644  0.00  0.00    +0.058 A 
ATOM      7 CL   UNL     1     -13.278  15.374  73.071  0.00  0.00    -0.082 Cl
ATOM      8  C   UNL     1     -11.673  15.961  70.945  0.00  0.00    +0.011 A 
ATOM      9  C   UNL     1     -11.649  15.847  69.562  0.00  0.00    -0.000 A 
ENDBRANCH   1   2
BRANCH   1  10
ATOM     10  O   UNL     1     -10.916  16.175  67.558  0.00  0.00    -0.345 OA
BRANCH  10  11
ATOM     11  C   UNL     1     -10.192  16.502  66.441  0.00  0.00    +0.170 C 
BRANCH  11  14
ATOM     12 CL   UNL     1      -7.099  17.278  66.056  0.00  0.00    -0.075 Cl
ATOM     13  C   UNL     1      -8.400  18.289  66.600  0.00  0.00    +0.085 A 
ATOM     14  C   UNL     1      -9.741  17.921  66.587  0.00  0.00    +0.024 A 
ATOM     15  C   UNL     1     -10.563  19.008  66.649  0.00  0.00    +0.006 A 
ATOM     16  C   UNL     1     -10.156  19.944  67.566  0.00  0.00    +0.036 A 
ATOM     17  S   UNL     1      -8.450  19.771  67.460  0.00  0.00    -0.075 S 
ENDBRANCH  11  14
ENDBRANCH  10  11
ENDBRANCH   1  10
BRANCH   1  18
ATOM     18  C   UNL     1     -12.017  14.496  66.447  0.00  0.00    +0.142 C 
BRANCH  18  19
ATOM     19  N   UNL     1     -11.492  13.239  65.901  0.00  0.00    -0.305 N 
ATOM     20  C   UNL     1     -12.089  12.471  64.971  0.00  0.00    +0.179 A 
ATOM     21  N   UNL     1     -11.185  11.620  64.427  0.00  0.00    -0.222 NA
ATOM     22  C   UNL     1     -10.067  11.653  65.193  0.00  0.00    +0.119 A 
ATOM     23  C   UNL     1     -10.194  12.845  65.897  0.00  0.00    +0.098 A 
ENDBRANCH  18  19
ENDBRANCH   1  18
TORSDOF 6
ENDMDL
MODEL 4
REMARK VINA RESULT:      -6.1      2.807      5.289
REMARK  Name = 
REMARK  6 active torsions:
REMARK  status: ('A' for Active; 'I' for Inactive)
REMARK    1  A    between atoms: C_6  and  C_7
REMARK    2  A    between atoms: C_7  and  O_8
REMARK    3  A    between atoms: O_8  and  C_9
REMARK    4  A    between atoms: C_9  and  C_10
REMARK    5  A    between atoms: C_9  and  C_16
REMARK    6  A    between atoms: C_10  and  N_11
REMARK                            x       y       z     vdW  Elec       q    Type
REMARK                         _______ _______ _______ _____ _____    ______ ____
ROOT
ATOM      1  C   UNL     1     -11.088  14.205  66.990  0.00  0.00    +0.161 C 
ENDROOT
BRANCH   1   2
ATOM      2  C   UNL     1     -11.921  14.507  68.355  0.00  0.00    +0.017 A 
ATOM      3  C   UNL     1     -11.850  13.575  69.344  0.00  0.00    +0.057 A 
ATOM      4 CL   UNL     1     -11.667  11.890  68.998  0.00  0.00    -0.082 Cl
ATOM      5  C   UNL     1     -12.157  13.989  70.635  0.00  0.00    +0.023 A 
ATOM      6  C   UNL     1     -11.799  15.272  71.031  0.00  0.00    +0.058 A 
ATOM      7 CL   UNL     1     -12.455  16.001  72.494  0.00  0.00    -0.082 Cl
ATOM      8  C   UNL     1     -11.189  16.078  70.079  0.00  0.00    +0.011 A 
ATOM      9  C   UNL     1     -11.407  15.749  68.749  0.00  0.00    -0.000 A 
ENDBRANCH   1   2
BRANCH   1  10
ATOM     10  O   UNL     1     -10.972  15.685  66.644  0.00  0.00    -0.345 OA
BRANCH  10  11
ATOM     11  C   UNL     1      -9.984  15.798  65.703  0.00  0.00    +0.170 C 
BRANCH  11  14
ATOM     12 CL   UNL     1     -10.524  18.905  66.312  0.00  0.00    -0.075 Cl
ATOM     13  C   UNL     1      -9.023  18.039  66.399  0.00  0.00    +0.085 A 
ATOM     14  C   UNL     1      -8.902  16.660  66.275  0.00  0.00    +0.024 A 
ATOM     15  C   UNL     1      -7.727  16.207  66.798  0.00  0.00    +0.006 A 
ATOM     16  C   UNL     1      -6.648  16.985  66.464  0.00  0.00    +0.036 A 
ATOM     17  S   UNL     1      -7.382  18.537  66.405  0.00  0.00    -0.075 S 
ENDBRANCH  11  14
ENDBRANCH  10  11
ENDBRANCH   1  10
BRANCH   1  18
ATOM     18  C   UNL     1     -12.399  14.009  65.996  0.00  0.00    +0.142 C 
BRANCH  18  19
ATOM     19  N   UNL     1     -11.906  12.813  65.302  0.00  0.00    -0.305 N 
ATOM     20  C   UNL     1     -12.260  12.414  64.066  0.00  0.00    +0.179 A 
ATOM     21  N   UNL     1     -11.357  11.521  63.594  0.00  0.00    -0.222 NA
ATOM     22  C   UNL     1     -10.567  11.140  64.628  0.00  0.00    +0.119 A 
ATOM     23  C   UNL     1     -10.752  12.151  65.564  0.00  0.00    +0.098 A 
ENDBRANCH  18  19
ENDBRANCH   1  18
TORSDOF 6
ENDMDL
MODEL 5
REMARK VINA RESULT:      -6.1      1.859      2.233
REMARK  Name = 
REMARK  6 active torsions:
REMARK  status: ('A' for Active; 'I' for Inactive)
REMARK    1  A    between atoms: C_6  and  C_7
REMARK    2  A    between atoms: C_7  and  O_8
REMARK    3  A    between atoms: O_8  and  C_9
REMARK    4  A    between atoms: C_9  and  C_10
REMARK    5  A    between atoms: C_9  and  C_16
REMARK    6  A    between atoms: C_10  and  N_11
REMARK                            x       y       z     vdW  Elec       q    Type
REMARK                         _______ _______ _______ _____ _____    ______ ____
ROOT
ATOM      1  C   UNL     1     -10.638  15.813  67.466  0.00  0.00    +0.161 C 
ENDROOT
BRANCH   1   2
ATOM      2  C   UNL     1      -9.176  16.527  67.464  0.00  0.00    +0.017 A 
ATOM      3  C   UNL     1      -9.113  17.813  67.906  0.00  0.00    +0.057 A 
ATOM      4 CL   UNL     1     -10.427  18.916  67.692  0.00  0.00    -0.082 Cl
ATOM      5  C   UNL     1      -7.875  18.281  68.332  0.00  0.00    +0.023 A 
ATOM      6  C   UNL     1      -7.017  17.408  68.988  0.00  0.00    +0.058 A 
ATOM      7 CL   UNL     1      -5.317  17.800  69.236  0.00  0.00    -0.082 Cl
ATOM      8  C   UNL     1      -7.444  16.094  69.134  0.00  0.00    +0.011 A 
ATOM      9  C   UNL     1      -8.415  15.651  68.247  0.00  0.00    -0.000 A 
ENDBRANCH   1   2
BRANCH   1  10
ATOM     10  O   UNL     1     -10.666  15.706  68.986  0.00  0.00    -0.345 OA
BRANCH  10  11
ATOM     11  C   UNL     1     -11.962  15.919  69.377  0.00  0.00    +0.170 C 
BRANCH  11  14
ATOM     12 CL   UNL     1     -12.083  12.761  69.947  0.00  0.00    -0.075 Cl
ATOM     13  C   UNL     1     -12.338  14.064  71.064  0.00  0.00    +0.085 A 
ATOM     14  C   UNL     1     -12.110  15.404  70.774  0.00  0.00    +0.024 A 
ATOM     15  C   UNL     1     -11.971  16.150  71.908  0.00  0.00    +0.006 A 
ATOM     16  C   UNL     1     -12.894  15.843  72.875  0.00  0.00    +0.036 A 
ATOM     17  S   UNL     1     -13.097  14.161  72.598  0.00  0.00    -0.075 S 
ENDBRANCH  11  14
ENDBRANCH  10  11
ENDBRANCH   1  10
BRANCH   1  18
ATOM     18  C   UNL     1     -10.100  14.255  67.302  0.00  0.00    +0.142 C 
BRANCH  18  19
ATOM     19  N   UNL     1     -11.031  13.867  66.234  0.00  0.00    -0.305 N 
ATOM     20  C   UNL     1     -12.374  13.858  66.322  0.00  0.00    +0.179 A 
ATOM     21  N   UNL     1     -12.915  13.828  65.079  0.00  0.00    -0.222 NA
ATOM     22  C   UNL     1     -11.924  13.547  64.199  0.00  0.00    +0.119 A 
ATOM     23  C   UNL     1     -10.768  13.860  64.904  0.00  0.00    +0.098 A 
ENDBRANCH  18  19
ENDBRANCH   1  18
TORSDOF 6
ENDMDL
MODEL 6
REMARK VINA RESULT:      -5.9      3.379      5.250
REMARK  Name = 
REMARK  6 active torsions:
REMARK  status: ('A' for Active; 'I' for Inactive)
REMARK    1  A    between atoms: C_6  and  C_7
REMARK    2  A    between atoms: C_7  and  O_8
REMARK    3  A    between atoms: O_8  and  C_9
REMARK    4  A    between atoms: C_9  and  C_10
REMARK    5  A    between atoms: C_9  and  C_16
REMARK    6  A    between atoms: C_10  and  N_11
REMARK                            x       y       z     vdW  Elec       q    Type
REMARK                         _______ _______ _______ _____ _____    ______ ____
ROOT
ATOM      1  C   UNL     1     -10.739  14.863  69.501  0.00  0.00    +0.161 C 
ENDROOT
BRANCH   1   2
ATOM      2  C   UNL     1      -9.609  15.873  68.907  0.00  0.00    +0.017 A 
ATOM      3  C   UNL     1      -8.802  15.390  67.923  0.00  0.00    +0.057 A 
ATOM      4 CL   UNL     1      -8.355  13.722  67.847  0.00  0.00    -0.082 Cl
ATOM      5  C   UNL     1      -8.163  16.319  67.110  0.00  0.00    +0.023 A 
ATOM      6  C   UNL     1      -8.827  17.494  66.781  0.00  0.00    +0.058 A 
ATOM      7 CL   UNL     1      -7.979  18.865  66.072  0.00  0.00    -0.082 Cl
ATOM      8  C   UNL     1     -10.088  17.680  67.332  0.00  0.00    +0.011 A 
ATOM      9  C   UNL     1     -10.378  16.965  68.486  0.00  0.00    -0.000 A 
ENDBRANCH   1   2
BRANCH   1  10
ATOM     10  O   UNL     1     -11.521  14.848  68.192  0.00  0.00    -0.345 OA
BRANCH  10  11
ATOM     11  C   UNL     1     -11.936  13.558  67.991  0.00  0.00    +0.170 C 
BRANCH  11  14
ATOM     12 CL   UNL     1     -10.763  10.822  66.786  0.00  0.00    -0.075 Cl
ATOM     13  C   UNL     1     -11.311  12.226  65.926  0.00  0.00    +0.085 A 
ATOM     14  C   UNL     1     -11.955  13.308  66.516  0.00  0.00    +0.024 A 
ATOM     15  C   UNL     1     -12.645  14.046  65.600  0.00  0.00    +0.006 A 
ATOM     16  C   UNL     1     -11.946  14.260  64.438  0.00  0.00    +0.036 A 
ATOM     17  S   UNL     1     -11.053  12.797  64.330  0.00  0.00    -0.075 S 
ENDBRANCH  11  14
ENDBRANCH  10  11
ENDBRANCH   1  10
BRANCH   1  18
ATOM     18  C   UNL     1     -11.724  16.025  70.152  0.00  0.00    +0.142 C 
BRANCH  18  19
ATOM     19  N   UNL     1     -12.202  15.225  71.286  0.00  0.00    -0.305 N 
ATOM     20  C   UNL     1     -11.929  15.453  72.584  0.00  0.00    +0.179 A 
ATOM     21  N   UNL     1     -12.816  14.786  73.364  0.00  0.00    -0.222 NA
ATOM     22  C   UNL     1     -13.492  13.915  72.576  0.00  0.00    +0.119 A 
ATOM     23  C   UNL     1     -13.290  14.415  71.294  0.00  0.00    +0.098 A 
ENDBRANCH  18  19
ENDBRANCH   1  18
TORSDOF 6
ENDMDL
MODEL 7
REMARK VINA RESULT:      -5.8      1.718      2.304
REMARK  Name = 
REMARK  6 active torsions:
REMARK  status: ('A' for Active; 'I' for Inactive)
REMARK    1  A    between atoms: C_6  and  C_7
REMARK    2  A    between atoms: C_7  and  O_8
REMARK    3  A    between atoms: O_8  and  C_9
REMARK    4  A    between atoms: C_9  and  C_10
REMARK    5  A    between atoms: C_9  and  C_16
REMARK    6  A    between atoms: C_10  and  N_11
REMARK                            x       y       z     vdW  Elec       q    Type
REMARK                         _______ _______ _______ _____ _____    ______ ____
ROOT
ATOM      1  C   UNL     1     -11.198  14.035  67.115  0.00  0.00    +0.161 C 
ENDROOT
BRANCH   1   2
ATOM      2  C   UNL     1     -10.220  15.326  67.271  0.00  0.00    +0.017 A 
ATOM      3  C   UNL     1     -10.407  16.354  66.398  0.00  0.00    +0.057 A 
ATOM      4 CL   UNL     1     -10.958  16.089  64.781  0.00  0.00    -0.082 Cl
ATOM      5  C   UNL     1      -9.924  17.603  66.772  0.00  0.00    +0.023 A 
ATOM      6  C   UNL     1      -9.979  17.972  68.110  0.00  0.00    +0.058 A 
ATOM      7 CL   UNL     1      -9.078  19.356  68.722  0.00  0.00    -0.082 Cl
ATOM      8  C   UNL     1     -10.480  17.033  69.002  0.00  0.00    +0.011 A 
ATOM      9  C   UNL     1     -10.436  15.705  68.602  0.00  0.00    -0.000 A 
ENDBRANCH   1   2
BRANCH   1  10
ATOM     10  O   UNL     1     -10.776  13.459  68.462  0.00  0.00    -0.345 OA
BRANCH  10  11
ATOM     11  C   UNL     1     -11.919  13.047  69.095  0.00  0.00    +0.170 C 
BRANCH  11  14
ATOM     12 CL   UNL     1     -13.167  11.843  71.798  0.00  0.00    -0.075 Cl
ATOM     13  C   UNL     1     -12.131  11.056  70.650  0.00  0.00    +0.085 A 
ATOM     14  C   UNL     1     -11.763  11.595  69.423  0.00  0.00    +0.024 A 
ATOM     15  C   UNL     1     -11.324  10.635  68.560  0.00  0.00    +0.006 A 
ATOM     16  C   UNL     1     -10.482   9.723  69.146  0.00  0.00    +0.036 A 
ATOM     17  S   UNL     1     -11.137   9.661  70.732  0.00  0.00    -0.075 S 
ENDBRANCH  11  14
ENDBRANCH  10  11
ENDBRANCH   1  10
BRANCH   1  18
ATOM     18  C   UNL     1     -10.129  13.072  66.295  0.00  0.00    +0.142 C 
BRANCH  18  19
ATOM     19  N   UNL     1     -11.080  12.582  65.290  0.00  0.00    -0.305 N 
ATOM     20  C   UNL     1     -12.417  12.732  65.329  0.00  0.00    +0.179 A 
ATOM     21  N   UNL     1     -12.940  12.515  64.096  0.00  0.00    -0.222 NA
ATOM     22  C   UNL     1     -11.973  11.963  63.324  0.00  0.00    +0.119 A 
ATOM     23  C   UNL     1     -10.799  12.285  63.997  0.00  0.00    +0.098 A 
ENDBRANCH  18  19
ENDBRANCH   1  18
TORSDOF 6
ENDMDL
MODEL 8
REMARK VINA RESULT:      -5.8      3.322      6.264
REMARK  Name = 
REMARK  6 active torsions:
REMARK  status: ('A' for Active; 'I' for Inactive)
REMARK    1  A    between atoms: C_6  and  C_7
REMARK    2  A    between atoms: C_7  and  O_8
REMARK    3  A    between atoms: O_8  and  C_9
REMARK    4  A    between atoms: C_9  and  C_10
REMARK    5  A    between atoms: C_9  and  C_16
REMARK    6  A    between atoms: C_10  and  N_11
REMARK                            x       y       z     vdW  Elec       q    Type
REMARK                         _______ _______ _______ _____ _____    ______ ____
ROOT
ATOM      1  C   UNL     1     -12.056  14.499  68.576  0.00  0.00    +0.161 C 
ENDROOT
BRANCH   1   2
ATOM      2  C   UNL     1     -11.779  13.030  67.933  0.00  0.00    +0.017 A 
ATOM      3  C   UNL     1     -11.802  12.933  66.575  0.00  0.00    +0.057 A 
ATOM      4 CL   UNL     1     -12.827  13.936  65.608  0.00  0.00    -0.082 Cl
ATOM      5  C   UNL     1     -11.148  11.849  66.002  0.00  0.00    +0.023 A 
ATOM      6  C   UNL     1      -9.978  11.384  66.588  0.00  0.00    +0.058 A 
ATOM      7 CL   UNL     1      -9.289   9.822  66.157  0.00  0.00    -0.082 Cl
ATOM      8  C   UNL     1      -9.561  12.018  67.751  0.00  0.00    +0.011 A 
ATOM      9  C   UNL     1     -10.530  12.699  68.474  0.00  0.00    -0.000 A 
ENDBRANCH   1   2
BRANCH   1  10
ATOM     10  O   UNL     1     -10.735  15.057  68.060  0.00  0.00    -0.345 OA
BRANCH  10  11
ATOM     11  C   UNL     1     -10.782  16.416  68.232  0.00  0.00    +0.170 C 
BRANCH  11  14
ATOM     12 CL   UNL     1     -10.104  19.555  68.211  0.00  0.00    -0.075 Cl
ATOM     13  C   UNL     1      -9.002  18.219  68.325  0.00  0.00    +0.085 A 
ATOM     14  C   UNL     1      -9.387  16.893  68.489  0.00  0.00    +0.024 A 
ATOM     15  C   UNL     1      -8.368  16.127  68.973  0.00  0.00    +0.006 A 
ATOM     16  C   UNL     1      -7.163  16.383  68.368  0.00  0.00    +0.036 A 
ATOM     17  S   UNL     1      -7.316  18.064  68.053  0.00  0.00    -0.075 S 
ENDBRANCH  11  14
ENDBRANCH  10  11
ENDBRANCH   1  10
BRANCH   1  18
ATOM     18  C   UNL     1     -11.416  14.187  70.072  0.00  0.00    +0.142 C 
BRANCH  18  19
ATOM     19  N   UNL     1     -12.679  14.264  70.815  0.00  0.00    -0.305 N 
ATOM     20  C   UNL     1     -13.169  13.320  71.640  0.00  0.00    +0.179 A 
ATOM     21  N   UNL     1     -14.124  13.858  72.438  0.00  0.00    -0.222 NA
ATOM     22  C   UNL     1     -14.440  15.080  71.946  0.00  0.00    +0.119 A 
ATOM     23  C   UNL     1     -13.349  15.397  71.144  0.00  0.00    +0.098 A 
ENDBRANCH  18  19
ENDBRANCH   1  18
TORSDOF 6
ENDMDL
MODEL 9
REMARK VINA RESULT:      -5.7      3.046      6.514
REMARK  Name = 
REMARK  6 active torsions:
REMARK  status: ('A' for Active; 'I' for Inactive)
REMARK    1  A    between atoms: C_6  and  C_7
REMARK    2  A    between atoms: C_7  and  O_8
REMARK    3  A    between atoms: O_8  and  C_9
REMARK    4  A    between atoms: C_9  and  C_10
REMARK    5  A    between atoms: C_9  and  C_16
REMARK    6  A    between atoms: C_10  and  N_11
REMARK                            x       y       z     vdW  Elec       q    Type
REMARK                         _______ _______ _______ _____ _____    ______ ____
ROOT
ATOM      1  C   UNL     1     -10.704  14.654  67.672  0.00  0.00    +0.161 C 
ENDROOT
BRANCH   1   2
ATOM      2  C   UNL     1     -10.862  13.753  69.018  0.00  0.00    +0.017 A 
ATOM      3  C   UNL     1     -11.861  14.093  69.879  0.00  0.00    +0.057 A 
ATOM      4 CL   UNL     1     -12.379  15.731  70.072  0.00  0.00    -0.082 Cl
ATOM      5  C   UNL     1     -12.298  13.117  70.766  0.00  0.00    +0.023 A 
ATOM      6  C   UNL     1     -12.331  11.793  70.345  0.00  0.00    +0.058 A 
ATOM      7 CL   UNL     1     -12.519  10.467  71.489  0.00  0.00    -0.082 Cl
ATOM      8  C   UNL     1     -11.875  11.529  69.060  0.00  0.00    +0.011 A 
ATOM      9  C   UNL     1     -11.017  12.463  68.497  0.00  0.00    -0.000 A 
ENDBRANCH   1   2
BRANCH   1  10
ATOM     10  O   UNL     1     -10.164  13.482  66.861  0.00  0.00    -0.345 OA
BRANCH  10  11
ATOM     11  C   UNL     1      -9.775  13.983  65.647  0.00  0.00    +0.170 C 
BRANCH  11  14
ATOM     12 CL   UNL     1     -12.492  15.130  64.374  0.00  0.00    -0.075 Cl
ATOM     13  C   UNL     1     -11.759  13.578  64.120  0.00  0.00    +0.085 A 
ATOM     14  C   UNL     1     -10.498  13.218  64.583  0.00  0.00    +0.024 A 
ATOM     15  C   UNL     1      -9.996  12.148  63.903  0.00  0.00    +0.006 A 
ATOM     16  C   UNL     1     -10.920  11.154  63.697  0.00  0.00    +0.036 A 
ATOM     17  S   UNL     1     -12.353  12.084  63.523  0.00  0.00    -0.075 S 
ENDBRANCH  11  14
ENDBRANCH  10  11
ENDBRANCH   1  10
BRANCH   1  18
ATOM     18  C   UNL     1      -9.181  15.222  67.989  0.00  0.00    +0.142 C 
BRANCH  18  19
ATOM     19  N   UNL     1      -9.514  16.650  67.914  0.00  0.00    -0.305 N 
ATOM     20  C   UNL     1     -10.587  17.179  67.298  0.00  0.00    +0.179 A 
ATOM     21  N   UNL     1     -10.794  18.444  67.741  0.00  0.00    -0.222 NA
ATOM     22  C   UNL     1      -9.698  18.825  68.441  0.00  0.00    +0.119 A 
ATOM     23  C   UNL     1      -9.082  17.620  68.758  0.00  0.00    +0.098 A 
ENDBRANCH  18  19
ENDBRANCH   1  18
TORSDOF 6
ENDMDL
