MODEL 1
REMARK VINA RESULT:      -8.3      0.000      0.000
REMARK  Name = 
REMARK  4 active torsions:
REMARK  status: ('A' for Active; 'I' for Inactive)
REMARK    1  A    between atoms: C_2  and  C_3
REMARK    2  A    between atoms: C_2  and  C_21
REMARK    3  A    between atoms: C_5  and  C_6
REMARK    4  A    between atoms: C_16  and  C_17
REMARK                            x       y       z     vdW  Elec       q    Type
REMARK                         _______ _______ _______ _____ _____    ______ ____
ROOT
ATOM      1  C   UNL     1      -9.873  14.707  67.913  0.00  0.00    +0.012 A 
ATOM      2  C   UNL     1      -9.578  15.905  67.358  0.00  0.00    +0.016 A 
ATOM      3  C   UNL     1      -8.449  15.836  66.554  0.00  0.00    +0.001 A 
ATOM      4  C   UNL     1      -7.697  16.979  66.340  0.00  0.00    +0.000 A 
ATOM      5  C   UNL     1      -8.280  18.199  66.660  0.00  0.00    +0.005 A 
ATOM      6  C   UNL     1      -9.341  18.233  67.545  0.00  0.00    +0.089 A 
ATOM      7  C   UNL     1      -9.677  17.038  68.160  0.00  0.00    +0.085 A 
ATOM      8  N   UNL     1     -10.749  16.995  68.990  0.00  0.00    -0.241 NA
ATOM      9  C   UNL     1     -11.027  15.841  69.644  0.00  0.00    +0.152 A 
ATOM     10  C   UNL     1     -10.896  14.698  68.859  0.00  0.00    +0.021 A 
ENDROOT
BRANCH   6  11
ATOM     11  C   UNL     1     -10.021  19.508  67.835  0.00  0.00    +0.420 C 
ATOM     12  F   UNL     1      -9.334  20.479  67.120  0.00  0.00    -0.166 F 
ATOM     13  F   UNL     1     -10.038  19.782  69.176  0.00  0.00    -0.166 F 
ATOM     14  F   UNL     1     -11.290  19.453  67.310  0.00  0.00    -0.166 F 
ENDBRANCH   6  11
BRANCH   9  15
ATOM     15  C   UNL     1     -11.885  15.792  70.868  0.00  0.00    +0.435 C 
ATOM     16  F   UNL     1     -11.598  14.556  71.431  0.00  0.00    -0.164 F 
ATOM     17  F   UNL     1     -11.547  16.811  71.718  0.00  0.00    -0.164 F 
ATOM     18  F   UNL     1     -13.229  15.805  70.573  0.00  0.00    -0.164 F 
ENDBRANCH   9  15
BRANCH   1  20
ATOM     19  O   UNL     1     -10.658  12.548  67.991  0.00  0.00    -0.217 OA
ATOM     20  C   UNL     1     -10.139  13.473  66.868  0.00  0.00    +0.190 C 
BRANCH  20  21
ATOM     21  C   UNL     1     -11.763  13.983  66.434  0.00  0.00    +0.107 C 
ATOM     22  N   UNL     1     -12.183  12.519  66.028  0.00  0.00    -0.217 NA
ATOM     23  C   UNL     1     -12.664  12.511  64.697  0.00  0.00    +0.089 C 
ATOM     24  C   UNL     1     -11.406  12.219  63.873  0.00  0.00    +0.019 C 
ATOM     25  C   UNL     1     -10.446  13.289  64.396  0.00  0.00    +0.003 C 
ATOM     26  C   UNL     1     -11.284  14.411  64.915  0.00  0.00    +0.020 C 
ENDBRANCH  20  21
ENDBRANCH   1  20
TORSDOF 4
ENDMDL
MODEL 2
REMARK VINA RESULT:      -7.7      3.633      5.061
REMARK  Name = 
REMARK  4 active torsions:
REMARK  status: ('A' for Active; 'I' for Inactive)
REMARK    1  A    between atoms: C_2  and  C_3
REMARK    2  A    between atoms: C_2  and  C_21
REMARK    3  A    between atoms: C_5  and  C_6
REMARK    4  A    between atoms: C_16  and  C_17
REMARK                            x       y       z     vdW  Elec       q    Type
REMARK                         _______ _______ _______ _____ _____    ______ ____
ROOT
ATOM      1  C   UNL     1     -10.933  12.701  69.125  0.00  0.00    +0.012 A 
ATOM      2  C   UNL     1     -11.603  13.769  69.617  0.00  0.00    +0.016 A 
ATOM      3  C   UNL     1     -10.877  14.943  69.473  0.00  0.00    +0.001 A 
ATOM      4  C   UNL     1     -11.112  15.998  70.339  0.00  0.00    +0.000 A 
ATOM      5  C   UNL     1     -12.280  15.960  71.091  0.00  0.00    +0.005 A 
ATOM      6  C   UNL     1     -12.918  14.751  71.294  0.00  0.00    +0.089 A 
ATOM      7  C   UNL     1     -12.270  13.619  70.829  0.00  0.00    +0.085 A 
ATOM      8  N   UNL     1     -12.876  12.411  70.941  0.00  0.00    -0.241 NA
ATOM      9  C   UNL     1     -12.205  11.300  70.551  0.00  0.00    +0.152 A 
ATOM     10  C   UNL     1     -11.504  11.452  69.357  0.00  0.00    +0.021 A 
ENDROOT
BRANCH   6  11
ATOM     11  C   UNL     1     -14.199  14.704  72.023  0.00  0.00    +0.420 C 
ATOM     12  F   UNL     1     -14.211  15.821  72.847  0.00  0.00    -0.166 F 
ATOM     13  F   UNL     1     -14.336  13.545  72.736  0.00  0.00    -0.166 F 
ATOM     14  F   UNL     1     -15.220  14.870  71.117  0.00  0.00    -0.166 F 
ENDBRANCH   6  11
BRANCH   9  15
ATOM     15  C   UNL     1     -12.577   9.927  71.010  0.00  0.00    +0.435 C 
ATOM     16  F   UNL     1     -13.886   9.769  70.576  0.00  0.00    -0.164 F 
ATOM     17  F   UNL     1     -11.752   9.000  70.433  0.00  0.00    -0.164 F 
ATOM     18  F   UNL     1     -12.585   9.812  72.382  0.00  0.00    -0.164 F 
ENDBRANCH   9  15
BRANCH   1  20
ATOM     19  O   UNL     1     -10.490  11.241  67.406  0.00  0.00    -0.217 OA
ATOM     20  C   UNL     1     -10.511  12.779  67.543  0.00  0.00    +0.190 C 
BRANCH  20  21
ATOM     21  C   UNL     1     -12.159  12.885  66.947  0.00  0.00    +0.107 C 
ATOM     22  N   UNL     1     -11.860  11.899  65.755  0.00  0.00    -0.217 NA
ATOM     23  C   UNL     1     -12.197  12.516  64.526  0.00  0.00    +0.089 C 
ATOM     24  C   UNL     1     -10.889  13.189  64.103  0.00  0.00    +0.019 C 
ATOM     25  C   UNL     1     -10.539  13.989  65.359  0.00  0.00    +0.003 C 
ATOM     26  C   UNL     1     -11.819  14.248  66.082  0.00  0.00    +0.020 C 
ENDBRANCH  20  21
ENDBRANCH   1  20
TORSDOF 4
ENDMDL
MODEL 3
REMARK VINA RESULT:      -7.6      2.817      5.671
REMARK  Name = 
REMARK  4 active torsions:
REMARK  status: ('A' for Active; 'I' for Inactive)
REMARK    1  A    between atoms: C_2  and  C_3
REMARK    2  A    between atoms: C_2  and  C_21
REMARK    3  A    between atoms: C_5  and  C_6
REMARK    4  A    between atoms: C_16  and  C_17
REMARK                            x       y       z     vdW  Elec       q    Type
REMARK                         _______ _______ _______ _____ _____    ______ ____
ROOT
ATOM      1  C   UNL     1     -11.352  15.587  68.007  0.00  0.00    +0.012 A 
ATOM      2  C   UNL     1     -11.175  14.333  67.530  0.00  0.00    +0.016 A 
ATOM      3  C   UNL     1     -11.277  14.290  66.147  0.00  0.00    +0.001 A 
ATOM      4  C   UNL     1     -11.652  13.109  65.529  0.00  0.00    +0.000 A 
ATOM      5  C   UNL     1     -11.585  11.944  66.283  0.00  0.00    +0.005 A 
ATOM      6  C   UNL     1     -11.586  12.027  67.663  0.00  0.00    +0.089 A 
ATOM      7  C   UNL     1     -11.783  13.283  68.211  0.00  0.00    +0.085 A 
ATOM      8  N   UNL     1     -11.732  13.439  69.557  0.00  0.00    -0.241 NA
ATOM      9  C   UNL     1     -11.998  14.657  70.089  0.00  0.00    +0.152 A 
ATOM     10  C   UNL     1     -11.422  15.717  69.393  0.00  0.00    +0.021 A 
ENDROOT
BRANCH   6  11
ATOM     11  C   UNL     1     -11.437  10.807  68.477  0.00  0.00    +0.420 C 
ATOM     12  F   UNL     1     -11.320   9.758  67.576  0.00  0.00    -0.166 F 
ATOM     13  F   UNL     1     -12.496  10.630  69.327  0.00  0.00    -0.166 F 
ATOM     14  F   UNL     1     -10.245  10.881  69.156  0.00  0.00    -0.166 F 
ENDBRANCH   6  11
BRANCH   9  15
ATOM     15  C   UNL     1     -12.386  14.847  71.520  0.00  0.00    +0.435 C 
ATOM     16  F   UNL     1     -13.239  15.941  71.496  0.00  0.00    -0.164 F 
ATOM     17  F   UNL     1     -13.029  13.731  71.983  0.00  0.00    -0.164 F 
ATOM     18  F   UNL     1     -11.315  15.181  72.318  0.00  0.00    -0.164 F 
ENDBRANCH   9  15
BRANCH   1  20
ATOM     19  O   UNL     1     -10.886  17.804  68.395  0.00  0.00    -0.217 OA
ATOM     20  C   UNL     1     -10.319  16.728  67.444  0.00  0.00    +0.190 C 
BRANCH  20  21
ATOM     21  C   UNL     1      -9.019  16.323  68.554  0.00  0.00    +0.107 C 
ATOM     22  N   UNL     1      -8.381  17.759  68.431  0.00  0.00    -0.217 NA
ATOM     23  C   UNL     1      -7.029  17.648  68.027  0.00  0.00    +0.089 C 
ATOM     24  C   UNL     1      -7.113  17.717  66.499  0.00  0.00    +0.019 C 
ATOM     25  C   UNL     1      -8.153  16.633  66.205  0.00  0.00    +0.003 C 
ATOM     26  C   UNL     1      -8.112  15.668  67.343  0.00  0.00    +0.020 C 
ENDBRANCH  20  21
ENDBRANCH   1  20
TORSDOF 4
ENDMDL
MODEL 4
REMARK VINA RESULT:      -7.2      3.712      5.248
REMARK  Name = 
REMARK  4 active torsions:
REMARK  status: ('A' for Active; 'I' for Inactive)
REMARK    1  A    between atoms: C_2  and  C_3
REMARK    2  A    between atoms: C_2  and  C_21
REMARK    3  A    between atoms: C_5  and  C_6
REMARK    4  A    between atoms: C_16  and  C_17
REMARK                            x       y       z     vdW  Elec       q    Type
REMARK                         _______ _______ _______ _____ _____    ______ ____
ROOT
ATOM      1  C   UNL     1     -11.560  12.436  68.596  0.00  0.00    +0.012 A 
ATOM      2  C   UNL     1     -12.101  13.500  69.232  0.00  0.00    +0.016 A 
ATOM      3  C   UNL     1     -11.640  14.701  68.710  0.00  0.00    +0.001 A 
ATOM      4  C   UNL     1     -11.635  15.832  69.509  0.00  0.00    +0.000 A 
ATOM      5  C   UNL     1     -12.391  15.796  70.674  0.00  0.00    +0.005 A 
ATOM      6  C   UNL     1     -12.745  14.575  71.216  0.00  0.00    +0.089 A 
ATOM      7  C   UNL     1     -12.206  13.449  70.619  0.00  0.00    +0.085 A 
ATOM      8  N   UNL     1     -12.565  12.220  71.066  0.00  0.00    -0.241 NA
ATOM      9  C   UNL     1     -11.978  11.125  70.525  0.00  0.00    +0.152 A 
ATOM     10  C   UNL     1     -11.836  11.184  69.140  0.00  0.00    +0.021 A 
ENDROOT
BRANCH   6  11
ATOM     11  C   UNL     1     -13.612  14.519  72.408  0.00  0.00    +0.420 C 
ATOM     12  F   UNL     1     -12.774  14.235  73.476  0.00  0.00    -0.166 F 
ATOM     13  F   UNL     1     -14.599  13.581  72.274  0.00  0.00    -0.166 F 
ATOM     14  F   UNL     1     -14.126  15.773  72.630  0.00  0.00    -0.166 F 
ENDBRANCH   6  11
BRANCH   9  15
ATOM     15  C   UNL     1     -11.967   9.793  71.205  0.00  0.00    +0.435 C 
ATOM     16  F   UNL     1     -10.661   9.654  71.653  0.00  0.00    -0.164 F 
ATOM     17  F   UNL     1     -12.850   9.795  72.251  0.00  0.00    -0.164 F 
ATOM     18  F   UNL     1     -12.215   8.755  70.337  0.00  0.00    -0.164 F 
ENDBRANCH   9  15
BRANCH   1  20
ATOM     19  O   UNL     1     -12.441  13.765  66.940  0.00  0.00    -0.217 OA
ATOM     20  C   UNL     1     -11.818  12.352  66.979  0.00  0.00    +0.190 C 
BRANCH  20  21
ATOM     21  C   UNL     1     -10.230  12.957  66.536  0.00  0.00    +0.107 C 
ATOM     22  N   UNL     1     -10.693  13.281  65.065  0.00  0.00    -0.217 NA
ATOM     23  C   UNL     1      -9.848  12.621  64.141  0.00  0.00    +0.089 C 
ATOM     24  C   UNL     1     -10.556  11.283  63.912  0.00  0.00    +0.019 C 
ATOM     25  C   UNL     1     -10.749  10.793  65.348  0.00  0.00    +0.003 C 
ATOM     26  C   UNL     1      -9.690  11.441  66.177  0.00  0.00    +0.020 C 
ENDBRANCH  20  21
ENDBRANCH   1  20
TORSDOF 4
ENDMDL
MODEL 5
REMARK VINA RESULT:      -7.0      2.531      5.698
REMARK  Name = 
REMARK  4 active torsions:
REMARK  status: ('A' for Active; 'I' for Inactive)
REMARK    1  A    between atoms: C_2  and  C_3
REMARK    2  A    between atoms: C_2  and  C_21
REMARK    3  A    between atoms: C_5  and  C_6
REMARK    4  A    between atoms: C_16  and  C_17
REMARK                            x       y       z     vdW  Elec       q    Type
REMARK                         _______ _______ _______ _____ _____    ______ ____
ROOT
ATOM      1  C   UNL     1     -10.943  15.955  67.543  0.00  0.00    +0.012 A 
ATOM      2  C   UNL     1     -10.800  14.670  67.144  0.00  0.00    +0.016 A 
ATOM      3  C   UNL     1     -10.760  14.563  65.761  0.00  0.00    +0.001 A 
ATOM      4  C   UNL     1     -11.145  13.376  65.160  0.00  0.00    +0.000 A 
ATOM      5  C   UNL     1     -11.235  12.249  65.968  0.00  0.00    +0.005 A 
ATOM      6  C   UNL     1     -11.375  12.403  67.334  0.00  0.00    +0.089 A 
ATOM      7  C   UNL     1     -11.544  13.696  67.801  0.00  0.00    +0.085 A 
ATOM      8  N   UNL     1     -11.624  13.917  69.137  0.00  0.00    -0.241 NA
ATOM      9  C   UNL     1     -11.863  15.174  69.582  0.00  0.00    +0.152 A 
ATOM     10  C   UNL     1     -11.149  16.161  68.906  0.00  0.00    +0.021 A 
ENDROOT
BRANCH   6  11
ATOM     11  C   UNL     1     -11.393  11.219  68.214  0.00  0.00    +0.420 C 
ATOM     12  F   UNL     1     -11.333  10.118  67.373  0.00  0.00    -0.166 F 
ATOM     13  F   UNL     1     -12.508  11.193  69.007  0.00  0.00    -0.166 F 
ATOM     14  F   UNL     1     -10.237  11.213  68.957  0.00  0.00    -0.166 F 
ENDBRANCH   6  11
BRANCH   9  15
ATOM     15  C   UNL     1     -12.385  15.461  70.954  0.00  0.00    +0.435 C 
ATOM     16  F   UNL     1     -12.107  14.304  71.669  0.00  0.00    -0.164 F 
ATOM     17  F   UNL     1     -11.732  16.539  71.488  0.00  0.00    -0.164 F 
ATOM     18  F   UNL     1     -13.750  15.636  70.974  0.00  0.00    -0.164 F 
ENDBRANCH   9  15
BRANCH   1  20
ATOM     19  O   UNL     1     -10.305  16.987  65.591  0.00  0.00    -0.217 OA
ATOM     20  C   UNL     1      -9.783  17.000  67.044  0.00  0.00    +0.190 C 
BRANCH  20  21
ATOM     21  C   UNL     1     -10.696  18.447  67.439  0.00  0.00    +0.107 C 
ATOM     22  N   UNL     1      -9.931  19.303  66.359  0.00  0.00    -0.217 NA
ATOM     23  C   UNL     1      -9.349  20.438  66.972  0.00  0.00    +0.089 C 
ATOM     24  C   UNL     1      -7.951  19.949  67.360  0.00  0.00    +0.019 C 
ATOM     25  C   UNL     1      -8.282  18.672  68.135  0.00  0.00    +0.003 C 
ATOM     26  C   UNL     1      -9.667  18.831  68.669  0.00  0.00    +0.020 C 
ENDBRANCH  20  21
ENDBRANCH   1  20
TORSDOF 4
ENDMDL
MODEL 6
REMARK VINA RESULT:      -7.0      4.835      6.691
REMARK  Name = 
REMARK  4 active torsions:
REMARK  status: ('A' for Active; 'I' for Inactive)
REMARK    1  A    between atoms: C_2  and  C_3
REMARK    2  A    between atoms: C_2  and  C_21
REMARK    3  A    between atoms: C_5  and  C_6
REMARK    4  A    between atoms: C_16  and  C_17
REMARK                            x       y       z     vdW  Elec       q    Type
REMARK                         _______ _______ _______ _____ _____    ______ ____
ROOT
ATOM      1  C   UNL     1     -12.476  10.962  70.475  0.00  0.00    +0.012 A 
ATOM      2  C   UNL     1     -12.416  12.204  71.007  0.00  0.00    +0.016 A 
ATOM      3  C   UNL     1     -13.293  12.349  72.073  0.00  0.00    +0.001 A 
ATOM      4  C   UNL     1     -13.766  13.610  72.396  0.00  0.00    +0.000 A 
ATOM      5  C   UNL     1     -13.095  14.702  71.861  0.00  0.00    +0.005 A 
ATOM      6  C   UNL     1     -12.310  14.532  70.737  0.00  0.00    +0.089 A 
ATOM      7  C   UNL     1     -12.345  13.285  70.135  0.00  0.00    +0.085 A 
ATOM      8  N   UNL     1     -11.548  13.038  69.066  0.00  0.00    -0.241 NA
ATOM      9  C   UNL     1     -11.642  11.841  68.439  0.00  0.00    +0.152 A 
ATOM     10  C   UNL     1     -11.750  10.754  69.304  0.00  0.00    +0.021 A 
ENDROOT
BRANCH   6  11
ATOM     11  C   UNL     1     -11.529  15.663  70.202  0.00  0.00    +0.420 C 
ATOM     12  F   UNL     1     -11.609  16.667  71.156  0.00  0.00    -0.166 F 
ATOM     13  F   UNL     1     -12.003  16.078  68.987  0.00  0.00    -0.166 F 
ATOM     14  F   UNL     1     -10.210  15.286  70.134  0.00  0.00    -0.166 F 
ENDBRANCH   6  11
BRANCH   9  15
ATOM     15  C   UNL     1     -11.153  11.618  67.044  0.00  0.00    +0.435 C 
ATOM     16  F   UNL     1      -9.964  12.331  66.986  0.00  0.00    -0.164 F 
ATOM     17  F   UNL     1     -10.939  10.283  66.829  0.00  0.00    -0.164 F 
ATOM     18  F   UNL     1     -11.996  12.153  66.096  0.00  0.00    -0.164 F 
ENDBRANCH   9  15
BRANCH   1  20
ATOM     19  O   UNL     1     -13.548   9.094  71.279  0.00  0.00    -0.217 OA
ATOM     20  C   UNL     1     -12.153   9.721  71.496  0.00  0.00    +0.190 C 
BRANCH  20  21
ATOM     21  C   UNL     1     -11.420   8.697  70.272  0.00  0.00    +0.107 C 
ATOM     22  N   UNL     1     -11.993   7.386  70.931  0.00  0.00    -0.217 NA
ATOM     23  C   UNL     1     -10.936   6.488  71.210  0.00  0.00    +0.089 C 
ATOM     24  C   UNL     1     -10.533   6.855  72.641  0.00  0.00    +0.019 C 
ATOM     25  C   UNL     1     -10.322   8.365  72.518  0.00  0.00    +0.003 C 
ATOM     26  C   UNL     1      -9.989   8.645  71.090  0.00  0.00    +0.020 C 
ENDBRANCH  20  21
ENDBRANCH   1  20
TORSDOF 4
ENDMDL
MODEL 7
REMARK VINA RESULT:      -6.9      3.553      6.343
REMARK  Name = 
REMARK  4 active torsions:
REMARK  status: ('A' for Active; 'I' for Inactive)
REMARK    1  A    between atoms: C_2  and  C_3
REMARK    2  A    between atoms: C_2  and  C_21
REMARK    3  A    between atoms: C_5  and  C_6
REMARK    4  A    between atoms: C_16  and  C_17
REMARK                            x       y       z     vdW  Elec       q    Type
REMARK                         _______ _______ _______ _____ _____    ______ ____
ROOT
ATOM      1  C   UNL     1     -11.709  13.638  67.214  0.00  0.00    +0.012 A 
ATOM      2  C   UNL     1     -11.099  12.878  66.277  0.00  0.00    +0.016 A 
ATOM      3  C   UNL     1     -11.336  13.352  64.995  0.00  0.00    +0.001 A 
ATOM      4  C   UNL     1     -11.270  12.477  63.924  0.00  0.00    +0.000 A 
ATOM      5  C   UNL     1     -10.651  11.252  64.135  0.00  0.00    +0.005 A 
ATOM      6  C   UNL     1     -10.524  10.769  65.424  0.00  0.00    +0.089 A 
ATOM      7  C   UNL     1     -11.146  11.495  66.425  0.00  0.00    +0.085 A 
ATOM      8  N   UNL     1     -11.005  11.106  67.717  0.00  0.00    -0.241 NA
ATOM      9  C   UNL     1     -11.676  11.780  68.683  0.00  0.00    +0.152 A 
ATOM     10  C   UNL     1     -11.664  13.163  68.523  0.00  0.00    +0.021 A 
ENDROOT
BRANCH   6  11
ATOM     11  C   UNL     1      -9.801   9.508  65.673  0.00  0.00    +0.420 C 
ATOM     12  F   UNL     1      -9.381   9.056  64.430  0.00  0.00    -0.166 F 
ATOM     13  F   UNL     1     -10.590   8.587  66.308  0.00  0.00    -0.166 F 
ATOM     14  F   UNL     1      -8.667   9.794  66.395  0.00  0.00    -0.166 F 
ENDBRANCH   6  11
BRANCH   9  15
ATOM     15  C   UNL     1     -11.937  11.203  70.037  0.00  0.00    +0.435 C 
ATOM     16  F   UNL     1     -12.098  12.314  70.853  0.00  0.00    -0.164 F 
ATOM     17  F   UNL     1     -13.076  10.442  70.011  0.00  0.00    -0.164 F 
ATOM     18  F   UNL     1     -10.865  10.490  70.524  0.00  0.00    -0.164 F 
ENDBRANCH   9  15
BRANCH   1  20
ATOM     19  O   UNL     1     -11.947  15.439  68.623  0.00  0.00    -0.217 OA
ATOM     20  C   UNL     1     -11.299  15.225  67.238  0.00  0.00    +0.190 C 
BRANCH  20  21
ATOM     21  C   UNL     1      -9.709  14.965  67.938  0.00  0.00    +0.107 C 
ATOM     22  N   UNL     1      -9.717  16.375  68.642  0.00  0.00    -0.217 NA
ATOM     23  C   UNL     1      -8.572  17.111  68.251  0.00  0.00    +0.089 C 
ATOM     24  C   UNL     1      -9.057  17.885  67.022  0.00  0.00    +0.019 C 
ATOM     25  C   UNL     1      -9.645  16.760  66.168  0.00  0.00    +0.003 C 
ATOM     26  C   UNL     1      -8.956  15.499  66.572  0.00  0.00    +0.020 C 
ENDBRANCH  20  21
ENDBRANCH   1  20
TORSDOF 4
ENDMDL
MODEL 8
REMARK VINA RESULT:      -6.8      3.051      6.068
REMARK  Name = 
REMARK  4 active torsions:
REMARK  status: ('A' for Active; 'I' for Inactive)
REMARK    1  A    between atoms: C_2  and  C_3
REMARK    2  A    between atoms: C_2  and  C_21
REMARK    3  A    between atoms: C_5  and  C_6
REMARK    4  A    between atoms: C_16  and  C_17
REMARK                            x       y       z     vdW  Elec       q    Type
REMARK                         _______ _______ _______ _____ _____    ______ ____
ROOT
ATOM      1  C   UNL     1     -10.593  15.047  69.019  0.00  0.00    +0.012 A 
ATOM      2  C   UNL     1     -11.147  14.055  68.284  0.00  0.00    +0.016 A 
ATOM      3  C   UNL     1     -10.915  12.808  68.846  0.00  0.00    +0.001 A 
ATOM      4  C   UNL     1     -10.916  11.686  68.034  0.00  0.00    +0.000 A 
ATOM      5  C   UNL     1     -11.472  11.813  66.768  0.00  0.00    +0.005 A 
ATOM      6  C   UNL     1     -11.594  13.068  66.203  0.00  0.00    +0.089 A 
ATOM      7  C   UNL     1     -11.028  14.123  66.900  0.00  0.00    +0.085 A 
ATOM      8  N   UNL     1     -11.170  15.387  66.428  0.00  0.00    -0.241 NA
ATOM      9  C   UNL     1     -10.551  16.403  67.077  0.00  0.00    +0.152 A 
ATOM     10  C   UNL     1     -10.634  16.325  68.465  0.00  0.00    +0.021 A 
ENDROOT
BRANCH   6  11
ATOM     11  C   UNL     1     -12.253  13.230  64.893  0.00  0.00    +0.420 C 
ATOM     12  F   UNL     1     -12.856  12.011  64.617  0.00  0.00    -0.166 F 
ATOM     13  F   UNL     1     -11.363  13.589  63.918  0.00  0.00    -0.166 F 
ATOM     14  F   UNL     1     -13.264  14.150  65.027  0.00  0.00    -0.166 F 
ENDBRANCH   6  11
BRANCH   9  15
ATOM     15  C   UNL     1     -10.281  17.726  66.434  0.00  0.00    +0.435 C 
ATOM     16  F   UNL     1     -10.908  17.635  65.199  0.00  0.00    -0.164 F 
ATOM     17  F   UNL     1     -10.823  18.732  67.188  0.00  0.00    -0.164 F 
ATOM     18  F   UNL     1      -8.942  17.936  66.198  0.00  0.00    -0.164 F 
ENDBRANCH   9  15
BRANCH   1  20
ATOM     19  O   UNL     1     -11.281  16.685  70.477  0.00  0.00    -0.217 OA
ATOM     20  C   UNL     1     -11.088  15.156  70.577  0.00  0.00    +0.190 C 
BRANCH  20  21
ATOM     21  C   UNL     1     -12.780  14.843  70.226  0.00  0.00    +0.107 C 
ATOM     22  N   UNL     1     -13.259  16.010  71.171  0.00  0.00    -0.217 NA
ATOM     23  C   UNL     1     -14.165  15.505  72.134  0.00  0.00    +0.089 C 
ATOM     24  C   UNL     1     -13.256  15.127  73.307  0.00  0.00    +0.019 C 
ATOM     25  C   UNL     1     -12.216  14.246  72.612  0.00  0.00    +0.003 C 
ATOM     26  C   UNL     1     -12.866  13.681  71.393  0.00  0.00    +0.020 C 
ENDBRANCH  20  21
ENDBRANCH   1  20
TORSDOF 4
ENDMDL
MODEL 9
REMARK VINA RESULT:      -6.7      3.858      6.088
REMARK  Name = 
REMARK  4 active torsions:
REMARK  status: ('A' for Active; 'I' for Inactive)
REMARK    1  A    between atoms: C_2  and  C_3
REMARK    2  A    between atoms: C_2  and  C_21
REMARK    3  A    between atoms: C_5  and  C_6
REMARK    4  A    between atoms: C_16  and  C_17
REMARK                            x       y       z     vdW  Elec       q    Type
REMARK                         _______ _______ _______ _____ _____    ______ ____
ROOT
ATOM      1  C   UNL     1     -11.738  11.108  68.509  0.00  0.00    +0.012 A 
ATOM      2  C   UNL     1     -11.886  11.653  69.738  0.00  0.00    +0.016 A 
ATOM      3  C   UNL     1     -12.456  10.758  70.632  0.00  0.00    +0.001 A 
ATOM      4  C   UNL     1     -13.157  11.241  71.724  0.00  0.00    +0.000 A 
ATOM      5  C   UNL     1     -12.978  12.578  72.058  0.00  0.00    +0.005 A 
ATOM      6  C   UNL     1     -12.500  13.458  71.106  0.00  0.00    +0.089 A 
ATOM      7  C   UNL     1     -12.347  12.962  69.821  0.00  0.00    +0.085 A 
ATOM      8  N   UNL     1     -11.822  13.760  68.858  0.00  0.00    -0.241 NA
ATOM      9  C   UNL     1     -11.743  13.291  67.588  0.00  0.00    +0.152 A 
ATOM     10  C   UNL     1     -11.316  11.969  67.497  0.00  0.00    +0.021 A 
ENDROOT
BRANCH   6  11
ATOM     11  C   UNL     1     -12.231  14.863  71.465  0.00  0.00    +0.420 C 
ATOM     12  F   UNL     1     -13.137  15.622  70.738  0.00  0.00    -0.166 F 
ATOM     13  F   UNL     1     -10.938  15.218  71.194  0.00  0.00    -0.166 F 
ATOM     14  F   UNL     1     -12.542  15.038  72.792  0.00  0.00    -0.166 F 
ENDBRANCH   6  11
BRANCH   9  15
ATOM     15  C   UNL     1     -11.596  14.191  66.403  0.00  0.00    +0.435 C 
ATOM     16  F   UNL     1     -12.855  14.188  65.818  0.00  0.00    -0.164 F 
ATOM     17  F   UNL     1     -11.245  15.449  66.810  0.00  0.00    -0.164 F 
ATOM     18  F   UNL     1     -10.712  13.696  65.471  0.00  0.00    -0.164 F 
ENDBRANCH   9  15
BRANCH   1  20
ATOM     19  O   UNL     1     -10.697   9.851  66.890  0.00  0.00    -0.217 OA
ATOM     20  C   UNL     1     -10.829   9.747  68.425  0.00  0.00    +0.190 C 
BRANCH  20  21
ATOM     21  C   UNL     1      -9.297  10.565  68.687  0.00  0.00    +0.107 C 
ATOM     22  N   UNL     1      -8.526   9.563  67.746  0.00  0.00    -0.217 NA
ATOM     23  C   UNL     1      -7.450   8.975  68.452  0.00  0.00    +0.089 C 
ATOM     24  C   UNL     1      -8.071   7.708  69.047  0.00  0.00    +0.019 C 
ATOM     25  C   UNL     1      -9.304   8.277  69.750  0.00  0.00    +0.003 C 
ATOM     26  C   UNL     1      -9.008   9.706  70.065  0.00  0.00    +0.020 C 
ENDBRANCH  20  21
ENDBRANCH   1  20
TORSDOF 4
ENDMDL
