MODEL 1
REMARK VINA RESULT:      -5.0      0.000      0.000
REMARK  Name = 
REMARK  0 active torsions:
REMARK  status: ('A' for Active; 'I' for Inactive)
REMARK                            x       y       z     vdW  Elec       q    Type
REMARK                         _______ _______ _______ _____ _____    ______ ____
ROOT
ATOM      1  N   UNL     1     -12.337  11.777  63.296  0.00  0.00    -0.086 NA
ATOM      2  C   UNL     1     -12.430  12.854  64.230  0.00  0.00    +0.259 A 
ATOM      3  N   UNL     1     -12.397  12.649  65.567  0.00  0.00    -0.202 NA
ATOM      4  C   UNL     1     -11.981  13.628  66.403  0.00  0.00    +0.140 A 
ATOM      5  S   UNL     1     -11.673  13.313  67.986  0.00  0.00    -0.028 S 
ATOM      6  C   UNL     1     -11.412  14.762  65.832  0.00  0.00    +0.143 A 
ATOM      7  C   UNL     1     -11.892  15.122  64.579  0.00  0.00    +0.187 A 
ATOM      8  N   UNL     1     -11.396  16.342  64.349  0.00  0.00    -0.203 NA
ATOM      9  C   UNL     1     -10.510  16.645  65.331  0.00  0.00    +0.200 A 
ATOM     10  N   UNL     1     -10.583  15.711  66.298  0.00  0.00    -0.219 NA
ATOM     11  N   UNL     1     -12.477  14.149  63.847  0.00  0.00    -0.190 NA
ENDROOT
TORSDOF 0
ENDMDL
MODEL 2
REMARK VINA RESULT:      -4.9      6.139      7.897
REMARK  Name = 
REMARK  0 active torsions:
REMARK  status: ('A' for Active; 'I' for Inactive)
REMARK                            x       y       z     vdW  Elec       q    Type
REMARK                         _______ _______ _______ _____ _____    ______ ____
ROOT
ATOM      1  N   UNL     1     -12.434  16.417  74.616  0.00  0.00    -0.086 NA
ATOM      2  C   UNL     1     -12.770  15.846  73.351  0.00  0.00    +0.259 A 
ATOM      3  N   UNL     1     -12.259  16.320  72.191  0.00  0.00    -0.202 NA
ATOM      4  C   UNL     1     -12.157  15.517  71.106  0.00  0.00    +0.140 A 
ATOM      5  S   UNL     1     -11.296  15.985  69.788  0.00  0.00    -0.028 S 
ATOM      6  C   UNL     1     -12.408  14.161  71.283  0.00  0.00    +0.143 A 
ATOM      7  C   UNL     1     -13.340  13.834  72.262  0.00  0.00    +0.187 A 
ATOM      8  N   UNL     1     -13.596  12.534  72.084  0.00  0.00    -0.203 NA
ATOM      9  C   UNL     1     -12.734  12.042  71.160  0.00  0.00    +0.200 A 
ATOM     10  N   UNL     1     -12.059  13.061  70.596  0.00  0.00    -0.219 NA
ATOM     11  N   UNL     1     -13.553  14.751  73.230  0.00  0.00    -0.190 NA
ENDROOT
TORSDOF 0
ENDMDL
MODEL 3
REMARK VINA RESULT:      -4.7      1.633      3.813
REMARK  Name = 
REMARK  0 active torsions:
REMARK  status: ('A' for Active; 'I' for Inactive)
REMARK                            x       y       z     vdW  Elec       q    Type
REMARK                         _______ _______ _______ _____ _____    ______ ____
ROOT
ATOM      1  N   UNL     1     -10.565  18.751  65.739  0.00  0.00    -0.086 NA
ATOM      2  C   UNL     1     -10.387  17.378  65.383  0.00  0.00    +0.259 A 
ATOM      3  N   UNL     1      -9.471  16.592  65.993  0.00  0.00    -0.202 NA
ATOM      4  C   UNL     1      -9.637  15.250  66.037  0.00  0.00    +0.140 A 
ATOM      5  S   UNL     1      -8.691  14.313  67.000  0.00  0.00    -0.028 S 
ATOM      6  C   UNL     1     -10.859  14.738  65.613  0.00  0.00    +0.143 A 
ATOM      7  C   UNL     1     -11.505  15.452  64.611  0.00  0.00    +0.187 A 
ATOM      8  N   UNL     1     -12.503  14.661  64.202  0.00  0.00    -0.203 NA
ATOM      9  C   UNL     1     -12.578  13.590  65.032  0.00  0.00    +0.200 A 
ATOM     10  N   UNL     1     -11.508  13.587  65.849  0.00  0.00    -0.219 NA
ATOM     11  N   UNL     1     -11.169  16.753  64.475  0.00  0.00    -0.190 NA
ENDROOT
TORSDOF 0
ENDMDL
MODEL 4
REMARK VINA RESULT:      -4.7      3.240      4.386
REMARK  Name = 
REMARK  0 active torsions:
REMARK  status: ('A' for Active; 'I' for Inactive)
REMARK                            x       y       z     vdW  Elec       q    Type
REMARK                         _______ _______ _______ _____ _____    ______ ____
ROOT
ATOM      1  N   UNL     1     -11.624  16.356  63.941  0.00  0.00    -0.086 NA
ATOM      2  C   UNL     1     -10.851  16.573  65.123  0.00  0.00    +0.259 A 
ATOM      3  N   UNL     1     -10.475  17.811  65.517  0.00  0.00    -0.202 NA
ATOM      4  C   UNL     1     -10.214  18.068  66.820  0.00  0.00    +0.140 A 
ATOM      5  S   UNL     1     -10.027  19.610  67.355  0.00  0.00    -0.028 S 
ATOM      6  C   UNL     1     -10.533  17.082  67.747  0.00  0.00    +0.143 A 
ATOM      7  C   UNL     1     -10.436  15.769  67.300  0.00  0.00    +0.187 A 
ATOM      8  N   UNL     1     -10.541  15.014  68.399  0.00  0.00    -0.203 NA
ATOM      9  C   UNL     1     -10.866  15.812  69.447  0.00  0.00    +0.200 A 
ATOM     10  N   UNL     1     -10.772  17.101  69.068  0.00  0.00    -0.219 NA
ATOM     11  N   UNL     1     -10.512  15.572  65.966  0.00  0.00    -0.190 NA
ENDROOT
TORSDOF 0
ENDMDL
MODEL 5
REMARK VINA RESULT:      -4.6      2.659      4.264
REMARK  Name = 
REMARK  0 active torsions:
REMARK  status: ('A' for Active; 'I' for Inactive)
REMARK                            x       y       z     vdW  Elec       q    Type
REMARK                         _______ _______ _______ _____ _____    ______ ____
ROOT
ATOM      1  N   UNL     1     -13.096  13.988  65.099  0.00  0.00    -0.086 NA
ATOM      2  C   UNL     1     -12.250  13.651  66.200  0.00  0.00    +0.259 A 
ATOM      3  N   UNL     1     -11.786  14.585  67.061  0.00  0.00    -0.202 NA
ATOM      4  C   UNL     1     -11.442  14.245  68.325  0.00  0.00    +0.140 A 
ATOM      5  S   UNL     1     -11.143  15.397  69.457  0.00  0.00    -0.028 S 
ATOM      6  C   UNL     1     -11.763  12.963  68.756  0.00  0.00    +0.143 A 
ATOM      7  C   UNL     1     -11.763  11.972  67.782  0.00  0.00    +0.187 A 
ATOM      8  N   UNL     1     -11.850  10.819  68.452  0.00  0.00    -0.203 NA
ATOM      9  C   UNL     1     -12.073  11.091  69.762  0.00  0.00    +0.200 A 
ATOM     10  N   UNL     1     -11.930  12.414  69.970  0.00  0.00    -0.219 NA
ATOM     11  N   UNL     1     -11.921  12.375  66.502  0.00  0.00    -0.190 NA
ENDROOT
TORSDOF 0
ENDMDL
MODEL 6
REMARK VINA RESULT:      -4.5      2.003      3.074
REMARK  Name = 
REMARK  0 active torsions:
REMARK  status: ('A' for Active; 'I' for Inactive)
REMARK                            x       y       z     vdW  Elec       q    Type
REMARK                         _______ _______ _______ _____ _____    ______ ____
ROOT
ATOM      1  N   UNL     1     -13.187  12.187  64.002  0.00  0.00    -0.086 NA
ATOM      2  C   UNL     1     -12.263  12.733  64.946  0.00  0.00    +0.259 A 
ATOM      3  N   UNL     1     -11.586  13.879  64.707  0.00  0.00    -0.202 NA
ATOM      4  C   UNL     1     -11.137  14.640  65.733  0.00  0.00    +0.140 A 
ATOM      5  S   UNL     1     -10.562  16.156  65.471  0.00  0.00    -0.028 S 
ATOM      6  C   UNL     1     -11.563  14.307  67.014  0.00  0.00    +0.143 A 
ATOM      7  C   UNL     1     -11.804  12.958  67.247  0.00  0.00    +0.187 A 
ATOM      8  N   UNL     1     -11.953  12.851  68.571  0.00  0.00    -0.203 NA
ATOM      9  C   UNL     1     -11.981  14.096  69.110  0.00  0.00    +0.200 A 
ATOM     10  N   UNL     1     -11.650  14.995  68.164  0.00  0.00    -0.219 NA
ATOM     11  N   UNL     1     -12.063  12.190  66.167  0.00  0.00    -0.190 NA
ENDROOT
TORSDOF 0
ENDMDL
MODEL 7
REMARK VINA RESULT:      -4.5      3.560      4.762
REMARK  Name = 
REMARK  0 active torsions:
REMARK  status: ('A' for Active; 'I' for Inactive)
REMARK                            x       y       z     vdW  Elec       q    Type
REMARK                         _______ _______ _______ _____ _____    ______ ____
ROOT
ATOM      1  N   UNL     1     -12.163  15.921  70.038  0.00  0.00    -0.086 NA
ATOM      2  C   UNL     1     -11.221  16.307  69.036  0.00  0.00    +0.259 A 
ATOM      3  N   UNL     1     -10.992  15.551  67.938  0.00  0.00    -0.202 NA
ATOM      4  C   UNL     1     -10.527  16.116  66.799  0.00  0.00    +0.140 A 
ATOM      5  S   UNL     1     -10.505  15.275  65.387  0.00  0.00    -0.028 S 
ATOM      6  C   UNL     1     -10.484  17.505  66.741  0.00  0.00    +0.143 A 
ATOM      7  C   UNL     1     -10.255  18.160  67.945  0.00  0.00    +0.187 A 
ATOM      8  N   UNL     1     -10.012  19.432  67.613  0.00  0.00    -0.203 NA
ATOM      9  C   UNL     1     -10.255  19.591  66.288  0.00  0.00    +0.200 A 
ATOM     10  N   UNL     1     -10.459  18.384  65.727  0.00  0.00    -0.219 NA
ATOM     11  N   UNL     1     -10.557  17.483  69.074  0.00  0.00    -0.190 NA
ENDROOT
TORSDOF 0
ENDMDL
MODEL 8
REMARK VINA RESULT:      -4.5      2.041      3.943
REMARK  Name = 
REMARK  0 active torsions:
REMARK  status: ('A' for Active; 'I' for Inactive)
REMARK                            x       y       z     vdW  Elec       q    Type
REMARK                         _______ _______ _______ _____ _____    ______ ____
ROOT
ATOM      1  N   UNL     1      -9.951  16.397  65.477  0.00  0.00    -0.086 NA
ATOM      2  C   UNL     1     -10.940  15.395  65.719  0.00  0.00    +0.259 A 
ATOM      3  N   UNL     1     -11.398  14.587  64.735  0.00  0.00    -0.202 NA
ATOM      4  C   UNL     1     -11.909  13.368  65.028  0.00  0.00    +0.140 A 
ATOM      5  S   UNL     1     -12.211  12.272  63.843  0.00  0.00    -0.028 S 
ATOM      6  C   UNL     1     -11.765  12.907  66.333  0.00  0.00    +0.143 A 
ATOM      7  C   UNL     1     -11.760  13.878  67.327  0.00  0.00    +0.187 A 
ATOM      8  N   UNL     1     -11.862  13.205  68.478  0.00  0.00    -0.203 NA
ATOM      9  C   UNL     1     -11.754  11.878  68.218  0.00  0.00    +0.200 A 
ATOM     10  N   UNL     1     -11.786  11.684  66.885  0.00  0.00    -0.219 NA
ATOM     11  N   UNL     1     -11.426  15.132  66.952  0.00  0.00    -0.190 NA
ENDROOT
TORSDOF 0
ENDMDL
MODEL 9
REMARK VINA RESULT:      -4.5      4.254      5.497
REMARK  Name = 
REMARK  0 active torsions:
REMARK  status: ('A' for Active; 'I' for Inactive)
REMARK                            x       y       z     vdW  Elec       q    Type
REMARK                         _______ _______ _______ _____ _____    ______ ____
ROOT
ATOM      1  N   UNL     1     -14.633  15.608  71.994  0.00  0.00    -0.086 NA
ATOM      2  C   UNL     1     -13.421  15.170  71.376  0.00  0.00    +0.259 A 
ATOM      3  N   UNL     1     -13.050  13.869  71.365  0.00  0.00    -0.202 NA
ATOM      4  C   UNL     1     -12.232  13.396  70.397  0.00  0.00    +0.140 A 
ATOM      5  S   UNL     1     -11.994  11.781  70.208  0.00  0.00    -0.028 S 
ATOM      6  C   UNL     1     -11.952  14.235  69.324  0.00  0.00    +0.143 A 
ATOM      7  C   UNL     1     -11.928  15.596  69.603  0.00  0.00    +0.187 A 
ATOM      8  N   UNL     1     -11.407  16.170  68.513  0.00  0.00    -0.203 NA
ATOM      9  C   UNL     1     -11.283  15.230  67.542  0.00  0.00    +0.200 A 
ATOM     10  N   UNL     1     -11.533  14.015  68.067  0.00  0.00    -0.219 NA
ATOM     11  N   UNL     1     -12.607  16.007  70.696  0.00  0.00    -0.190 NA
ENDROOT
TORSDOF 0
ENDMDL
