MODEL 1
REMARK VINA RESULT:      -7.5      0.000      0.000
REMARK  Name = 
REMARK  4 active torsions:
REMARK  status: ('A' for Active; 'I' for Inactive)
REMARK    1  A    between atoms: C_2  and  C_3
REMARK    2  A    between atoms: C_10  and  C_11
REMARK    3  A    between atoms: C_11  and  C_13
REMARK    4  A    between atoms: C_20  and  O_21
REMARK                            x       y       z     vdW  Elec       q    Type
REMARK                         _______ _______ _______ _____ _____    ______ ____
ROOT
ATOM      1  C   UNL     1     -11.398  15.069  68.279  0.00  0.00    +0.189 C 
ATOM      2  O   UNL     1     -12.050  14.329  67.134  0.00  0.00    -0.217 OA
ENDROOT
BRANCH   1   3
ATOM      3  C   UNL     1     -11.263  13.762  69.214  0.00  0.00    +0.012 A 
ATOM      4  C   UNL     1     -12.150  13.935  70.284  0.00  0.00    +0.019 A 
ATOM      5  C   UNL     1     -12.699  12.837  70.938  0.00  0.00    +0.081 A 
ATOM      6  C   UNL     1     -13.505  13.012  72.055  0.00  0.00    +0.022 A 
ATOM      7  C   UNL     1     -13.739  14.294  72.536  0.00  0.00    +0.038 A 
ATOM      8  C   UNL     1     -13.072  15.396  72.015  0.00  0.00    +0.139 A 
ATOM      9  N   UNL     1     -12.258  11.619  70.591  0.00  0.00    -0.244 NA
ATOM     10  C   UNL     1     -11.844  11.407  69.339  0.00  0.00    +0.099 A 
ATOM     11  C   UNL     1     -12.490  15.167  70.775  0.00  0.00    +0.038 A 
ATOM     12  C   UNL     1     -11.308  12.523  68.673  0.00  0.00    +0.019 A 
BRANCH   8  13
ATOM     13  O   UNL     1     -12.422  16.314  72.849  0.00  0.00    -0.471 OA
ATOM     14  C   UNL     1     -12.327  16.277  74.220  0.00  0.00    +0.252 C 
ENDBRANCH   8  13
ENDBRANCH   1   3
BRANCH   1  18
ATOM     15  C   UNL     1      -9.187  18.156  67.849  0.00  0.00    +0.038 C 
ATOM     16  C   UNL     1      -8.728  17.187  66.517  0.00  0.00    +0.008 C 
ATOM     17  C   UNL     1      -9.935  16.135  66.528  0.00  0.00    +0.019 C 
ATOM     18  C   UNL     1      -9.769  15.022  67.671  0.00  0.00    +0.092 C 
ATOM     19  N   UNL     1      -9.382  16.016  68.811  0.00  0.00    -0.271 NA
ATOM     20  C   UNL     1      -8.001  16.163  68.722  0.00  0.00    +0.072 C 
ATOM     21  C   UNL     1      -7.611  16.343  67.335  0.00  0.00    +0.018 C 
ATOM     22  C   UNL     1     -10.202  17.125  68.572  0.00  0.00    +0.076 C 
BRANCH  15  24
ATOM     23  C   UNL     1     -10.716  19.694  66.935  0.00  0.00    -0.005 C 
ATOM     24  C   UNL     1     -10.361  18.817  66.995  0.00  0.00    -0.025 C 
ENDBRANCH  15  24
ENDBRANCH   1  18
TORSDOF 4
ENDMDL
MODEL 2
REMARK VINA RESULT:      -6.9      1.879      3.947
REMARK  Name = 
REMARK  4 active torsions:
REMARK  status: ('A' for Active; 'I' for Inactive)
REMARK    1  A    between atoms: C_2  and  C_3
REMARK    2  A    between atoms: C_10  and  C_11
REMARK    3  A    between atoms: C_11  and  C_13
REMARK    4  A    between atoms: C_20  and  O_21
REMARK                            x       y       z     vdW  Elec       q    Type
REMARK                         _______ _______ _______ _____ _____    ______ ____
ROOT
ATOM      1  C   UNL     1     -10.987  15.129  69.632  0.00  0.00    +0.189 C 
ATOM      2  O   UNL     1     -10.903  16.528  70.198  0.00  0.00    -0.217 OA
ENDROOT
BRANCH   1   3
ATOM      3  C   UNL     1     -12.429  14.816  70.281  0.00  0.00    +0.012 A 
ATOM      4  C   UNL     1     -12.430  13.460  70.634  0.00  0.00    +0.019 A 
ATOM      5  C   UNL     1     -13.228  12.995  71.673  0.00  0.00    +0.081 A 
ATOM      6  C   UNL     1     -13.296  11.638  71.959  0.00  0.00    +0.022 A 
ATOM      7  C   UNL     1     -12.580  10.739  71.178  0.00  0.00    +0.038 A 
ATOM      8  C   UNL     1     -11.912  11.148  70.031  0.00  0.00    +0.139 A 
ATOM      9  N   UNL     1     -14.081  13.861  72.242  0.00  0.00    -0.244 NA
ATOM     10  C   UNL     1     -13.762  15.158  72.283  0.00  0.00    +0.099 A 
ATOM     11  C   UNL     1     -11.699  12.518  69.962  0.00  0.00    +0.038 A 
ATOM     12  C   UNL     1     -12.939  15.620  71.242  0.00  0.00    +0.019 A 
BRANCH   8  13
ATOM     13  O   UNL     1     -12.086  10.481  68.811  0.00  0.00    -0.471 OA
ATOM     14  C   UNL     1     -11.306  10.586  67.683  0.00  0.00    +0.252 C 
ENDBRANCH   8  13
ENDBRANCH   1   3
BRANCH   1  18
ATOM     15  C   UNL     1      -8.920  14.940  66.423  0.00  0.00    +0.038 C 
ATOM     16  C   UNL     1      -9.885  16.326  66.158  0.00  0.00    +0.008 C 
ATOM     17  C   UNL     1     -10.410  16.572  67.650  0.00  0.00    +0.019 C 
ATOM     18  C   UNL     1     -11.589  15.565  68.060  0.00  0.00    +0.092 C 
ATOM     19  N   UNL     1     -10.901  14.276  67.509  0.00  0.00    -0.271 NA
ATOM     20  C   UNL     1     -11.272  14.201  66.170  0.00  0.00    +0.072 C 
ATOM     21  C   UNL     1     -11.145  15.506  65.547  0.00  0.00    +0.018 C 
ATOM     22  C   UNL     1      -9.552  14.460  67.833  0.00  0.00    +0.076 C 
BRANCH  15  24
ATOM     23  C   UNL     1      -6.919  15.655  67.435  0.00  0.00    -0.005 C 
ATOM     24  C   UNL     1      -7.807  15.824  67.147  0.00  0.00    -0.025 C 
ENDBRANCH  15  24
ENDBRANCH   1  18
TORSDOF 4
ENDMDL
MODEL 3
REMARK VINA RESULT:      -6.7      1.581      1.949
REMARK  Name = 
REMARK  4 active torsions:
REMARK  status: ('A' for Active; 'I' for Inactive)
REMARK    1  A    between atoms: C_2  and  C_3
REMARK    2  A    between atoms: C_10  and  C_11
REMARK    3  A    between atoms: C_11  and  C_13
REMARK    4  A    between atoms: C_20  and  O_21
REMARK                            x       y       z     vdW  Elec       q    Type
REMARK                         _______ _______ _______ _____ _____    ______ ____
ROOT
ATOM      1  C   UNL     1     -11.646  13.157  68.198  0.00  0.00    +0.189 C 
ATOM      2  O   UNL     1     -11.769  11.938  67.314  0.00  0.00    -0.217 OA
ENDROOT
BRANCH   1   3
ATOM      3  C   UNL     1     -11.642  12.318  69.574  0.00  0.00    +0.012 A 
ATOM      4  C   UNL     1     -12.482  12.996  70.466  0.00  0.00    +0.019 A 
ATOM      5  C   UNL     1     -13.140  12.314  71.484  0.00  0.00    +0.081 A 
ATOM      6  C   UNL     1     -13.897  13.004  72.421  0.00  0.00    +0.022 A 
ATOM      7  C   UNL     1     -13.973  14.389  72.354  0.00  0.00    +0.038 A 
ATOM      8  C   UNL     1     -13.194  15.114  71.460  0.00  0.00    +0.139 A 
ATOM      9  N   UNL     1     -12.849  11.016  71.655  0.00  0.00    -0.244 NA
ATOM     10  C   UNL     1     -12.487  10.283  70.598  0.00  0.00    +0.099 A 
ATOM     11  C   UNL     1     -12.668  14.352  70.425  0.00  0.00    +0.038 A 
ATOM     12  C   UNL     1     -11.841  10.979  69.562  0.00  0.00    +0.019 A 
BRANCH   8  13
ATOM     13  O   UNL     1     -12.426  16.206  71.883  0.00  0.00    -0.471 OA
ATOM     14  C   UNL     1     -11.993  16.479  73.159  0.00  0.00    +0.252 C 
ENDBRANCH   8  13
ENDBRANCH   1   3
BRANCH   1  18
ATOM     15  C   UNL     1      -9.895  16.055  66.424  0.00  0.00    +0.038 C 
ATOM     16  C   UNL     1      -8.855  14.739  66.093  0.00  0.00    +0.008 C 
ATOM     17  C   UNL     1      -9.821  13.529  66.502  0.00  0.00    +0.019 C 
ATOM     18  C   UNL     1      -9.919  13.332  68.091  0.00  0.00    +0.092 C 
ATOM     19  N   UNL     1     -10.113  14.843  68.431  0.00  0.00    -0.271 NA
ATOM     20  C   UNL     1      -8.829  15.364  68.552  0.00  0.00    +0.072 C 
ATOM     21  C   UNL     1      -7.997  14.890  67.461  0.00  0.00    +0.018 C 
ATOM     22  C   UNL     1     -10.943  15.307  67.404  0.00  0.00    +0.076 C 
BRANCH  15  24
ATOM     23  C   UNL     1     -11.404  16.211  64.624  0.00  0.00    -0.005 C 
ATOM     24  C   UNL     1     -10.766  15.723  65.129  0.00  0.00    -0.025 C 
ENDBRANCH  15  24
ENDBRANCH   1  18
TORSDOF 4
ENDMDL
MODEL 4
REMARK VINA RESULT:      -6.6      2.243      4.826
REMARK  Name = 
REMARK  4 active torsions:
REMARK  status: ('A' for Active; 'I' for Inactive)
REMARK    1  A    between atoms: C_2  and  C_3
REMARK    2  A    between atoms: C_10  and  C_11
REMARK    3  A    between atoms: C_11  and  C_13
REMARK    4  A    between atoms: C_20  and  O_21
REMARK                            x       y       z     vdW  Elec       q    Type
REMARK                         _______ _______ _______ _____ _____    ______ ____
ROOT
ATOM      1  C   UNL     1      -9.356  16.343  68.032  0.00  0.00    +0.189 C 
ATOM      2  O   UNL     1      -8.657  16.111  69.351  0.00  0.00    -0.217 OA
ENDROOT
BRANCH   1   3
ATOM      3  C   UNL     1     -10.740  15.661  68.500  0.00  0.00    +0.012 A 
ATOM      4  C   UNL     1     -10.833  14.432  67.835  0.00  0.00    +0.019 A 
ATOM      5  C   UNL     1     -11.550  13.376  68.387  0.00  0.00    +0.081 A 
ATOM      6  C   UNL     1     -11.717  12.190  67.683  0.00  0.00    +0.022 A 
ATOM      7  C   UNL     1     -11.183  12.074  66.405  0.00  0.00    +0.038 A 
ATOM      8  C   UNL     1     -10.612  13.162  65.757  0.00  0.00    +0.139 A 
ATOM      9  N   UNL     1     -12.247  13.612  69.509  0.00  0.00    -0.244 NA
ATOM     10  C   UNL     1     -11.802  14.532  70.371  0.00  0.00    +0.099 A 
ATOM     11  C   UNL     1     -10.276  14.209  66.604  0.00  0.00    +0.038 A 
ATOM     12  C   UNL     1     -11.059  15.586  69.813  0.00  0.00    +0.019 A 
BRANCH   8  13
ATOM     13  O   UNL     1     -10.984  13.510  64.453  0.00  0.00    -0.471 OA
ATOM     14  C   UNL     1     -11.866  12.848  63.630  0.00  0.00    +0.252 C 
ENDBRANCH   8  13
ENDBRANCH   1   3
BRANCH   1  18
ATOM     15  C   UNL     1      -8.131  19.353  66.021  0.00  0.00    +0.038 C 
ATOM     16  C   UNL     1      -8.274  19.998  67.598  0.00  0.00    +0.008 C 
ATOM     17  C   UNL     1      -8.393  18.635  68.431  0.00  0.00    +0.019 C 
ATOM     18  C   UNL     1      -9.854  17.982  68.333  0.00  0.00    +0.092 C 
ATOM     19  N   UNL     1     -10.006  18.153  66.788  0.00  0.00    -0.271 NA
ATOM     20  C   UNL     1     -10.538  19.425  66.607  0.00  0.00    +0.072 C 
ATOM     21  C   UNL     1      -9.844  20.378  67.454  0.00  0.00    +0.018 C 
ATOM     22  C   UNL     1      -8.724  17.874  66.300  0.00  0.00    +0.076 C 
BRANCH  15  24
ATOM     23  C   UNL     1      -5.934  18.541  65.784  0.00  0.00    -0.005 C 
ATOM     24  C   UNL     1      -6.637  18.883  66.323  0.00  0.00    -0.025 C 
ENDBRANCH  15  24
ENDBRANCH   1  18
TORSDOF 4
ENDMDL
MODEL 5
REMARK VINA RESULT:      -6.6      3.630      6.968
REMARK  Name = 
REMARK  4 active torsions:
REMARK  status: ('A' for Active; 'I' for Inactive)
REMARK    1  A    between atoms: C_2  and  C_3
REMARK    2  A    between atoms: C_10  and  C_11
REMARK    3  A    between atoms: C_11  and  C_13
REMARK    4  A    between atoms: C_20  and  O_21
REMARK                            x       y       z     vdW  Elec       q    Type
REMARK                         _______ _______ _______ _____ _____    ______ ____
ROOT
ATOM      1  C   UNL     1     -10.011  16.085  65.494  0.00  0.00    +0.189 C 
ATOM      2  O   UNL     1     -11.024  16.718  64.569  0.00  0.00    -0.217 OA
ENDROOT
BRANCH   1   3
ATOM      3  C   UNL     1      -9.820  17.406  66.398  0.00  0.00    +0.012 A 
ATOM      4  C   UNL     1      -8.445  17.660  66.461  0.00  0.00    +0.019 A 
ATOM      5  C   UNL     1      -7.967  18.951  66.653  0.00  0.00    +0.081 A 
ATOM      6  C   UNL     1      -6.606  19.186  66.807  0.00  0.00    +0.022 A 
ATOM      7  C   UNL     1      -5.723  18.114  66.797  0.00  0.00    +0.038 A 
ATOM      8  C   UNL     1      -6.177  16.801  66.781  0.00  0.00    +0.139 A 
ATOM      9  N   UNL     1      -8.863  19.920  66.895  0.00  0.00    -0.244 NA
ATOM     10  C   UNL     1     -10.088  19.820  66.371  0.00  0.00    +0.099 A 
ATOM     11  C   UNL     1      -7.502  16.669  66.388  0.00  0.00    +0.038 A 
ATOM     12  C   UNL     1     -10.560  18.514  66.160  0.00  0.00    +0.019 A 
BRANCH   8  13
ATOM     13  O   UNL     1      -5.700  15.854  67.696  0.00  0.00    -0.471 OA
ATOM     14  C   UNL     1      -6.217  14.606  67.953  0.00  0.00    +0.252 C 
ENDBRANCH   8  13
ENDBRANCH   1   3
BRANCH   1  18
ATOM     15  C   UNL     1     -10.473  12.297  65.716  0.00  0.00    +0.038 C 
ATOM     16  C   UNL     1     -12.063  12.876  65.953  0.00  0.00    +0.008 C 
ATOM     17  C   UNL     1     -11.871  14.387  65.460  0.00  0.00    +0.019 C 
ATOM     18  C   UNL     1     -11.144  15.303  66.557  0.00  0.00    +0.092 C 
ATOM     19  N   UNL     1     -10.017  14.279  66.903  0.00  0.00    -0.271 NA
ATOM     20  C   UNL     1     -10.547  13.467  67.900  0.00  0.00    +0.072 C 
ATOM     21  C   UNL     1     -11.903  13.079  67.554  0.00  0.00    +0.018 C 
ATOM     22  C   UNL     1      -9.695  13.715  65.663  0.00  0.00    +0.076 C 
BRANCH  15  24
ATOM     23  C   UNL     1     -10.282  11.806  63.422  0.00  0.00    -0.005 C 
ATOM     24  C   UNL     1     -10.688  12.281  64.136  0.00  0.00    -0.025 C 
ENDBRANCH  15  24
ENDBRANCH   1  18
TORSDOF 4
ENDMDL
MODEL 6
REMARK VINA RESULT:      -6.6      2.436      3.961
REMARK  Name = 
REMARK  4 active torsions:
REMARK  status: ('A' for Active; 'I' for Inactive)
REMARK    1  A    between atoms: C_2  and  C_3
REMARK    2  A    between atoms: C_10  and  C_11
REMARK    3  A    between atoms: C_11  and  C_13
REMARK    4  A    between atoms: C_20  and  O_21
REMARK                            x       y       z     vdW  Elec       q    Type
REMARK                         _______ _______ _______ _____ _____    ______ ____
ROOT
ATOM      1  C   UNL     1     -11.802  12.102  68.432  0.00  0.00    +0.189 C 
ATOM      2  O   UNL     1     -12.247  10.683  68.165  0.00  0.00    -0.217 OA
ENDROOT
BRANCH   1   3
ATOM      3  C   UNL     1     -11.901  11.966  70.036  0.00  0.00    +0.012 A 
ATOM      4  C   UNL     1     -12.475  13.152  70.510  0.00  0.00    +0.019 A 
ATOM      5  C   UNL     1     -13.201  13.168  71.696  0.00  0.00    +0.081 A 
ATOM      6  C   UNL     1     -13.690  14.363  72.209  0.00  0.00    +0.022 A 
ATOM      7  C   UNL     1     -13.425  15.552  71.542  0.00  0.00    +0.038 A 
ATOM      8  C   UNL     1     -12.562  15.596  70.454  0.00  0.00    +0.139 A 
ATOM      9  N   UNL     1     -13.228  12.043  72.427  0.00  0.00    -0.244 NA
ATOM     10  C   UNL     1     -13.142  10.862  71.809  0.00  0.00    +0.099 A 
ATOM     11  C   UNL     1     -12.323  14.356  69.875  0.00  0.00    +0.038 A 
ATOM     12  C   UNL     1     -12.425  10.854  70.600  0.00  0.00    +0.019 A 
BRANCH   8  13
ATOM     13  O   UNL     1     -11.518  16.526  70.390  0.00  0.00    -0.471 OA
ATOM     14  C   UNL     1     -10.577  16.660  69.395  0.00  0.00    +0.252 C 
ENDBRANCH   8  13
ENDBRANCH   1   3
BRANCH   1  18
ATOM     15  C   UNL     1      -9.690  12.822  65.330  0.00  0.00    +0.038 C 
ATOM     16  C   UNL     1      -8.953  11.414  65.958  0.00  0.00    +0.008 C 
ATOM     17  C   UNL     1     -10.093  10.953  66.983  0.00  0.00    +0.019 C 
ATOM     18  C   UNL     1     -10.090  11.818  68.334  0.00  0.00    +0.092 C 
ATOM     19  N   UNL     1      -9.962  13.209  67.637  0.00  0.00    -0.271 NA
ATOM     20  C   UNL     1      -8.597  13.417  67.473  0.00  0.00    +0.072 C 
ATOM     21  C   UNL     1      -7.967  12.210  66.971  0.00  0.00    +0.018 C 
ATOM     22  C   UNL     1     -10.773  13.083  66.503  0.00  0.00    +0.076 C 
BRANCH  15  24
ATOM     23  C   UNL     1     -11.388  12.142  63.848  0.00  0.00    -0.005 C 
ATOM     24  C   UNL     1     -10.716  11.939  64.487  0.00  0.00    -0.025 C 
ENDBRANCH  15  24
ENDBRANCH   1  18
TORSDOF 4
ENDMDL
MODEL 7
REMARK VINA RESULT:      -6.4      2.865      4.187
REMARK  Name = 
REMARK  4 active torsions:
REMARK  status: ('A' for Active; 'I' for Inactive)
REMARK    1  A    between atoms: C_2  and  C_3
REMARK    2  A    between atoms: C_10  and  C_11
REMARK    3  A    between atoms: C_11  and  C_13
REMARK    4  A    between atoms: C_20  and  O_21
REMARK                            x       y       z     vdW  Elec       q    Type
REMARK                         _______ _______ _______ _____ _____    ______ ____
ROOT
ATOM      1  C   UNL     1     -10.665  11.061  68.146  0.00  0.00    +0.189 C 
ATOM      2  O   UNL     1     -10.062  10.132  67.118  0.00  0.00    -0.217 OA
ENDROOT
BRANCH   1   3
ATOM      3  C   UNL     1      -9.995  10.309  69.405  0.00  0.00    +0.012 A 
ATOM      4  C   UNL     1     -11.034   9.987  70.286  0.00  0.00    +0.019 A 
ATOM      5  C   UNL     1     -10.929   8.899  71.146  0.00  0.00    +0.081 A 
ATOM      6  C   UNL     1     -11.921   8.639  72.082  0.00  0.00    +0.022 A 
ATOM      7  C   UNL     1     -13.014   9.493  72.174  0.00  0.00    +0.038 A 
ATOM      8  C   UNL     1     -13.069  10.680  71.454  0.00  0.00    +0.139 A 
ATOM      9  N   UNL     1      -9.757   8.248  71.187  0.00  0.00    -0.244 NA
ATOM     10  C   UNL     1      -8.996   8.203  70.090  0.00  0.00    +0.099 A 
ATOM     11  C   UNL     1     -12.178  10.735  70.391  0.00  0.00    +0.038 A 
ATOM     12  C   UNL     1      -9.121   9.294  69.213  0.00  0.00    +0.019 A 
BRANCH   8  13
ATOM     13  O   UNL     1     -13.372  11.896  72.078  0.00  0.00    -0.471 OA
ATOM     14  C   UNL     1     -13.079  13.162  71.628  0.00  0.00    +0.252 C 
ENDBRANCH   8  13
ENDBRANCH   1   3
BRANCH   1  18
ATOM     15  C   UNL     1     -11.394  14.595  66.887  0.00  0.00    +0.038 C 
ATOM     16  C   UNL     1      -9.813  14.314  66.299  0.00  0.00    +0.008 C 
ATOM     17  C   UNL     1      -9.733  12.728  66.504  0.00  0.00    +0.019 C 
ATOM     18  C   UNL     1      -9.470  12.319  68.032  0.00  0.00    +0.092 C 
ATOM     19  N   UNL     1     -10.527  13.291  68.645  0.00  0.00    -0.271 NA
ATOM     20  C   UNL     1      -9.858  14.497  68.829  0.00  0.00    +0.072 C 
ATOM     21  C   UNL     1      -9.069  14.811  67.651  0.00  0.00    +0.018 C 
ATOM     22  C   UNL     1     -11.591  13.233  67.738  0.00  0.00    +0.076 C 
BRANCH  15  24
ATOM     23  C   UNL     1     -12.912  13.807  65.270  0.00  0.00    -0.005 C 
ATOM     24  C   UNL     1     -12.024  13.944  65.574  0.00  0.00    -0.025 C 
ENDBRANCH  15  24
ENDBRANCH   1  18
TORSDOF 4
ENDMDL
MODEL 8
REMARK VINA RESULT:      -6.3      3.776      7.549
REMARK  Name = 
REMARK  4 active torsions:
REMARK  status: ('A' for Active; 'I' for Inactive)
REMARK    1  A    between atoms: C_2  and  C_3
REMARK    2  A    between atoms: C_10  and  C_11
REMARK    3  A    between atoms: C_11  and  C_13
REMARK    4  A    between atoms: C_20  and  O_21
REMARK                            x       y       z     vdW  Elec       q    Type
REMARK                         _______ _______ _______ _____ _____    ______ ____
ROOT
ATOM      1  C   UNL     1     -10.205   9.694  69.732  0.00  0.00    +0.189 C 
ATOM      2  O   UNL     1      -9.045   9.288  68.853  0.00  0.00    -0.217 OA
ENDROOT
BRANCH   1   3
ATOM      3  C   UNL     1     -11.088  10.278  68.517  0.00  0.00    +0.012 A 
ATOM      4  C   UNL     1     -11.410  11.601  68.847  0.00  0.00    +0.019 A 
ATOM      5  C   UNL     1     -11.652  12.544  67.854  0.00  0.00    +0.081 A 
ATOM      6  C   UNL     1     -12.060  13.829  68.185  0.00  0.00    +0.022 A 
ATOM      7  C   UNL     1     -12.254  14.162  69.520  0.00  0.00    +0.038 A 
ATOM      8  C   UNL     1     -12.189  13.202  70.523  0.00  0.00    +0.139 A 
ATOM      9  N   UNL     1     -11.687  12.117  66.583  0.00  0.00    -0.244 NA
ATOM     10  C   UNL     1     -10.938  11.070  66.225  0.00  0.00    +0.099 A 
ATOM     11  C   UNL     1     -11.551  12.030  70.140  0.00  0.00    +0.038 A 
ATOM     12  C   UNL     1     -10.678  10.129  67.236  0.00  0.00    +0.019 A 
BRANCH   8  13
ATOM     13  O   UNL     1     -13.207  13.075  71.476  0.00  0.00    -0.471 OA
ATOM     14  C   UNL     1     -13.479  13.920  72.526  0.00  0.00    +0.252 C 
ENDBRANCH   8  13
ENDBRANCH   1   3
BRANCH   1  18
ATOM     15  C   UNL     1     -10.631   7.639  72.926  0.00  0.00    +0.038 C 
ATOM     16  C   UNL     1     -10.377   6.432  71.743  0.00  0.00    +0.008 C 
ATOM     17  C   UNL     1      -9.821   7.343  70.550  0.00  0.00    +0.019 C 
ATOM     18  C   UNL     1     -10.987   8.143  69.793  0.00  0.00    +0.092 C 
ATOM     19  N   UNL     1     -11.715   8.631  71.086  0.00  0.00    -0.271 NA
ATOM     20  C   UNL     1     -12.600   7.611  71.421  0.00  0.00    +0.072 C 
ATOM     21  C   UNL     1     -11.937   6.324  71.313  0.00  0.00    +0.018 C 
ATOM     22  C   UNL     1     -10.664   8.936  71.959  0.00  0.00    +0.076 C 
BRANCH  15  24
ATOM     23  C   UNL     1      -8.529   8.111  73.873  0.00  0.00    -0.005 C 
ATOM     24  C   UNL     1      -9.060   7.773  73.163  0.00  0.00    -0.025 C 
ENDBRANCH  15  24
ENDBRANCH   1  18
TORSDOF 4
ENDMDL
MODEL 9
REMARK VINA RESULT:      -6.2      3.945      7.873
REMARK  Name = 
REMARK  4 active torsions:
REMARK  status: ('A' for Active; 'I' for Inactive)
REMARK    1  A    between atoms: C_2  and  C_3
REMARK    2  A    between atoms: C_10  and  C_11
REMARK    3  A    between atoms: C_11  and  C_13
REMARK    4  A    between atoms: C_20  and  O_21
REMARK                            x       y       z     vdW  Elec       q    Type
REMARK                         _______ _______ _______ _____ _____    ______ ____
ROOT
ATOM      1  C   UNL     1     -11.303  10.661  67.765  0.00  0.00    +0.189 C 
ATOM      2  O   UNL     1     -12.298  10.761  68.897  0.00  0.00    -0.217 OA
ENDROOT
BRANCH   1   3
ATOM      3  C   UNL     1     -11.057  12.252  67.670  0.00  0.00    +0.012 A 
ATOM      4  C   UNL     1     -11.466  12.651  66.392  0.00  0.00    +0.019 A 
ATOM      5  C   UNL     1     -11.916  13.946  66.160  0.00  0.00    +0.081 A 
ATOM      6  C   UNL     1     -12.233  14.364  64.874  0.00  0.00    +0.022 A 
ATOM      7  C   UNL     1     -12.070  13.485  63.810  0.00  0.00    +0.038 A 
ATOM      8  C   UNL     1     -11.463  12.247  63.980  0.00  0.00    +0.139 A 
ATOM      9  N   UNL     1     -11.830  14.827  67.168  0.00  0.00    -0.244 NA
ATOM     10  C   UNL     1     -11.928  14.390  68.426  0.00  0.00    +0.099 A 
ATOM     11  C   UNL     1     -11.406  11.825  65.301  0.00  0.00    +0.038 A 
ATOM     12  C   UNL     1     -11.492  13.073  68.654  0.00  0.00    +0.019 A 
BRANCH   8  13
ATOM     13  O   UNL     1     -10.420  11.827  63.145  0.00  0.00    -0.471 OA
ATOM     14  C   UNL     1      -9.763  10.619  63.171  0.00  0.00    +0.252 C 
ENDBRANCH   8  13
ENDBRANCH   1   3
BRANCH   1  18
ATOM     15  C   UNL     1      -9.158   7.519  67.397  0.00  0.00    +0.038 C 
ATOM     16  C   UNL     1      -9.115   7.799  69.083  0.00  0.00    +0.008 C 
ATOM     17  C   UNL     1     -10.319   8.847  69.208  0.00  0.00    +0.019 C 
ATOM     18  C   UNL     1      -9.901  10.321  68.736  0.00  0.00    +0.092 C 
ATOM     19  N   UNL     1      -9.180   9.873  67.425  0.00  0.00    -0.271 NA
ATOM     20  C   UNL     1      -7.869   9.597  67.799  0.00  0.00    +0.072 C 
ATOM     21  C   UNL     1      -7.857   8.820  69.025  0.00  0.00    +0.018 C 
ATOM     22  C   UNL     1      -9.985   8.834  66.946  0.00  0.00    +0.076 C 
BRANCH  15  24
ATOM     23  C   UNL     1     -10.974   6.086  66.965  0.00  0.00    -0.005 C 
ATOM     24  C   UNL     1     -10.489   6.653  67.550  0.00  0.00    -0.025 C 
ENDBRANCH  15  24
ENDBRANCH   1  18
TORSDOF 4
ENDMDL
