MODEL 1
REMARK VINA RESULT:      -7.1      0.000      0.000
REMARK  Name = 
REMARK  1 active torsions:
REMARK  status: ('A' for Active; 'I' for Inactive)
REMARK    1  A    between atoms: C_11  and  C_12
REMARK                            x       y       z     vdW  Elec       q    Type
REMARK                         _______ _______ _______ _____ _____    ______ ____
ROOT
ATOM      1  O   UNL     1     -11.659  10.894  67.285  0.00  0.00    -0.268 OA
ATOM      2  C   UNL     1     -11.618  11.745  67.575  0.00  0.00    +0.300 C 
ATOM      3  C   UNL     1     -10.960  11.681  69.083  0.00  0.00    +0.333 C 
ATOM      4  O   UNL     1      -9.871  12.726  68.735  0.00  0.00    -0.186 OA
ATOM      5  N   UNL     1     -12.014  12.725  69.690  0.00  0.00    -0.233 NA
ATOM      6  C   UNL     1     -11.887  13.975  69.730  0.00  0.00    +0.080 C 
ATOM      7  C   UNL     1     -11.466  14.728  68.536  0.00  0.00    +0.034 A 
ATOM      8  C   UNL     1     -11.618  14.313  67.216  0.00  0.00    +0.075 A 
ATOM      9  C   UNL     1     -11.271  15.186  66.232  0.00  0.00    +0.018 A 
ATOM     10  C   UNL     1     -10.500  16.284  66.608  0.00  0.00    +0.013 A 
ATOM     11  C   UNL     1     -10.623  16.837  67.876  0.00  0.00    +0.058 A 
ATOM     12 CL   UNL     1      -9.606  18.148  68.447  0.00  0.00    -0.082 Cl
ATOM     13  C   UNL     1     -11.340  16.070  68.789  0.00  0.00    +0.014 A 
ATOM     14  N   UNL     1     -11.764  12.941  66.830  0.00  0.00    -0.175 NA
ENDROOT
BRANCH   6  15
ATOM     15  C   UNL     1     -12.439  14.770  70.829  0.00  0.00    +0.017 A 
ATOM     16  C   UNL     1     -13.809  14.788  71.068  0.00  0.00    +0.001 A 
ATOM     17  C   UNL     1     -14.269  15.307  72.270  0.00  0.00    +0.000 A 
ATOM     18  C   UNL     1     -13.403  15.995  73.101  0.00  0.00    +0.000 A 
ATOM     19  C   UNL     1     -12.031  15.933  72.886  0.00  0.00    +0.000 A 
ATOM     20  C   UNL     1     -11.631  15.004  71.939  0.00  0.00    +0.001 A 
ENDBRANCH   6  15
TORSDOF 1
ENDMDL
MODEL 2
REMARK VINA RESULT:      -7.0      3.045      6.050
REMARK  Name = 
REMARK  1 active torsions:
REMARK  status: ('A' for Active; 'I' for Inactive)
REMARK    1  A    between atoms: C_11  and  C_12
REMARK                            x       y       z     vdW  Elec       q    Type
REMARK                         _______ _______ _______ _____ _____    ______ ____
ROOT
ATOM      1  O   UNL     1     -10.691  17.893  68.293  0.00  0.00    -0.268 OA
ATOM      2  C   UNL     1     -10.851  17.008  68.245  0.00  0.00    +0.300 C 
ATOM      3  C   UNL     1      -9.607  16.366  67.377  0.00  0.00    +0.333 C 
ATOM      4  O   UNL     1      -9.293  15.309  68.465  0.00  0.00    -0.186 OA
ATOM      5  N   UNL     1     -10.575  15.433  66.504  0.00  0.00    -0.233 NA
ATOM      6  C   UNL     1     -10.933  14.261  66.783  0.00  0.00    +0.080 C 
ATOM      7  C   UNL     1     -11.431  13.926  68.128  0.00  0.00    +0.034 A 
ATOM      8  C   UNL     1     -11.998  14.820  69.032  0.00  0.00    +0.075 A 
ATOM      9  C   UNL     1     -12.505  14.316  70.189  0.00  0.00    +0.018 A 
ATOM     10  C   UNL     1     -12.134  13.015  70.525  0.00  0.00    +0.013 A 
ATOM     11  C   UNL     1     -11.864  12.077  69.537  0.00  0.00    +0.058 A 
ATOM     12 CL   UNL     1     -11.289  10.458  69.893  0.00  0.00    -0.082 Cl
ATOM     13  C   UNL     1     -11.727  12.593  68.253  0.00  0.00    +0.014 A 
ATOM     14  N   UNL     1     -11.767  16.233  68.998  0.00  0.00    -0.175 NA
ENDROOT
BRANCH   6  15
ATOM     15  C   UNL     1     -11.176  13.261  65.740  0.00  0.00    +0.017 A 
ATOM     16  C   UNL     1     -12.175  13.459  64.794  0.00  0.00    +0.001 A 
ATOM     17  C   UNL     1     -12.192  12.650  63.665  0.00  0.00    +0.000 A 
ATOM     18  C   UNL     1     -11.378  11.535  63.604  0.00  0.00    +0.000 A 
ATOM     19  C   UNL     1     -10.349  11.368  64.524  0.00  0.00    +0.000 A 
ATOM     20  C   UNL     1     -10.108  12.466  65.333  0.00  0.00    +0.001 A 
ENDBRANCH   6  15
TORSDOF 1
ENDMDL
MODEL 3
REMARK VINA RESULT:      -6.9      2.646      5.119
REMARK  Name = 
REMARK  1 active torsions:
REMARK  status: ('A' for Active; 'I' for Inactive)
REMARK    1  A    between atoms: C_11  and  C_12
REMARK                            x       y       z     vdW  Elec       q    Type
REMARK                         _______ _______ _______ _____ _____    ______ ____
ROOT
ATOM      1  O   UNL     1     -11.900  11.839  64.030  0.00  0.00    -0.268 OA
ATOM      2  C   UNL     1     -11.744  12.397  64.719  0.00  0.00    +0.300 C 
ATOM      3  C   UNL     1     -12.163  13.900  64.194  0.00  0.00    +0.333 C 
ATOM      4  O   UNL     1     -13.089  14.150  65.410  0.00  0.00    -0.186 OA
ATOM      5  N   UNL     1     -10.859  14.586  64.826  0.00  0.00    -0.233 NA
ATOM      6  C   UNL     1     -10.754  15.063  65.985  0.00  0.00    +0.080 C 
ATOM      7  C   UNL     1     -11.214  14.299  67.157  0.00  0.00    +0.034 A 
ATOM      8  C   UNL     1     -11.344  12.915  67.228  0.00  0.00    +0.075 A 
ATOM      9  C   UNL     1     -11.678  12.370  68.429  0.00  0.00    +0.018 A 
ATOM     10  C   UNL     1     -12.175  13.239  69.399  0.00  0.00    +0.013 A 
ATOM     11  C   UNL     1     -11.761  14.564  69.443  0.00  0.00    +0.058 A 
ATOM     12 CL   UNL     1     -12.429  15.733  70.568  0.00  0.00    -0.082 Cl
ATOM     13  C   UNL     1     -11.060  15.002  68.325  0.00  0.00    +0.014 A 
ATOM     14  N   UNL     1     -11.505  12.076  66.078  0.00  0.00    -0.175 NA
ENDROOT
BRANCH   6  15
ATOM     15  C   UNL     1      -9.907  16.224  66.265  0.00  0.00    +0.017 A 
ATOM     16  C   UNL     1      -8.522  16.108  66.243  0.00  0.00    +0.001 A 
ATOM     17  C   UNL     1      -7.757  17.267  66.227  0.00  0.00    +0.000 A 
ATOM     18  C   UNL     1      -8.354  18.491  66.460  0.00  0.00    +0.000 A 
ATOM     19  C   UNL     1      -9.739  18.611  66.433  0.00  0.00    +0.000 A 
ATOM     20  C   UNL     1     -10.411  17.489  65.973  0.00  0.00    +0.001 A 
ENDBRANCH   6  15
TORSDOF 1
ENDMDL
MODEL 4
REMARK VINA RESULT:      -6.8      2.853      4.163
REMARK  Name = 
REMARK  1 active torsions:
REMARK  status: ('A' for Active; 'I' for Inactive)
REMARK    1  A    between atoms: C_11  and  C_12
REMARK                            x       y       z     vdW  Elec       q    Type
REMARK                         _______ _______ _______ _____ _____    ______ ____
ROOT
ATOM      1  O   UNL     1     -12.004  16.271  63.836  0.00  0.00    -0.268 OA
ATOM      2  C   UNL     1     -11.529  15.941  64.527  0.00  0.00    +0.300 C 
ATOM      3  C   UNL     1     -11.858  14.328  64.577  0.00  0.00    +0.333 C 
ATOM      4  O   UNL     1     -10.358  13.944  64.569  0.00  0.00    -0.186 OA
ATOM      5  N   UNL     1     -12.030  14.319  66.171  0.00  0.00    -0.233 NA
ATOM      6  C   UNL     1     -11.123  14.121  67.018  0.00  0.00    +0.080 C 
ATOM      7  C   UNL     1      -9.835  14.829  66.922  0.00  0.00    +0.034 A 
ATOM      8  C   UNL     1      -9.621  16.045  66.278  0.00  0.00    +0.075 A 
ATOM      9  C   UNL     1      -8.388  16.610  66.384  0.00  0.00    +0.018 A 
ATOM     10  C   UNL     1      -7.357  15.791  66.842  0.00  0.00    +0.013 A 
ATOM     11  C   UNL     1      -7.615  14.758  67.735  0.00  0.00    +0.058 A 
ATOM     12 CL   UNL     1      -6.383  13.627  68.264  0.00  0.00    -0.082 Cl
ATOM     13  C   UNL     1      -8.960  14.447  67.906  0.00  0.00    +0.014 A 
ATOM     14  N   UNL     1     -10.469  16.551  65.241  0.00  0.00    -0.175 NA
ENDROOT
BRANCH   6  15
ATOM     15  C   UNL     1     -11.391  13.445  68.290  0.00  0.00    +0.017 A 
ATOM     16  C   UNL     1     -11.862  14.162  69.384  0.00  0.00    +0.001 A 
ATOM     17  C   UNL     1     -12.374  13.462  70.468  0.00  0.00    +0.000 A 
ATOM     18  C   UNL     1     -12.205  12.092  70.548  0.00  0.00    +0.000 A 
ATOM     19  C   UNL     1     -11.780  11.374  69.435  0.00  0.00    +0.000 A 
ATOM     20  C   UNL     1     -11.744  12.098  68.254  0.00  0.00    +0.001 A 
ENDBRANCH   6  15
TORSDOF 1
ENDMDL
MODEL 5
REMARK VINA RESULT:      -6.6      3.326      4.304
REMARK  Name = 
REMARK  1 active torsions:
REMARK  status: ('A' for Active; 'I' for Inactive)
REMARK    1  A    between atoms: C_11  and  C_12
REMARK                            x       y       z     vdW  Elec       q    Type
REMARK                         _______ _______ _______ _____ _____    ______ ____
ROOT
ATOM      1  O   UNL     1     -12.702  13.976  63.503  0.00  0.00    -0.268 OA
ATOM      2  C   UNL     1     -12.153  13.888  64.211  0.00  0.00    +0.300 C 
ATOM      3  C   UNL     1     -11.831  12.278  64.341  0.00  0.00    +0.333 C 
ATOM      4  O   UNL     1     -10.299  12.507  64.358  0.00  0.00    -0.186 OA
ATOM      5  N   UNL     1     -12.023  12.273  65.932  0.00  0.00    -0.233 NA
ATOM      6  C   UNL     1     -11.130  12.481  66.792  0.00  0.00    +0.080 C 
ATOM      7  C   UNL     1     -10.216  13.629  66.666  0.00  0.00    +0.034 A 
ATOM      8  C   UNL     1     -10.475  14.803  65.964  0.00  0.00    +0.075 A 
ATOM      9  C   UNL     1      -9.561  15.806  66.046  0.00  0.00    +0.018 A 
ATOM     10  C   UNL     1      -8.304  15.473  66.549  0.00  0.00    +0.013 A 
ATOM     11  C   UNL     1      -8.162  14.462  67.490  0.00  0.00    +0.058 A 
ATOM     12 CL   UNL     1      -6.600  13.924  68.081  0.00  0.00    -0.082 Cl
ATOM     13  C   UNL     1      -9.284  13.661  67.672  0.00  0.00    +0.014 A 
ATOM     14  N   UNL     1     -11.429  14.893  64.899  0.00  0.00    -0.175 NA
ENDROOT
BRANCH   6  15
ATOM     15  C   UNL     1     -11.144  11.810  68.095  0.00  0.00    +0.017 A 
ATOM     16  C   UNL     1     -11.840  12.363  69.164  0.00  0.00    +0.001 A 
ATOM     17  C   UNL     1     -12.074  11.576  70.284  0.00  0.00    +0.000 A 
ATOM     18  C   UNL     1     -11.431  10.360  70.419  0.00  0.00    +0.000 A 
ATOM     19  C   UNL     1     -10.778   9.789  69.332  0.00  0.00    +0.000 A 
ATOM     20  C   UNL     1     -10.998  10.426  68.121  0.00  0.00    +0.001 A 
ENDBRANCH   6  15
TORSDOF 1
ENDMDL
MODEL 6
REMARK VINA RESULT:      -6.3      2.723      4.073
REMARK  Name = 
REMARK  1 active torsions:
REMARK  status: ('A' for Active; 'I' for Inactive)
REMARK    1  A    between atoms: C_11  and  C_12
REMARK                            x       y       z     vdW  Elec       q    Type
REMARK                         _______ _______ _______ _____ _____    ______ ____
ROOT
ATOM      1  O   UNL     1     -10.124  13.987  65.795  0.00  0.00    -0.268 OA
ATOM      2  C   UNL     1     -10.423  13.660  66.579  0.00  0.00    +0.300 C 
ATOM      3  C   UNL     1     -11.876  14.387  66.852  0.00  0.00    +0.333 C 
ATOM      4  O   UNL     1     -12.597  13.034  67.075  0.00  0.00    -0.186 OA
ATOM      5  N   UNL     1     -11.551  14.667  68.396  0.00  0.00    -0.233 NA
ATOM      6  C   UNL     1     -11.798  13.900  69.361  0.00  0.00    +0.080 C 
ATOM      7  C   UNL     1     -11.443  12.472  69.298  0.00  0.00    +0.034 A 
ATOM      8  C   UNL     1     -10.451  11.914  68.495  0.00  0.00    +0.075 A 
ATOM      9  C   UNL     1     -10.183  10.589  68.647  0.00  0.00    +0.018 A 
ATOM     10  C   UNL     1     -11.123   9.832  69.344  0.00  0.00    +0.013 A 
ATOM     11  C   UNL     1     -11.883  10.403  70.357  0.00  0.00    +0.058 A 
ATOM     12 CL   UNL     1     -13.156   9.535  71.197  0.00  0.00    -0.082 Cl
ATOM     13  C   UNL     1     -11.832  11.791  70.423  0.00  0.00    +0.014 A 
ATOM     14  N   UNL     1      -9.960  12.533  67.301  0.00  0.00    -0.175 NA
ENDROOT
BRANCH   6  15
ATOM     15  C   UNL     1     -12.147  14.417  70.686  0.00  0.00    +0.017 A 
ATOM     16  C   UNL     1     -11.507  15.543  71.194  0.00  0.00    +0.001 A 
ATOM     17  C   UNL     1     -12.049  16.172  72.307  0.00  0.00    +0.000 A 
ATOM     18  C   UNL     1     -13.061  15.558  73.021  0.00  0.00    +0.000 A 
ATOM     19  C   UNL     1     -13.730  14.463  72.486  0.00  0.00    +0.000 A 
ATOM     20  C   UNL     1     -13.437  14.193  71.159  0.00  0.00    +0.001 A 
ENDBRANCH   6  15
TORSDOF 1
ENDMDL
MODEL 7
REMARK VINA RESULT:      -6.3      3.982      5.506
REMARK  Name = 
REMARK  1 active torsions:
REMARK  status: ('A' for Active; 'I' for Inactive)
REMARK    1  A    between atoms: C_11  and  C_12
REMARK                            x       y       z     vdW  Elec       q    Type
REMARK                         _______ _______ _______ _____ _____    ______ ____
ROOT
ATOM      1  O   UNL     1      -9.796  20.853  67.210  0.00  0.00    -0.268 OA
ATOM      2  C   UNL     1      -9.567  20.020  67.463  0.00  0.00    +0.300 C 
ATOM      3  C   UNL     1     -10.582  19.004  66.656  0.00  0.00    +0.333 C 
ATOM      4  O   UNL     1      -9.413  18.156  66.098  0.00  0.00    -0.186 OA
ATOM      5  N   UNL     1     -10.853  18.096  67.949  0.00  0.00    -0.233 NA
ATOM      6  C   UNL     1     -10.190  17.089  68.306  0.00  0.00    +0.080 C 
ATOM      7  C   UNL     1      -8.719  17.132  68.348  0.00  0.00    +0.034 A 
ATOM      8  C   UNL     1      -7.941  18.278  68.485  0.00  0.00    +0.075 A 
ATOM      9  C   UNL     1      -6.597  18.121  68.617  0.00  0.00    +0.018 A 
ATOM     10  C   UNL     1      -6.073  16.873  68.284  0.00  0.00    +0.013 A 
ATOM     11  C   UNL     1      -6.826  15.718  68.458  0.00  0.00    +0.058 A 
ATOM     12 CL   UNL     1      -6.266  14.132  67.959  0.00  0.00    -0.082 Cl
ATOM     13  C   UNL     1      -8.176  15.926  68.714  0.00  0.00    +0.014 A 
ATOM     14  N   UNL     1      -8.400  19.591  68.141  0.00  0.00    -0.175 NA
ENDROOT
BRANCH   6  15
ATOM     15  C   UNL     1     -10.821  15.954  68.984  0.00  0.00    +0.017 A 
ATOM     16  C   UNL     1     -11.265  16.076  70.296  0.00  0.00    +0.001 A 
ATOM     17  C   UNL     1     -12.103  15.096  70.809  0.00  0.00    +0.000 A 
ATOM     18  C   UNL     1     -12.299  13.920  70.109  0.00  0.00    +0.000 A 
ATOM     19  C   UNL     1     -11.897  13.821  68.782  0.00  0.00    +0.000 A 
ATOM     20  C   UNL     1     -11.491  15.014  68.206  0.00  0.00    +0.001 A 
ENDBRANCH   6  15
TORSDOF 1
ENDMDL
MODEL 8
REMARK VINA RESULT:      -6.2      2.242      4.526
REMARK  Name = 
REMARK  1 active torsions:
REMARK  status: ('A' for Active; 'I' for Inactive)
REMARK    1  A    between atoms: C_11  and  C_12
REMARK                            x       y       z     vdW  Elec       q    Type
REMARK                         _______ _______ _______ _____ _____    ______ ____
ROOT
ATOM      1  O   UNL     1     -10.816  12.242  65.181  0.00  0.00    -0.268 OA
ATOM      2  C   UNL     1     -10.876  12.775  65.905  0.00  0.00    +0.300 C 
ATOM      3  C   UNL     1     -11.386  14.240  65.350  0.00  0.00    +0.333 C 
ATOM      4  O   UNL     1     -12.559  14.299  66.360  0.00  0.00    -0.186 OA
ATOM      5  N   UNL     1     -10.339  15.051  66.253  0.00  0.00    -0.233 NA
ATOM      6  C   UNL     1     -10.530  15.470  67.423  0.00  0.00    +0.080 C 
ATOM      7  C   UNL     1     -11.102  14.589  68.455  0.00  0.00    +0.034 A 
ATOM      8  C   UNL     1     -11.052  13.197  68.457  0.00  0.00    +0.075 A 
ATOM      9  C   UNL     1     -11.537  12.547  69.548  0.00  0.00    +0.018 A 
ATOM     10  C   UNL     1     -12.330  13.288  70.423  0.00  0.00    +0.013 A 
ATOM     11  C   UNL     1     -12.119  14.651  70.589  0.00  0.00    +0.058 A 
ATOM     12 CL   UNL     1     -13.149  15.658  71.591  0.00  0.00    -0.082 Cl
ATOM     13  C   UNL     1     -11.278  15.238  69.650  0.00  0.00    +0.014 A 
ATOM     14  N   UNL     1     -10.867  12.412  67.274  0.00  0.00    -0.175 NA
ENDROOT
BRANCH   6  15
ATOM     15  C   UNL     1      -9.922  16.713  67.904  0.00  0.00    +0.017 A 
ATOM     16  C   UNL     1      -8.562  16.770  68.184  0.00  0.00    +0.001 A 
ATOM     17  C   UNL     1      -7.969  18.013  68.357  0.00  0.00    +0.000 A 
ATOM     18  C   UNL     1      -8.757  19.143  68.475  0.00  0.00    +0.000 A 
ATOM     19  C   UNL     1     -10.106  19.092  68.146  0.00  0.00    +0.000 A 
ATOM     20  C   UNL     1     -10.511  17.918  67.530  0.00  0.00    +0.001 A 
ENDBRANCH   6  15
TORSDOF 1
ENDMDL
MODEL 9
REMARK VINA RESULT:      -6.0      3.586      5.027
REMARK  Name = 
REMARK  1 active torsions:
REMARK  status: ('A' for Active; 'I' for Inactive)
REMARK    1  A    between atoms: C_11  and  C_12
REMARK                            x       y       z     vdW  Elec       q    Type
REMARK                         _______ _______ _______ _____ _____    ______ ____
ROOT
ATOM      1  O   UNL     1     -10.990  11.600  63.075  0.00  0.00    -0.268 OA
ATOM      2  C   UNL     1     -10.950  11.806  63.951  0.00  0.00    +0.300 C 
ATOM      3  C   UNL     1     -11.774  13.222  64.122  0.00  0.00    +0.333 C 
ATOM      4  O   UNL     1     -12.672  12.652  65.248  0.00  0.00    -0.186 OA
ATOM      5  N   UNL     1     -10.665  13.857  65.090  0.00  0.00    -0.233 NA
ATOM      6  C   UNL     1     -10.631  13.770  66.344  0.00  0.00    +0.080 C 
ATOM      7  C   UNL     1     -10.817  12.471  67.014  0.00  0.00    +0.034 A 
ATOM      8  C   UNL     1     -10.577  11.222  66.449  0.00  0.00    +0.075 A 
ATOM      9  C   UNL     1     -10.697  10.130  67.250  0.00  0.00    +0.018 A 
ATOM     10  C   UNL     1     -11.355  10.309  68.466  0.00  0.00    +0.013 A 
ATOM     11  C   UNL     1     -11.301  11.529  69.128  0.00  0.00    +0.058 A 
ATOM     12 CL   UNL     1     -12.195  11.852  70.603  0.00  0.00    -0.082 Cl
ATOM     13  C   UNL     1     -10.795  12.586  68.381  0.00  0.00    +0.014 A 
ATOM     14  N   UNL     1     -10.570  10.981  65.037  0.00  0.00    -0.175 NA
ENDROOT
BRANCH   6  15
ATOM     15  C   UNL     1     -10.105  14.853  67.177  0.00  0.00    +0.017 A 
ATOM     16  C   UNL     1      -8.754  15.181  67.136  0.00  0.00    +0.001 A 
ATOM     17  C   UNL     1      -8.342  16.378  67.706  0.00  0.00    +0.000 A 
ATOM     18  C   UNL     1      -9.216  17.105  68.492  0.00  0.00    +0.000 A 
ATOM     19  C   UNL     1     -10.573  16.804  68.491  0.00  0.00    +0.000 A 
ATOM     20  C   UNL     1     -10.966  15.890  67.526  0.00  0.00    +0.001 A 
ENDBRANCH   6  15
TORSDOF 1
ENDMDL
