MODEL 1
REMARK VINA RESULT:      -6.4      0.000      0.000
REMARK  Name = 
REMARK  6 active torsions:
REMARK  status: ('A' for Active; 'I' for Inactive)
REMARK    1  A    between atoms: N_2  and  C_4
REMARK    2  A    between atoms: C_4  and  C_5
REMARK    3  A    between atoms: C_5  and  O_6
REMARK    4  A    between atoms: O_6  and  C_7
REMARK    5  A    between atoms: C_7  and  C_8
REMARK    6  A    between atoms: C_7  and  C_14
REMARK                            x       y       z     vdW  Elec       q    Type
REMARK                         _______ _______ _______ _____ _____    ______ ____
ROOT
ATOM      1  C   UNL     1     -11.576  14.915  69.609  0.00  0.00    +0.160 C 
ENDROOT
BRANCH   1   2
ATOM      2  C   UNL     1     -11.991  13.824  68.675  0.00  0.00    +0.009 A 
ATOM      3  C   UNL     1     -11.633  12.536  69.055  0.00  0.00    -0.002 A 
ATOM      4  C   UNL     1     -11.571  11.566  68.068  0.00  0.00    -0.000 A 
ATOM      5  C   UNL     1     -11.298  11.921  66.754  0.00  0.00    -0.000 A 
ATOM      6  C   UNL     1     -11.595  13.220  66.356  0.00  0.00    -0.000 A 
ATOM      7  C   UNL     1     -12.078  14.101  67.315  0.00  0.00    -0.002 A 
ENDBRANCH   1   2
BRANCH   1   8
ATOM      8  C   UNL     1     -12.205  14.772  70.943  0.00  0.00    +0.009 A 
ATOM      9  C   UNL     1     -13.585  14.686  71.070  0.00  0.00    -0.002 A 
ATOM     10  C   UNL     1     -14.257  15.324  72.104  0.00  0.00    -0.000 A 
ATOM     11  C   UNL     1     -13.538  15.963  73.106  0.00  0.00    -0.000 A 
ATOM     12  C   UNL     1     -12.168  15.845  73.122  0.00  0.00    -0.000 A 
ATOM     13  C   UNL     1     -11.527  15.199  72.073  0.00  0.00    -0.002 A 
ENDBRANCH   1   8
BRANCH   1  14
ATOM     14  O   UNL     1     -11.801  16.160  69.050  0.00  0.00    -0.346 OA
BRANCH  14  15
ATOM     15  C   UNL     1     -10.658  16.934  68.943  0.00  0.00    +0.160 C 
BRANCH  15  16
ATOM     16  C   UNL     1     -10.516  17.537  67.572  0.00  0.00    +0.105 C 
BRANCH  16  18
ATOM     17  C   UNL     1     -10.482  19.564  66.268  0.00  0.00    +0.090 C 
ATOM     18  N   UNL     1     -10.776  18.973  67.571  0.00  0.00    -0.268 NA
ATOM     19  C   UNL     1      -9.817  19.548  68.511  0.00  0.00    +0.090 C 
ENDBRANCH  16  18
ENDBRANCH  15  16
ENDBRANCH  14  15
ENDBRANCH   1  14
TORSDOF 6
ENDMDL
MODEL 2
REMARK VINA RESULT:      -6.2      1.986      6.124
REMARK  Name = 
REMARK  6 active torsions:
REMARK  status: ('A' for Active; 'I' for Inactive)
REMARK    1  A    between atoms: N_2  and  C_4
REMARK    2  A    between atoms: C_4  and  C_5
REMARK    3  A    between atoms: C_5  and  O_6
REMARK    4  A    between atoms: O_6  and  C_7
REMARK    5  A    between atoms: C_7  and  C_8
REMARK    6  A    between atoms: C_7  and  C_14
REMARK                            x       y       z     vdW  Elec       q    Type
REMARK                         _______ _______ _______ _____ _____    ______ ____
ROOT
ATOM      1  C   UNL     1     -10.534  16.006  68.344  0.00  0.00    +0.160 C 
ENDROOT
BRANCH   1   2
ATOM      2  C   UNL     1      -9.913  17.226  67.743  0.00  0.00    +0.009 A 
ATOM      3  C   UNL     1      -8.803  17.730  68.411  0.00  0.00    -0.002 A 
ATOM      4  C   UNL     1      -8.471  19.058  68.199  0.00  0.00    -0.000 A 
ATOM      5  C   UNL     1      -9.449  19.977  67.845  0.00  0.00    -0.000 A 
ATOM      6  C   UNL     1     -10.596  19.498  67.223  0.00  0.00    -0.000 A 
ATOM      7  C   UNL     1     -10.724  18.125  67.059  0.00  0.00    -0.002 A 
ENDBRANCH   1   2
BRANCH   1   8
ATOM      8  C   UNL     1     -10.721  14.929  67.343  0.00  0.00    +0.009 A 
ATOM      9  C   UNL     1      -9.839  14.789  66.280  0.00  0.00    -0.002 A 
ATOM     10  C   UNL     1     -10.287  14.460  65.008  0.00  0.00    -0.000 A 
ATOM     11  C   UNL     1     -11.625  14.143  64.806  0.00  0.00    -0.000 A 
ATOM     12  C   UNL     1     -12.457  14.041  65.895  0.00  0.00    -0.000 A 
ATOM     13  C   UNL     1     -11.976  14.376  67.154  0.00  0.00    -0.002 A 
ENDBRANCH   1   8
BRANCH   1  14
ATOM     14  O   UNL     1     -11.706  16.320  69.006  0.00  0.00    -0.346 OA
BRANCH  14  15
ATOM     15  C   UNL     1     -11.663  16.057  70.365  0.00  0.00    +0.160 C 
BRANCH  15  16
ATOM     16  C   UNL     1     -12.740  15.094  70.784  0.00  0.00    +0.105 C 
BRANCH  16  18
ATOM     17  C   UNL     1     -13.280  15.795  73.026  0.00  0.00    +0.090 C 
ATOM     18  N   UNL     1     -13.740  15.722  71.642  0.00  0.00    -0.268 NA
ATOM     19  C   UNL     1     -14.887  14.819  71.634  0.00  0.00    +0.090 C 
ENDBRANCH  16  18
ENDBRANCH  15  16
ENDBRANCH  14  15
ENDBRANCH   1  14
TORSDOF 6
ENDMDL
MODEL 3
REMARK VINA RESULT:      -6.0      0.712      4.289
REMARK  Name = 
REMARK  6 active torsions:
REMARK  status: ('A' for Active; 'I' for Inactive)
REMARK    1  A    between atoms: N_2  and  C_4
REMARK    2  A    between atoms: C_4  and  C_5
REMARK    3  A    between atoms: C_5  and  O_6
REMARK    4  A    between atoms: O_6  and  C_7
REMARK    5  A    between atoms: C_7  and  C_8
REMARK    6  A    between atoms: C_7  and  C_14
REMARK                            x       y       z     vdW  Elec       q    Type
REMARK                         _______ _______ _______ _____ _____    ______ ____
ROOT
ATOM      1  C   UNL     1     -11.690  15.492  69.256  0.00  0.00    +0.160 C 
ENDROOT
BRANCH   1   2
ATOM      2  C   UNL     1     -12.320  15.681  70.598  0.00  0.00    +0.009 A 
ATOM      3  C   UNL     1     -11.457  15.603  71.686  0.00  0.00    -0.002 A 
ATOM      4  C   UNL     1     -12.006  15.315  72.925  0.00  0.00    -0.000 A 
ATOM      5  C   UNL     1     -13.183  14.585  73.017  0.00  0.00    -0.000 A 
ATOM      6  C   UNL     1     -14.043  14.599  71.925  0.00  0.00    -0.000 A 
ATOM      7  C   UNL     1     -13.638  15.282  70.784  0.00  0.00    -0.002 A 
ENDBRANCH   1   2
BRANCH   1   8
ATOM      8  C   UNL     1     -12.006  14.164  68.677  0.00  0.00    +0.009 A 
ATOM      9  C   UNL     1     -11.667  12.999  69.352  0.00  0.00    -0.002 A 
ATOM     10  C   UNL     1     -11.179  11.888  68.676  0.00  0.00    -0.000 A 
ATOM     11  C   UNL     1     -11.139  11.886  67.287  0.00  0.00    -0.000 A 
ATOM     12  C   UNL     1     -11.700  12.939  66.602  0.00  0.00    -0.000 A 
ATOM     13  C   UNL     1     -12.179  14.034  67.310  0.00  0.00    -0.002 A 
ENDBRANCH   1   8
BRANCH   1  14
ATOM     14  O   UNL     1     -10.330  15.735  69.307  0.00  0.00    -0.346 OA
BRANCH  14  15
ATOM     15  C   UNL     1      -9.987  17.035  68.978  0.00  0.00    +0.160 C 
BRANCH  15  16
ATOM     16  C   UNL     1     -10.534  17.435  67.634  0.00  0.00    +0.105 C 
BRANCH  16  18
ATOM     17  C   UNL     1     -10.526  19.382  66.213  0.00  0.00    +0.090 C 
ATOM     18  N   UNL     1     -10.804  18.867  67.551  0.00  0.00    -0.268 NA
ATOM     19  C   UNL     1      -9.840  19.501  68.447  0.00  0.00    +0.090 C 
ENDBRANCH  16  18
ENDBRANCH  15  16
ENDBRANCH  14  15
ENDBRANCH   1  14
TORSDOF 6
ENDMDL
MODEL 4
REMARK VINA RESULT:      -5.9      2.702      5.188
REMARK  Name = 
REMARK  6 active torsions:
REMARK  status: ('A' for Active; 'I' for Inactive)
REMARK    1  A    between atoms: N_2  and  C_4
REMARK    2  A    between atoms: C_4  and  C_5
REMARK    3  A    between atoms: C_5  and  O_6
REMARK    4  A    between atoms: O_6  and  C_7
REMARK    5  A    between atoms: C_7  and  C_8
REMARK    6  A    between atoms: C_7  and  C_14
REMARK                            x       y       z     vdW  Elec       q    Type
REMARK                         _______ _______ _______ _____ _____    ______ ____
ROOT
ATOM      1  C   UNL     1     -12.398  13.695  69.626  0.00  0.00    +0.160 C 
ENDROOT
BRANCH   1   2
ATOM      2  C   UNL     1     -12.627  14.861  70.533  0.00  0.00    +0.009 A 
ATOM      3  C   UNL     1     -11.560  15.206  71.354  0.00  0.00    -0.002 A 
ATOM      4  C   UNL     1     -11.836  15.939  72.496  0.00  0.00    -0.000 A 
ATOM      5  C   UNL     1     -13.080  15.844  73.106  0.00  0.00    -0.000 A 
ATOM      6  C   UNL     1     -14.159  15.449  72.323  0.00  0.00    -0.000 A 
ATOM      7  C   UNL     1     -13.914  15.106  71.000  0.00  0.00    -0.002 A 
ENDBRANCH   1   2
BRANCH   1   8
ATOM      8  C   UNL     1     -12.049  12.467  70.379  0.00  0.00    +0.009 A 
ATOM      9  C   UNL     1     -11.291  11.465  69.788  0.00  0.00    -0.002 A 
ATOM     10  C   UNL     1     -11.574  10.122  70.003  0.00  0.00    -0.000 A 
ATOM     11  C   UNL     1     -12.554   9.760  70.920  0.00  0.00    -0.000 A 
ATOM     12  C   UNL     1     -13.140  10.737  71.690  0.00  0.00    -0.000 A 
ATOM     13  C   UNL     1     -12.833  12.070  71.449  0.00  0.00    -0.002 A 
ENDBRANCH   1   8
BRANCH   1  14
ATOM     14  O   UNL     1     -11.464  14.000  68.652  0.00  0.00    -0.346 OA
BRANCH  14  15
ATOM     15  C   UNL     1     -12.026  14.311  67.425  0.00  0.00    +0.160 C 
BRANCH  15  16
ATOM     16  C   UNL     1     -11.988  13.142  66.479  0.00  0.00    +0.105 C 
BRANCH  16  18
ATOM     17  C   UNL     1     -12.448  12.374  64.241  0.00  0.00    +0.090 C 
ATOM     18  N   UNL     1     -12.696  13.417  65.233  0.00  0.00    -0.268 NA
ATOM     19  C   UNL     1     -12.100  14.641  64.703  0.00  0.00    +0.090 C 
ENDBRANCH  16  18
ENDBRANCH  15  16
ENDBRANCH  14  15
ENDBRANCH   1  14
TORSDOF 6
ENDMDL
MODEL 5
REMARK VINA RESULT:      -5.9      1.794      5.122
REMARK  Name = 
REMARK  6 active torsions:
REMARK  status: ('A' for Active; 'I' for Inactive)
REMARK    1  A    between atoms: N_2  and  C_4
REMARK    2  A    between atoms: C_4  and  C_5
REMARK    3  A    between atoms: C_5  and  O_6
REMARK    4  A    between atoms: O_6  and  C_7
REMARK    5  A    between atoms: C_7  and  C_8
REMARK    6  A    between atoms: C_7  and  C_14
REMARK                            x       y       z     vdW  Elec       q    Type
REMARK                         _______ _______ _______ _____ _____    ______ ____
ROOT
ATOM      1  C   UNL     1     -11.079  16.106  68.303  0.00  0.00    +0.160 C 
ENDROOT
BRANCH   1   2
ATOM      2  C   UNL     1     -10.860  14.892  67.458  0.00  0.00    +0.009 A 
ATOM      3  C   UNL     1     -12.009  14.287  66.961  0.00  0.00    -0.002 A 
ATOM      4  C   UNL     1     -11.925  12.958  66.578  0.00  0.00    -0.000 A 
ATOM      5  C   UNL     1     -10.990  12.118  67.168  0.00  0.00    -0.000 A 
ATOM      6  C   UNL     1      -9.854  12.697  67.722  0.00  0.00    -0.000 A 
ATOM      7  C   UNL     1      -9.759  14.083  67.717  0.00  0.00    -0.002 A 
ENDBRANCH   1   2
BRANCH   1   8
ATOM      8  C   UNL     1     -10.296  17.267  67.818  0.00  0.00    +0.009 A 
ATOM      9  C   UNL     1      -9.906  18.273  68.693  0.00  0.00    -0.002 A 
ATOM     10  C   UNL     1      -9.935  19.609  68.317  0.00  0.00    -0.000 A 
ATOM     11  C   UNL     1     -10.242  19.952  67.006  0.00  0.00    -0.000 A 
ATOM     12  C   UNL     1     -10.391  18.953  66.073  0.00  0.00    -0.000 A 
ATOM     13  C   UNL     1     -10.355  17.627  66.483  0.00  0.00    -0.002 A 
ENDBRANCH   1   8
BRANCH   1  14
ATOM     14  O   UNL     1     -10.843  15.830  69.637  0.00  0.00    -0.346 OA
BRANCH  14  15
ATOM     15  C   UNL     1     -11.993  15.808  70.410  0.00  0.00    +0.160 C 
BRANCH  15  16
ATOM     16  C   UNL     1     -11.696  15.478  71.847  0.00  0.00    +0.105 C 
BRANCH  16  18
ATOM     17  C   UNL     1     -12.476  15.562  74.126  0.00  0.00    +0.090 C 
ATOM     18  N   UNL     1     -12.700  16.018  72.757  0.00  0.00    -0.268 NA
ATOM     19  C   UNL     1     -13.970  15.437  72.331  0.00  0.00    +0.090 C 
ENDBRANCH  16  18
ENDBRANCH  15  16
ENDBRANCH  14  15
ENDBRANCH   1  14
TORSDOF 6
ENDMDL
MODEL 6
REMARK VINA RESULT:      -5.7      2.083      5.674
REMARK  Name = 
REMARK  6 active torsions:
REMARK  status: ('A' for Active; 'I' for Inactive)
REMARK    1  A    between atoms: N_2  and  C_4
REMARK    2  A    between atoms: C_4  and  C_5
REMARK    3  A    between atoms: C_5  and  O_6
REMARK    4  A    between atoms: O_6  and  C_7
REMARK    5  A    between atoms: C_7  and  C_8
REMARK    6  A    between atoms: C_7  and  C_14
REMARK                            x       y       z     vdW  Elec       q    Type
REMARK                         _______ _______ _______ _____ _____    ______ ____
ROOT
ATOM      1  C   UNL     1     -11.077  15.354  68.309  0.00  0.00    +0.160 C 
ENDROOT
BRANCH   1   2
ATOM      2  C   UNL     1     -10.352  16.176  67.292  0.00  0.00    +0.009 A 
ATOM      3  C   UNL     1      -9.150  15.648  66.835  0.00  0.00    -0.002 A 
ATOM      4  C   UNL     1      -8.234  16.522  66.273  0.00  0.00    -0.000 A 
ATOM      5  C   UNL     1      -8.219  17.859  66.649  0.00  0.00    -0.000 A 
ATOM      6  C   UNL     1      -9.392  18.403  67.160  0.00  0.00    -0.000 A 
ATOM      7  C   UNL     1     -10.483  17.559  67.330  0.00  0.00    -0.002 A 
ENDBRANCH   1   2
BRANCH   1   8
ATOM      8  C   UNL     1     -11.765  14.193  67.695  0.00  0.00    +0.009 A 
ATOM      9  C   UNL     1     -11.449  12.897  68.082  0.00  0.00    -0.002 A 
ATOM     10  C   UNL     1     -11.370  11.865  67.156  0.00  0.00    -0.000 A 
ATOM     11  C   UNL     1     -11.730  12.094  65.833  0.00  0.00    -0.000 A 
ATOM     12  C   UNL     1     -12.276  13.309  65.492  0.00  0.00    -0.000 A 
ATOM     13  C   UNL     1     -12.342  14.318  66.443  0.00  0.00    -0.002 A 
ENDBRANCH   1   8
BRANCH   1  14
ATOM     14  O   UNL     1     -11.933  16.137  69.061  0.00  0.00    -0.346 OA
BRANCH  14  15
ATOM     15  C   UNL     1     -11.764  15.988  70.427  0.00  0.00    +0.160 C 
BRANCH  15  16
ATOM     16  C   UNL     1     -13.005  15.456  71.091  0.00  0.00    +0.105 C 
BRANCH  16  18
ATOM     17  C   UNL     1     -13.637  13.425  72.226  0.00  0.00    +0.090 C 
ATOM     18  N   UNL     1     -12.697  14.542  72.186  0.00  0.00    -0.268 NA
ATOM     19  C   UNL     1     -12.914  15.309  73.410  0.00  0.00    +0.090 C 
ENDBRANCH  16  18
ENDBRANCH  15  16
ENDBRANCH  14  15
ENDBRANCH   1  14
TORSDOF 6
ENDMDL
MODEL 7
REMARK VINA RESULT:      -5.5      2.094      5.609
REMARK  Name = 
REMARK  6 active torsions:
REMARK  status: ('A' for Active; 'I' for Inactive)
REMARK    1  A    between atoms: N_2  and  C_4
REMARK    2  A    between atoms: C_4  and  C_5
REMARK    3  A    between atoms: C_5  and  O_6
REMARK    4  A    between atoms: O_6  and  C_7
REMARK    5  A    between atoms: C_7  and  C_8
REMARK    6  A    between atoms: C_7  and  C_14
REMARK                            x       y       z     vdW  Elec       q    Type
REMARK                         _______ _______ _______ _____ _____    ______ ____
ROOT
ATOM      1  C   UNL     1     -11.449  14.845  69.601  0.00  0.00    +0.160 C 
ENDROOT
BRANCH   1   2
ATOM      2  C   UNL     1     -12.303  15.231  70.766  0.00  0.00    +0.009 A 
ATOM      3  C   UNL     1     -11.718  16.099  71.681  0.00  0.00    -0.002 A 
ATOM      4  C   UNL     1     -12.243  16.134  72.963  0.00  0.00    -0.000 A 
ATOM      5  C   UNL     1     -12.879  15.018  73.489  0.00  0.00    -0.000 A 
ATOM      6  C   UNL     1     -13.428  14.103  72.599  0.00  0.00    -0.000 A 
ATOM      7  C   UNL     1     -13.243  14.322  71.240  0.00  0.00    -0.002 A 
ENDBRANCH   1   2
BRANCH   1   8
ATOM      8  C   UNL     1     -10.498  15.920  69.230  0.00  0.00    +0.009 A 
ATOM      9  C   UNL     1     -10.897  16.966  68.409  0.00  0.00    -0.002 A 
ATOM     10  C   UNL     1     -10.056  17.476  67.429  0.00  0.00    -0.000 A 
ATOM     11  C   UNL     1      -8.745  17.024  67.338  0.00  0.00    -0.000 A 
ATOM     12  C   UNL     1      -8.268  16.167  68.301  0.00  0.00    -0.000 A 
ATOM     13  C   UNL     1      -9.136  15.676  69.268  0.00  0.00    -0.002 A 
ENDBRANCH   1   8
BRANCH   1  14
ATOM     14  O   UNL     1     -12.224  14.435  68.532  0.00  0.00    -0.346 OA
BRANCH  14  15
ATOM     15  C   UNL     1     -11.613  13.477  67.740  0.00  0.00    +0.160 C 
BRANCH  15  16
ATOM     16  C   UNL     1     -12.086  13.545  66.314  0.00  0.00    +0.105 C 
BRANCH  16  18
ATOM     17  C   UNL     1     -10.921  11.478  65.889  0.00  0.00    +0.090 C 
ATOM     18  N   UNL     1     -12.159  12.227  65.692  0.00  0.00    -0.268 NA
ATOM     19  C   UNL     1     -12.268  12.474  64.256  0.00  0.00    +0.090 C 
ENDBRANCH  16  18
ENDBRANCH  15  16
ENDBRANCH  14  15
ENDBRANCH   1  14
TORSDOF 6
ENDMDL
MODEL 8
REMARK VINA RESULT:      -5.5      3.179      7.049
REMARK  Name = 
REMARK  6 active torsions:
REMARK  status: ('A' for Active; 'I' for Inactive)
REMARK    1  A    between atoms: N_2  and  C_4
REMARK    2  A    between atoms: C_4  and  C_5
REMARK    3  A    between atoms: C_5  and  O_6
REMARK    4  A    between atoms: O_6  and  C_7
REMARK    5  A    between atoms: C_7  and  C_8
REMARK    6  A    between atoms: C_7  and  C_14
REMARK                            x       y       z     vdW  Elec       q    Type
REMARK                         _______ _______ _______ _____ _____    ______ ____
ROOT
ATOM      1  C   UNL     1     -11.346  12.742  67.577  0.00  0.00    +0.160 C 
ENDROOT
BRANCH   1   2
ATOM      2  C   UNL     1     -11.816  13.982  68.269  0.00  0.00    +0.009 A 
ATOM      3  C   UNL     1     -11.211  15.166  67.862  0.00  0.00    -0.002 A 
ATOM      4  C   UNL     1     -11.249  16.242  68.733  0.00  0.00    -0.000 A 
ATOM      5  C   UNL     1     -11.337  16.031  70.103  0.00  0.00    -0.000 A 
ATOM      6  C   UNL     1     -11.889  14.833  70.542  0.00  0.00    -0.000 A 
ATOM      7  C   UNL     1     -12.251  13.892  69.586  0.00  0.00    -0.002 A 
ENDBRANCH   1   2
BRANCH   1   8
ATOM      8  C   UNL     1     -11.296  12.913  66.106  0.00  0.00    +0.009 A 
ATOM      9  C   UNL     1     -12.465  12.938  65.356  0.00  0.00    -0.002 A 
ATOM     10  C   UNL     1     -12.542  12.314  64.118  0.00  0.00    -0.000 A 
ATOM     11  C   UNL     1     -11.402  11.756  63.552  0.00  0.00    -0.000 A 
ATOM     12  C   UNL     1     -10.190  11.940  64.175  0.00  0.00    -0.000 A 
ATOM     13  C   UNL     1     -10.148  12.570  65.412  0.00  0.00    -0.002 A 
ENDBRANCH   1   8
BRANCH   1  14
ATOM     14  O   UNL     1     -12.100  11.647  67.956  0.00  0.00    -0.346 OA
BRANCH  14  15
ATOM     15  C   UNL     1     -11.340  10.527  68.249  0.00  0.00    +0.160 C 
BRANCH  15  16
ATOM     16  C   UNL     1     -10.908  10.504  69.690  0.00  0.00    +0.105 C 
BRANCH  16  18
ATOM     17  C   UNL     1     -12.698  10.607  71.301  0.00  0.00    +0.090 C 
ATOM     18  N   UNL     1     -11.819   9.733  70.529  0.00  0.00    -0.268 NA
ATOM     19  C   UNL     1     -10.973   9.040  71.496  0.00  0.00    +0.090 C 
ENDBRANCH  16  18
ENDBRANCH  15  16
ENDBRANCH  14  15
ENDBRANCH   1  14
TORSDOF 6
ENDMDL
MODEL 9
REMARK VINA RESULT:      -5.5      2.240      4.249
REMARK  Name = 
REMARK  6 active torsions:
REMARK  status: ('A' for Active; 'I' for Inactive)
REMARK    1  A    between atoms: N_2  and  C_4
REMARK    2  A    between atoms: C_4  and  C_5
REMARK    3  A    between atoms: C_5  and  O_6
REMARK    4  A    between atoms: O_6  and  C_7
REMARK    5  A    between atoms: C_7  and  C_8
REMARK    6  A    between atoms: C_7  and  C_14
REMARK                            x       y       z     vdW  Elec       q    Type
REMARK                         _______ _______ _______ _____ _____    ______ ____
ROOT
ATOM      1  C   UNL     1     -11.635  15.055  68.981  0.00  0.00    +0.160 C 
ENDROOT
BRANCH   1   2
ATOM      2  C   UNL     1     -10.392  15.826  68.673  0.00  0.00    +0.009 A 
ATOM      3  C   UNL     1     -10.585  17.081  68.107  0.00  0.00    -0.002 A 
ATOM      4  C   UNL     1      -9.534  17.637  67.396  0.00  0.00    -0.000 A 
ATOM      5  C   UNL     1      -8.594  16.820  66.782  0.00  0.00    -0.000 A 
ATOM      6  C   UNL     1      -8.415  15.539  67.291  0.00  0.00    -0.000 A 
ATOM      7  C   UNL     1      -9.236  15.131  68.335  0.00  0.00    -0.002 A 
ENDBRANCH   1   2
BRANCH   1   8
ATOM      8  C   UNL     1     -11.766  14.771  70.430  0.00  0.00    +0.009 A 
ATOM      9  C   UNL     1     -12.456  13.649  70.872  0.00  0.00    -0.002 A 
ATOM     10  C   UNL     1     -13.279  13.701  71.989  0.00  0.00    -0.000 A 
ATOM     11  C   UNL     1     -13.328  14.856  72.759  0.00  0.00    -0.000 A 
ATOM     12  C   UNL     1     -12.465  15.887  72.470  0.00  0.00    -0.000 A 
ATOM     13  C   UNL     1     -11.654  15.802  71.346  0.00  0.00    -0.002 A 
ENDBRANCH   1   8
BRANCH   1  14
ATOM     14  O   UNL     1     -11.712  13.910  68.210  0.00  0.00    -0.346 OA
BRANCH  14  15
ATOM     15  C   UNL     1     -12.258  14.124  66.955  0.00  0.00    +0.160 C 
BRANCH  15  16
ATOM     16  C   UNL     1     -12.012  12.962  66.032  0.00  0.00    +0.105 C 
BRANCH  16  18
ATOM     17  C   UNL     1     -12.150  12.199  63.749  0.00  0.00    +0.090 C 
ATOM     18  N   UNL     1     -12.678  13.128  64.744  0.00  0.00    -0.268 NA
ATOM     19  C   UNL     1     -12.322  14.469  64.287  0.00  0.00    +0.090 C 
ENDBRANCH  16  18
ENDBRANCH  15  16
ENDBRANCH  14  15
ENDBRANCH   1  14
TORSDOF 6
ENDMDL
