MODEL 1
REMARK VINA RESULT:      -5.1      0.000      0.000
REMARK  Name = 
REMARK  1 active torsions:
REMARK  status: ('A' for Active; 'I' for Inactive)
REMARK    1  A    between atoms: C_3  and  C_4
REMARK                            x       y       z     vdW  Elec       q    Type
REMARK                         _______ _______ _______ _____ _____    ______ ____
ROOT
ATOM      1  C   UNL     1     -10.358  15.281  66.733  0.00  0.00    +0.020 C 
ATOM      2  C   UNL     1     -10.299  13.695  66.293  0.00  0.00    +0.089 C 
ATOM      3  N   UNL     1     -10.540  14.060  64.776  0.00  0.00    -0.268 NA
ATOM      4  C   UNL     1     -11.634  14.959  64.715  0.00  0.00    +0.090 C 
ATOM      5  C   UNL     1     -10.775  12.775  64.148  0.00  0.00    +0.105 C 
ATOM      6  C   UNL     1     -11.039  11.826  65.276  0.00  0.00    +0.160 C 
ATOM      7  O   UNL     1     -12.103  12.093  66.018  0.00  0.00    -0.349 OA
ATOM      8  C   UNL     1     -12.019  13.509  66.616  0.00  0.00    +0.152 C 
ENDROOT
BRANCH   8   9
ATOM      9  C   UNL     1     -11.702  12.974  68.135  0.00  0.00    +0.006 A 
ATOM     10  C   UNL     1     -11.498  11.678  68.351  0.00  0.00    -0.002 A 
ATOM     11  C   UNL     1     -11.597  11.220  69.663  0.00  0.00    -0.000 A 
ATOM     12  C   UNL     1     -12.284  12.018  70.570  0.00  0.00    -0.000 A 
ATOM     13  C   UNL     1     -12.146  13.391  70.394  0.00  0.00    -0.000 A 
ATOM     14  C   UNL     1     -11.967  13.898  69.111  0.00  0.00    -0.002 A 
ENDBRANCH   8   9
TORSDOF 1
ENDMDL
MODEL 2
REMARK VINA RESULT:      -5.1      2.416      3.769
REMARK  Name = 
REMARK  1 active torsions:
REMARK  status: ('A' for Active; 'I' for Inactive)
REMARK    1  A    between atoms: C_3  and  C_4
REMARK                            x       y       z     vdW  Elec       q    Type
REMARK                         _______ _______ _______ _____ _____    ______ ____
ROOT
ATOM      1  C   UNL     1     -11.711  13.051  67.587  0.00  0.00    +0.020 C 
ATOM      2  C   UNL     1     -11.788  14.668  67.889  0.00  0.00    +0.089 C 
ATOM      3  N   UNL     1     -10.522  14.943  66.987  0.00  0.00    -0.268 NA
ATOM      4  C   UNL     1      -9.515  14.016  67.357  0.00  0.00    +0.090 C 
ATOM      5  C   UNL     1     -10.201  16.330  67.260  0.00  0.00    +0.105 C 
ATOM      6  C   UNL     1     -10.968  16.676  68.500  0.00  0.00    +0.160 C 
ATOM      7  O   UNL     1     -10.653  15.985  69.585  0.00  0.00    -0.349 OA
ATOM      8  C   UNL     1     -10.819  14.474  69.345  0.00  0.00    +0.152 C 
ENDROOT
BRANCH   8   9
ATOM      9  C   UNL     1     -12.176  14.361  70.264  0.00  0.00    +0.006 A 
ATOM     10  C   UNL     1     -12.786  15.466  70.682  0.00  0.00    -0.002 A 
ATOM     11  C   UNL     1     -13.691  15.343  71.734  0.00  0.00    -0.000 A 
ATOM     12  C   UNL     1     -13.598  14.207  72.529  0.00  0.00    -0.000 A 
ATOM     13  C   UNL     1     -13.240  13.035  71.872  0.00  0.00    -0.000 A 
ATOM     14  C   UNL     1     -12.399  13.106  70.766  0.00  0.00    -0.002 A 
ENDBRANCH   8   9
TORSDOF 1
ENDMDL
MODEL 3
REMARK VINA RESULT:      -5.0      3.031      5.255
REMARK  Name = 
REMARK  1 active torsions:
REMARK  status: ('A' for Active; 'I' for Inactive)
REMARK    1  A    between atoms: C_3  and  C_4
REMARK                            x       y       z     vdW  Elec       q    Type
REMARK                         _______ _______ _______ _____ _____    ______ ____
ROOT
ATOM      1  C   UNL     1     -10.691  15.058  68.771  0.00  0.00    +0.020 C 
ATOM      2  C   UNL     1     -11.048  15.372  67.194  0.00  0.00    +0.089 C 
ATOM      3  N   UNL     1     -10.607  13.922  66.756  0.00  0.00    -0.268 NA
ATOM      4  C   UNL     1      -9.345  13.656  67.346  0.00  0.00    +0.090 C 
ATOM      5  C   UNL     1     -10.598  13.988  65.309  0.00  0.00    +0.105 C 
ATOM      6  C   UNL     1     -10.639  15.449  64.980  0.00  0.00    +0.160 C 
ATOM      7  O   UNL     1      -9.609  16.166  65.406  0.00  0.00    -0.349 OA
ATOM      8  C   UNL     1      -9.441  16.039  66.931  0.00  0.00    +0.152 C 
ENDROOT
BRANCH   8   9
ATOM      9  C   UNL     1      -9.992  17.557  67.232  0.00  0.00    +0.006 A 
ATOM     10  C   UNL     1     -10.436  18.311  66.231  0.00  0.00    -0.002 A 
ATOM     11  C   UNL     1     -10.547  19.681  66.458  0.00  0.00    -0.000 A 
ATOM     12  C   UNL     1      -9.825  20.215  67.518  0.00  0.00    -0.000 A 
ATOM     13  C   UNL     1      -9.708  19.403  68.641  0.00  0.00    -0.000 A 
ATOM     14  C   UNL     1      -9.671  18.021  68.480  0.00  0.00    -0.002 A 
ENDBRANCH   8   9
TORSDOF 1
ENDMDL
MODEL 4
REMARK VINA RESULT:      -4.9      3.253      5.691
REMARK  Name = 
REMARK  1 active torsions:
REMARK  status: ('A' for Active; 'I' for Inactive)
REMARK    1  A    between atoms: C_3  and  C_4
REMARK                            x       y       z     vdW  Elec       q    Type
REMARK                         _______ _______ _______ _____ _____    ______ ____
ROOT
ATOM      1  C   UNL     1      -9.091  14.940  66.755  0.00  0.00    +0.020 C 
ATOM      2  C   UNL     1      -9.655  15.410  68.229  0.00  0.00    +0.089 C 
ATOM      3  N   UNL     1     -10.425  14.045  68.420  0.00  0.00    -0.268 NA
ATOM      4  C   UNL     1     -11.153  13.787  67.231  0.00  0.00    +0.090 C 
ATOM      5  C   UNL     1     -11.243  14.275  69.595  0.00  0.00    +0.105 C 
ATOM      6  C   UNL     1     -11.232  15.759  69.799  0.00  0.00    +0.160 C 
ATOM      7  O   UNL     1     -11.753  16.481  68.818  0.00  0.00    -0.349 OA
ATOM      8  C   UNL     1     -11.043  16.193  67.483  0.00  0.00    +0.152 C 
ENDROOT
BRANCH   8   9
ATOM      9  C   UNL     1     -10.253  17.633  67.462  0.00  0.00    +0.006 A 
ATOM     10  C   UNL     1      -9.943  18.235  68.606  0.00  0.00    -0.002 A 
ATOM     11  C   UNL     1      -9.614  19.587  68.553  0.00  0.00    -0.000 A 
ATOM     12  C   UNL     1     -10.018  20.301  67.431  0.00  0.00    -0.000 A 
ATOM     13  C   UNL     1      -9.993  19.603  66.228  0.00  0.00    -0.000 A 
ATOM     14  C   UNL     1     -10.238  18.234  66.231  0.00  0.00    -0.002 A 
ENDBRANCH   8   9
TORSDOF 1
ENDMDL
MODEL 5
REMARK VINA RESULT:      -4.8      1.344      2.535
REMARK  Name = 
REMARK  1 active torsions:
REMARK  status: ('A' for Active; 'I' for Inactive)
REMARK    1  A    between atoms: C_3  and  C_4
REMARK                            x       y       z     vdW  Elec       q    Type
REMARK                         _______ _______ _______ _____ _____    ______ ____
ROOT
ATOM      1  C   UNL     1     -12.450  12.906  65.383  0.00  0.00    +0.020 C 
ATOM      2  C   UNL     1     -12.070  14.158  66.383  0.00  0.00    +0.089 C 
ATOM      3  N   UNL     1     -11.202  14.850  65.262  0.00  0.00    -0.268 NA
ATOM      4  C   UNL     1     -10.347  13.866  64.705  0.00  0.00    +0.090 C 
ATOM      5  C   UNL     1     -10.520  15.918  65.967  0.00  0.00    +0.105 C 
ATOM      6  C   UNL     1     -10.682  15.598  67.421  0.00  0.00    +0.160 C 
ATOM      7  O   UNL     1     -10.139  14.459  67.826  0.00  0.00    -0.349 OA
ATOM      8  C   UNL     1     -10.694  13.267  67.025  0.00  0.00    +0.152 C 
ENDROOT
BRANCH   8   9
ATOM      9  C   UNL     1     -11.605  12.707  68.272  0.00  0.00    +0.006 A 
ATOM     10  C   UNL     1     -11.879  13.502  69.302  0.00  0.00    -0.002 A 
ATOM     11  C   UNL     1     -12.325  12.903  70.477  0.00  0.00    -0.000 A 
ATOM     12  C   UNL     1     -12.070  11.547  70.642  0.00  0.00    -0.000 A 
ATOM     13  C   UNL     1     -12.125  10.776  69.486  0.00  0.00    -0.000 A 
ATOM     14  C   UNL     1     -11.764  11.346  68.269  0.00  0.00    -0.002 A 
ENDBRANCH   8   9
TORSDOF 1
ENDMDL
MODEL 6
REMARK VINA RESULT:      -4.8      1.529      2.040
REMARK  Name = 
REMARK  1 active torsions:
REMARK  status: ('A' for Active; 'I' for Inactive)
REMARK    1  A    between atoms: C_3  and  C_4
REMARK                            x       y       z     vdW  Elec       q    Type
REMARK                         _______ _______ _______ _____ _____    ______ ____
ROOT
ATOM      1  C   UNL     1      -9.587  14.030  68.300  0.00  0.00    +0.020 C 
ATOM      2  C   UNL     1      -9.954  12.427  68.206  0.00  0.00    +0.089 C 
ATOM      3  N   UNL     1      -9.702  12.415  66.647  0.00  0.00    -0.268 NA
ATOM      4  C   UNL     1     -10.392  13.520  66.087  0.00  0.00    +0.090 C 
ATOM      5  C   UNL     1     -10.196  11.117  66.231  0.00  0.00    +0.105 C 
ATOM      6  C   UNL     1     -11.013  10.617  67.383  0.00  0.00    +0.160 C 
ATOM      7  O   UNL     1     -12.070  11.348  67.701  0.00  0.00    -0.349 OA
ATOM      8  C   UNL     1     -11.664  12.799  68.018  0.00  0.00    +0.152 C 
ENDROOT
BRANCH   8   9
ATOM      9  C   UNL     1     -11.904  12.634  69.634  0.00  0.00    +0.006 A 
ATOM     10  C   UNL     1     -12.094  11.426  70.155  0.00  0.00    -0.002 A 
ATOM     11  C   UNL     1     -12.647  11.355  71.432  0.00  0.00    -0.000 A 
ATOM     12  C   UNL     1     -13.328  12.473  71.898  0.00  0.00    -0.000 A 
ATOM     13  C   UNL     1     -12.810  13.703  71.507  0.00  0.00    -0.000 A 
ATOM     14  C   UNL     1     -12.178  13.815  70.273  0.00  0.00    -0.002 A 
ENDBRANCH   8   9
TORSDOF 1
ENDMDL
MODEL 7
REMARK VINA RESULT:      -4.8      2.084      2.956
REMARK  Name = 
REMARK  1 active torsions:
REMARK  status: ('A' for Active; 'I' for Inactive)
REMARK    1  A    between atoms: C_3  and  C_4
REMARK                            x       y       z     vdW  Elec       q    Type
REMARK                         _______ _______ _______ _____ _____    ______ ____
ROOT
ATOM      1  C   UNL     1      -9.187  15.661  69.121  0.00  0.00    +0.020 C 
ATOM      2  C   UNL     1     -10.078  14.326  68.753  0.00  0.00    +0.089 C 
ATOM      3  N   UNL     1      -9.844  14.539  67.207  0.00  0.00    -0.268 NA
ATOM      4  C   UNL     1     -10.116  15.899  66.910  0.00  0.00    +0.090 C 
ATOM      5  C   UNL     1     -10.750  13.591  66.589  0.00  0.00    +0.105 C 
ATOM      6  C   UNL     1     -11.690  13.175  67.678  0.00  0.00    +0.160 C 
ATOM      7  O   UNL     1     -12.435  14.139  68.197  0.00  0.00    -0.349 OA
ATOM      8  C   UNL     1     -11.559  15.277  68.752  0.00  0.00    +0.152 C 
ENDROOT
BRANCH   8   9
ATOM      9  C   UNL     1     -11.843  14.885  70.321  0.00  0.00    +0.006 A 
ATOM     10  C   UNL     1     -12.442  13.735  70.619  0.00  0.00    -0.002 A 
ATOM     11  C   UNL     1     -12.985  13.604  71.894  0.00  0.00    -0.000 A 
ATOM     12  C   UNL     1     -13.236  14.770  72.607  0.00  0.00    -0.000 A 
ATOM     13  C   UNL     1     -12.323  15.802  72.419  0.00  0.00    -0.000 A 
ATOM     14  C   UNL     1     -11.690  15.935  71.187  0.00  0.00    -0.002 A 
ENDBRANCH   8   9
TORSDOF 1
ENDMDL
MODEL 8
REMARK VINA RESULT:      -4.7      2.892      4.585
REMARK  Name = 
REMARK  1 active torsions:
REMARK  status: ('A' for Active; 'I' for Inactive)
REMARK    1  A    between atoms: C_3  and  C_4
REMARK                            x       y       z     vdW  Elec       q    Type
REMARK                         _______ _______ _______ _____ _____    ______ ____
ROOT
ATOM      1  C   UNL     1     -10.601  15.204  69.000  0.00  0.00    +0.020 C 
ATOM      2  C   UNL     1      -9.441  15.368  67.842  0.00  0.00    +0.089 C 
ATOM      3  N   UNL     1      -8.994  16.766  68.422  0.00  0.00    -0.268 NA
ATOM      4  C   UNL     1     -10.161  17.544  68.628  0.00  0.00    +0.090 C 
ATOM      5  C   UNL     1      -8.090  17.282  67.414  0.00  0.00    +0.105 C 
ATOM      6  C   UNL     1      -8.326  16.435  66.201  0.00  0.00    +0.160 C 
ATOM      7  O   UNL     1      -9.546  16.487  65.689  0.00  0.00    -0.349 OA
ATOM      8  C   UNL     1     -10.603  16.096  66.738  0.00  0.00    +0.152 C 
ENDROOT
BRANCH   8   9
ATOM      9  C   UNL     1     -10.908  14.635  66.054  0.00  0.00    +0.006 A 
ATOM     10  C   UNL     1     -10.070  14.139  65.148  0.00  0.00    -0.002 A 
ATOM     11  C   UNL     1     -10.534  13.104  64.340  0.00  0.00    -0.000 A 
ATOM     12  C   UNL     1     -11.910  12.938  64.238  0.00  0.00    -0.000 A 
ATOM     13  C   UNL     1     -12.639  13.206  65.392  0.00  0.00    -0.000 A 
ATOM     14  C   UNL     1     -12.181  14.178  66.276  0.00  0.00    -0.002 A 
ENDBRANCH   8   9
TORSDOF 1
ENDMDL
MODEL 9
REMARK VINA RESULT:      -4.6      2.105      4.370
REMARK  Name = 
REMARK  1 active torsions:
REMARK  status: ('A' for Active; 'I' for Inactive)
REMARK    1  A    between atoms: C_3  and  C_4
REMARK                            x       y       z     vdW  Elec       q    Type
REMARK                         _______ _______ _______ _____ _____    ______ ____
ROOT
ATOM      1  C   UNL     1     -12.091  12.834  63.637  0.00  0.00    +0.020 C 
ATOM      2  C   UNL     1     -12.058  12.522  65.253  0.00  0.00    +0.089 C 
ATOM      3  N   UNL     1     -12.286  14.045  65.599  0.00  0.00    -0.268 NA
ATOM      4  C   UNL     1     -11.377  14.807  64.822  0.00  0.00    +0.090 C 
ATOM      5  C   UNL     1     -12.062  14.108  67.030  0.00  0.00    +0.105 C 
ATOM      6  C   UNL     1     -11.380  12.822  67.381  0.00  0.00    +0.160 C 
ATOM      7  O   UNL     1     -10.199  12.621  66.814  0.00  0.00    -0.349 OA
ATOM      8  C   UNL     1     -10.306  12.684  65.279  0.00  0.00    +0.152 C 
ENDROOT
BRANCH   8   9
ATOM      9  C   UNL     1     -10.125  11.064  65.085  0.00  0.00    +0.006 A 
ATOM     10  C   UNL     1     -10.215  10.257  66.138  0.00  0.00    -0.002 A 
ATOM     11  C   UNL     1      -9.706   8.967  66.006  0.00  0.00    -0.000 A 
ATOM     12  C   UNL     1      -8.798   8.739  64.979  0.00  0.00    -0.000 A 
ATOM     13  C   UNL     1      -9.024   9.446  63.803  0.00  0.00    -0.000 A 
ATOM     14  C   UNL     1      -9.602  10.710  63.869  0.00  0.00    -0.002 A 
ENDBRANCH   8   9
TORSDOF 1
ENDMDL
