MODEL 1
REMARK VINA RESULT:      -6.7      0.000      0.000
REMARK  Name = 
REMARK  4 active torsions:
REMARK  status: ('A' for Active; 'I' for Inactive)
REMARK    1  A    between atoms: C_2  and  C_4
REMARK    2  A    between atoms: C_4  and  C_5
REMARK    3  A    between atoms: C_9  and  C_10
REMARK    4  A    between atoms: C_10  and  C_12
REMARK                            x       y       z     vdW  Elec       q    Type
REMARK                         _______ _______ _______ _____ _____    ______ ____
ROOT
ATOM      1  C   UNL     1     -12.204  14.714  70.726  0.00  0.00    +0.004 A 
ATOM      2  C   UNL     1     -11.751  14.945  69.435  0.00  0.00    +0.089 A 
ATOM      3  N   UNL     1     -11.837  16.295  68.969  0.00  0.00    -0.128 NA
ATOM      4  C   UNL     1     -11.387  13.900  68.593  0.00  0.00    +0.055 A 
ATOM      5  C   UNL     1     -11.338  12.627  69.139  0.00  0.00    +0.005 A 
ATOM      6  C   UNL     1     -12.118  12.399  70.260  0.00  0.00    -0.000 A 
ATOM      7  C   UNL     1     -12.600  13.422  71.055  0.00  0.00    -0.002 A 
ENDROOT
BRANCH   4   8
ATOM      8  C   UNL     1     -10.888  14.192  67.245  0.00  0.00    +0.197 C 
ATOM      9  O   UNL     1      -9.782  14.806  67.152  0.00  0.00    -0.287 OA
BRANCH   8  10
ATOM     10  C   UNL     1     -11.259  13.373  66.094  0.00  0.00    +0.039 A 
ATOM     11  C   UNL     1     -10.228  13.083  65.208  0.00  0.00    +0.003 A 
ATOM     12  C   UNL     1     -10.530  12.547  63.963  0.00  0.00    +0.000 A 
ATOM     13  C   UNL     1     -11.817  12.092  63.703  0.00  0.00    +0.000 A 
ATOM     14  C   UNL     1     -12.813  12.589  64.532  0.00  0.00    +0.000 A 
ATOM     15  C   UNL     1     -12.509  13.535  65.505  0.00  0.00    +0.003 A 
ENDBRANCH   8  10
ENDBRANCH   4   8
BRANCH   1  16
ATOM     16  C   UNL     1     -12.069  15.791  71.748  0.00  0.00    +0.116 C 
BRANCH  16  18
ATOM     17  N   UNL     1     -12.564  15.525  74.171  0.00  0.00    -0.087 NA
ATOM     18  C   UNL     1     -13.069  15.583  72.838  0.00  0.00    +0.265 C 
ATOM     19  O   UNL     1     -14.230  16.062  72.693  0.00  0.00    -0.271 OA
ENDBRANCH  16  18
ENDBRANCH   1  16
TORSDOF 4
ENDMDL
MODEL 2
REMARK VINA RESULT:      -6.4      4.351      6.735
REMARK  Name = 
REMARK  4 active torsions:
REMARK  status: ('A' for Active; 'I' for Inactive)
REMARK    1  A    between atoms: C_2  and  C_4
REMARK    2  A    between atoms: C_4  and  C_5
REMARK    3  A    between atoms: C_9  and  C_10
REMARK    4  A    between atoms: C_10  and  C_12
REMARK                            x       y       z     vdW  Elec       q    Type
REMARK                         _______ _______ _______ _____ _____    ______ ____
ROOT
ATOM      1  C   UNL     1     -10.571  14.759  66.675  0.00  0.00    +0.004 A 
ATOM      2  C   UNL     1     -10.272  16.112  66.604  0.00  0.00    +0.089 A 
ATOM      3  N   UNL     1      -9.556  16.540  65.442  0.00  0.00    -0.128 NA
ATOM      4  C   UNL     1     -10.514  16.968  67.673  0.00  0.00    +0.055 A 
ATOM      5  C   UNL     1     -11.212  16.457  68.756  0.00  0.00    +0.005 A 
ATOM      6  C   UNL     1     -11.160  15.085  68.939  0.00  0.00    -0.000 A 
ATOM      7  C   UNL     1     -10.806  14.210  67.930  0.00  0.00    -0.002 A 
ENDROOT
BRANCH   4   8
ATOM      8  C   UNL     1     -10.208  18.397  67.545  0.00  0.00    +0.197 C 
ATOM      9  O   UNL     1     -11.186  19.202  67.509  0.00  0.00    -0.287 OA
BRANCH   8  10
ATOM     10  C   UNL     1      -8.941  18.956  68.009  0.00  0.00    +0.039 A 
ATOM     11  C   UNL     1      -8.509  20.095  67.340  0.00  0.00    +0.003 A 
ATOM     12  C   UNL     1      -7.206  20.539  67.523  0.00  0.00    +0.000 A 
ATOM     13  C   UNL     1      -6.426  19.990  68.533  0.00  0.00    +0.000 A 
ATOM     14  C   UNL     1      -6.836  18.752  69.009  0.00  0.00    +0.000 A 
ATOM     15  C   UNL     1      -7.925  18.106  68.434  0.00  0.00    +0.003 A 
ENDBRANCH   8  10
ENDBRANCH   4   8
BRANCH   1  16
ATOM     16  C   UNL     1     -10.815  14.001  65.415  0.00  0.00    +0.116 C 
BRANCH  16  18
ATOM     17  N   UNL     1     -12.555  15.083  64.004  0.00  0.00    -0.087 NA
ATOM     18  C   UNL     1     -12.250  14.127  65.018  0.00  0.00    +0.265 C 
ATOM     19  O   UNL     1     -12.983  13.098  65.064  0.00  0.00    -0.271 OA
ENDBRANCH  16  18
ENDBRANCH   1  16
TORSDOF 4
ENDMDL
MODEL 3
REMARK VINA RESULT:      -6.2      3.826      6.457
REMARK  Name = 
REMARK  4 active torsions:
REMARK  status: ('A' for Active; 'I' for Inactive)
REMARK    1  A    between atoms: C_2  and  C_4
REMARK    2  A    between atoms: C_4  and  C_5
REMARK    3  A    between atoms: C_9  and  C_10
REMARK    4  A    between atoms: C_10  and  C_12
REMARK                            x       y       z     vdW  Elec       q    Type
REMARK                         _______ _______ _______ _____ _____    ______ ____
ROOT
ATOM      1  C   UNL     1     -10.057  13.728  65.666  0.00  0.00    +0.004 A 
ATOM      2  C   UNL     1     -10.431  14.995  66.090  0.00  0.00    +0.089 A 
ATOM      3  N   UNL     1     -10.760  15.933  65.060  0.00  0.00    -0.128 NA
ATOM      4  C   UNL     1     -10.336  15.374  67.425  0.00  0.00    +0.055 A 
ATOM      5  C   UNL     1     -10.006  14.393  68.346  0.00  0.00    +0.005 A 
ATOM      6  C   UNL     1      -9.310  13.296  67.865  0.00  0.00    -0.000 A 
ATOM      7  C   UNL     1      -9.282  12.957  66.526  0.00  0.00    -0.002 A 
ENDROOT
BRANCH   4   8
ATOM      8  C   UNL     1     -10.768  16.715  67.833  0.00  0.00    +0.197 C 
ATOM      9  O   UNL     1     -11.556  16.798  68.822  0.00  0.00    -0.287 OA
BRANCH   8  10
ATOM     10  C   UNL     1      -9.956  17.899  67.565  0.00  0.00    +0.039 A 
ATOM     11  C   UNL     1      -8.778  17.993  68.298  0.00  0.00    +0.003 A 
ATOM     12  C   UNL     1      -8.081  19.195  68.314  0.00  0.00    +0.000 A 
ATOM     13  C   UNL     1      -8.431  20.206  67.427  0.00  0.00    +0.000 A 
ATOM     14  C   UNL     1      -9.707  20.124  66.888  0.00  0.00    +0.000 A 
ATOM     15  C   UNL     1     -10.575  19.114  67.292  0.00  0.00    +0.003 A 
ENDBRANCH   8  10
ENDBRANCH   4   8
BRANCH   1  16
ATOM     16  C   UNL     1     -10.648  13.175  64.414  0.00  0.00    +0.116 C 
BRANCH  16  18
ATOM     17  N   UNL     1     -12.796  12.276  63.539  0.00  0.00    -0.087 NA
ATOM     18  C   UNL     1     -12.058  12.748  64.664  0.00  0.00    +0.265 C 
ATOM     19  O   UNL     1     -12.346  12.238  65.785  0.00  0.00    -0.271 OA
ENDBRANCH  16  18
ENDBRANCH   1  16
TORSDOF 4
ENDMDL
MODEL 4
REMARK VINA RESULT:      -6.2      3.647      4.716
REMARK  Name = 
REMARK  4 active torsions:
REMARK  status: ('A' for Active; 'I' for Inactive)
REMARK    1  A    between atoms: C_2  and  C_4
REMARK    2  A    between atoms: C_4  and  C_5
REMARK    3  A    between atoms: C_9  and  C_10
REMARK    4  A    between atoms: C_10  and  C_12
REMARK                            x       y       z     vdW  Elec       q    Type
REMARK                         _______ _______ _______ _____ _____    ______ ____
ROOT
ATOM      1  C   UNL     1     -10.293  16.705  67.055  0.00  0.00    +0.004 A 
ATOM      2  C   UNL     1     -10.828  15.705  66.256  0.00  0.00    +0.089 A 
ATOM      3  N   UNL     1     -10.669  15.873  64.844  0.00  0.00    -0.128 NA
ATOM      4  C   UNL     1     -11.611  14.687  66.790  0.00  0.00    +0.055 A 
ATOM      5  C   UNL     1     -11.707  14.612  68.171  0.00  0.00    +0.005 A 
ATOM      6  C   UNL     1     -11.484  15.783  68.875  0.00  0.00    -0.000 A 
ATOM      7  C   UNL     1     -10.814  16.864  68.335  0.00  0.00    -0.002 A 
ENDROOT
BRANCH   4   8
ATOM      8  C   UNL     1     -12.134  13.635  65.912  0.00  0.00    +0.197 C 
ATOM      9  O   UNL     1     -13.156  13.911  65.215  0.00  0.00    -0.287 OA
BRANCH   8  10
ATOM     10  C   UNL     1     -11.277  12.572  65.392  0.00  0.00    +0.039 A 
ATOM     11  C   UNL     1     -11.360  12.355  64.022  0.00  0.00    +0.003 A 
ATOM     12  C   UNL     1     -10.797  11.207  63.479  0.00  0.00    +0.000 A 
ATOM     13  C   UNL     1      -9.966  10.412  64.259  0.00  0.00    +0.000 A 
ATOM     14  C   UNL     1     -10.093  10.570  65.632  0.00  0.00    +0.000 A 
ATOM     15  C   UNL     1     -11.054  11.430  66.154  0.00  0.00    +0.003 A 
ENDBRANCH   8  10
ENDBRANCH   4   8
BRANCH   1  16
ATOM     16  C   UNL     1      -9.074  17.430  66.595  0.00  0.00    +0.116 C 
BRANCH  16  18
ATOM     17  N   UNL     1      -8.279  19.783  66.470  0.00  0.00    -0.087 NA
ATOM     18  C   UNL     1      -9.383  18.881  66.420  0.00  0.00    +0.265 C 
ATOM     19  O   UNL     1     -10.349  19.209  65.673  0.00  0.00    -0.271 OA
ENDBRANCH  16  18
ENDBRANCH   1  16
TORSDOF 4
ENDMDL
MODEL 5
REMARK VINA RESULT:      -6.1      2.296      3.170
REMARK  Name = 
REMARK  4 active torsions:
REMARK  status: ('A' for Active; 'I' for Inactive)
REMARK    1  A    between atoms: C_2  and  C_4
REMARK    2  A    between atoms: C_4  and  C_5
REMARK    3  A    between atoms: C_9  and  C_10
REMARK    4  A    between atoms: C_10  and  C_12
REMARK                            x       y       z     vdW  Elec       q    Type
REMARK                         _______ _______ _______ _____ _____    ______ ____
ROOT
ATOM      1  C   UNL     1     -11.571  13.892  69.088  0.00  0.00    +0.004 A 
ATOM      2  C   UNL     1     -11.791  12.993  68.055  0.00  0.00    +0.089 A 
ATOM      3  N   UNL     1     -12.039  11.637  68.440  0.00  0.00    -0.128 NA
ATOM      4  C   UNL     1     -11.621  13.358  66.723  0.00  0.00    +0.055 A 
ATOM      5  C   UNL     1     -11.379  14.695  66.453  0.00  0.00    +0.005 A 
ATOM      6  C   UNL     1     -10.822  15.446  67.474  0.00  0.00    -0.000 A 
ATOM      7  C   UNL     1     -10.866  15.055  68.799  0.00  0.00    -0.002 A 
ENDROOT
BRANCH   4   8
ATOM      8  C   UNL     1     -11.890  12.382  65.661  0.00  0.00    +0.197 C 
ATOM      9  O   UNL     1     -12.942  12.546  64.972  0.00  0.00    -0.287 OA
BRANCH   8  10
ATOM     10  C   UNL     1     -10.816  11.633  65.015  0.00  0.00    +0.039 A 
ATOM     11  C   UNL     1     -10.806  11.682  63.626  0.00  0.00    +0.003 A 
ATOM     12  C   UNL     1      -9.999  10.798  62.920  0.00  0.00    +0.000 A 
ATOM     13  C   UNL     1      -9.049  10.042  63.595  0.00  0.00    +0.000 A 
ATOM     14  C   UNL     1      -9.252   9.895  64.961  0.00  0.00    +0.000 A 
ATOM     15  C   UNL     1     -10.387  10.429  65.562  0.00  0.00    +0.003 A 
ENDBRANCH   8  10
ENDBRANCH   4   8
BRANCH   1  16
ATOM     16  C   UNL     1     -12.251  13.676  70.397  0.00  0.00    +0.116 C 
BRANCH  16  18
ATOM     17  N   UNL     1     -13.585  15.601  71.237  0.00  0.00    -0.087 NA
ATOM     18  C   UNL     1     -12.312  14.963  71.155  0.00  0.00    +0.265 C 
ATOM     19  O   UNL     1     -11.533  15.123  72.138  0.00  0.00    -0.271 OA
ENDBRANCH  16  18
ENDBRANCH   1  16
TORSDOF 4
ENDMDL
MODEL 6
REMARK VINA RESULT:      -6.1      2.418      6.578
REMARK  Name = 
REMARK  4 active torsions:
REMARK  status: ('A' for Active; 'I' for Inactive)
REMARK    1  A    between atoms: C_2  and  C_4
REMARK    2  A    between atoms: C_4  and  C_5
REMARK    3  A    between atoms: C_9  and  C_10
REMARK    4  A    between atoms: C_10  and  C_12
REMARK                            x       y       z     vdW  Elec       q    Type
REMARK                         _______ _______ _______ _____ _____    ______ ____
ROOT
ATOM      1  C   UNL     1     -10.719  13.093  66.609  0.00  0.00    +0.004 A 
ATOM      2  C   UNL     1     -10.982  14.228  67.362  0.00  0.00    +0.089 A 
ATOM      3  N   UNL     1     -10.571  15.473  66.789  0.00  0.00    -0.128 NA
ATOM      4  C   UNL     1     -11.471  14.144  68.661  0.00  0.00    +0.055 A 
ATOM      5  C   UNL     1     -11.838  12.891  69.126  0.00  0.00    +0.005 A 
ATOM      6  C   UNL     1     -11.239  11.800  68.517  0.00  0.00    -0.000 A 
ATOM      7  C   UNL     1     -10.636  11.875  67.276  0.00  0.00    -0.002 A 
ENDROOT
BRANCH   4   8
ATOM      8  C   UNL     1     -11.761  15.371  69.410  0.00  0.00    +0.197 C 
ATOM      9  O   UNL     1     -12.078  16.401  68.743  0.00  0.00    -0.287 OA
BRANCH   8  10
ATOM     10  C   UNL     1     -12.242  15.334  70.789  0.00  0.00    +0.039 A 
ATOM     11  C   UNL     1     -13.610  15.144  70.941  0.00  0.00    +0.003 A 
ATOM     12  C   UNL     1     -14.194  15.360  72.183  0.00  0.00    +0.000 A 
ATOM     13  C   UNL     1     -13.389  15.534  73.302  0.00  0.00    +0.000 A 
ATOM     14  C   UNL     1     -12.076  15.909  73.050  0.00  0.00    +0.000 A 
ATOM     15  C   UNL     1     -11.654  16.153  71.748  0.00  0.00    +0.003 A 
ENDBRANCH   8  10
ENDBRANCH   4   8
BRANCH   1  16
ATOM     16  C   UNL     1     -10.728  13.187  65.121  0.00  0.00    +0.116 C 
BRANCH  16  18
ATOM     17  N   UNL     1     -13.115  12.638  64.689  0.00  0.00    -0.087 NA
ATOM     18  C   UNL     1     -11.748  12.252  64.560  0.00  0.00    +0.265 C 
ATOM     19  O   UNL     1     -11.446  11.569  63.539  0.00  0.00    -0.271 OA
ENDBRANCH  16  18
ENDBRANCH   1  16
TORSDOF 4
ENDMDL
MODEL 7
REMARK VINA RESULT:      -6.0      3.785      6.533
REMARK  Name = 
REMARK  4 active torsions:
REMARK  status: ('A' for Active; 'I' for Inactive)
REMARK    1  A    between atoms: C_2  and  C_4
REMARK    2  A    between atoms: C_4  and  C_5
REMARK    3  A    between atoms: C_9  and  C_10
REMARK    4  A    between atoms: C_10  and  C_12
REMARK                            x       y       z     vdW  Elec       q    Type
REMARK                         _______ _______ _______ _____ _____    ______ ____
ROOT
ATOM      1  C   UNL     1     -11.380  13.096  66.485  0.00  0.00    +0.004 A 
ATOM      2  C   UNL     1     -10.959  11.949  67.142  0.00  0.00    +0.089 A 
ATOM      3  N   UNL     1     -10.766  10.789  66.325  0.00  0.00    -0.128 NA
ATOM      4  C   UNL     1     -10.884  11.889  68.529  0.00  0.00    +0.055 A 
ATOM      5  C   UNL     1     -11.092  13.066  69.231  0.00  0.00    +0.005 A 
ATOM      6  C   UNL     1     -11.840  14.045  68.599  0.00  0.00    -0.000 A 
ATOM      7  C   UNL     1     -12.037  14.068  67.231  0.00  0.00    -0.002 A 
ENDROOT
BRANCH   4   8
ATOM      8  C   UNL     1     -10.407  10.665  69.180  0.00  0.00    +0.197 C 
ATOM      9  O   UNL     1      -9.153  10.515  69.293  0.00  0.00    -0.287 OA
BRANCH   8  10
ATOM     10  C   UNL     1     -11.224   9.943  70.152  0.00  0.00    +0.039 A 
ATOM     11  C   UNL     1     -12.466  10.504  70.423  0.00  0.00    +0.003 A 
ATOM     12  C   UNL     1     -13.195  10.050  71.515  0.00  0.00    +0.000 A 
ATOM     13  C   UNL     1     -12.794   8.898  72.180  0.00  0.00    +0.000 A 
ATOM     14  C   UNL     1     -11.471   8.521  71.993  0.00  0.00    +0.000 A 
ATOM     15  C   UNL     1     -10.617   9.314  71.234  0.00  0.00    +0.003 A 
ENDBRANCH   8  10
ENDBRANCH   4   8
BRANCH   1  16
ATOM     16  C   UNL     1     -10.952  13.327  65.076  0.00  0.00    +0.116 C 
BRANCH  16  18
ATOM     17  N   UNL     1     -13.132  12.390  64.329  0.00  0.00    -0.087 NA
ATOM     18  C   UNL     1     -12.152  13.416  64.189  0.00  0.00    +0.265 C 
ATOM     19  O   UNL     1     -12.573  14.561  63.856  0.00  0.00    -0.271 OA
ENDBRANCH  16  18
ENDBRANCH   1  16
TORSDOF 4
ENDMDL
MODEL 8
REMARK VINA RESULT:      -6.0      4.073      5.499
REMARK  Name = 
REMARK  4 active torsions:
REMARK  status: ('A' for Active; 'I' for Inactive)
REMARK    1  A    between atoms: C_2  and  C_4
REMARK    2  A    between atoms: C_4  and  C_5
REMARK    3  A    between atoms: C_9  and  C_10
REMARK    4  A    between atoms: C_10  and  C_12
REMARK                            x       y       z     vdW  Elec       q    Type
REMARK                         _______ _______ _______ _____ _____    ______ ____
ROOT
ATOM      1  C   UNL     1      -8.504  18.199  68.024  0.00  0.00    +0.004 A 
ATOM      2  C   UNL     1      -9.602  17.790  67.282  0.00  0.00    +0.089 A 
ATOM      3  N   UNL     1     -10.849  18.415  67.602  0.00  0.00    -0.128 NA
ATOM      4  C   UNL     1      -9.524  16.723  66.392  0.00  0.00    +0.055 A 
ATOM      5  C   UNL     1      -8.270  16.182  66.152  0.00  0.00    +0.005 A 
ATOM      6  C   UNL     1      -7.316  16.358  67.140  0.00  0.00    -0.000 A 
ATOM      7  C   UNL     1      -7.421  17.331  68.116  0.00  0.00    -0.002 A 
ENDROOT
BRANCH   4   8
ATOM      8  C   UNL     1     -10.703  16.342  65.607  0.00  0.00    +0.197 C 
ATOM      9  O   UNL     1     -10.983  17.051  64.594  0.00  0.00    -0.287 OA
BRANCH   8  10
ATOM     10  C   UNL     1     -11.195  14.967  65.578  0.00  0.00    +0.039 A 
ATOM     11  C   UNL     1     -11.583  14.445  66.806  0.00  0.00    +0.003 A 
ATOM     12  C   UNL     1     -11.808  13.079  66.925  0.00  0.00    +0.000 A 
ATOM     13  C   UNL     1     -11.870  12.289  65.783  0.00  0.00    +0.000 A 
ATOM     14  C   UNL     1     -11.283  12.824  64.645  0.00  0.00    +0.000 A 
ATOM     15  C   UNL     1     -10.623  14.048  64.705  0.00  0.00    +0.003 A 
ENDBRANCH   8  10
ENDBRANCH   4   8
BRANCH   1  16
ATOM     16  C   UNL     1      -8.447  19.602  68.525  0.00  0.00    +0.116 C 
BRANCH  16  18
ATOM     17  N   UNL     1      -6.966  21.134  67.241  0.00  0.00    -0.087 NA
ATOM     18  C   UNL     1      -7.086  20.170  68.286  0.00  0.00    +0.265 C 
ATOM     19  O   UNL     1      -6.303  20.302  69.271  0.00  0.00    -0.271 OA
ENDBRANCH  16  18
ENDBRANCH   1  16
TORSDOF 4
ENDMDL
MODEL 9
REMARK VINA RESULT:      -5.9      3.555      6.048
REMARK  Name = 
REMARK  4 active torsions:
REMARK  status: ('A' for Active; 'I' for Inactive)
REMARK    1  A    between atoms: C_2  and  C_4
REMARK    2  A    between atoms: C_4  and  C_5
REMARK    3  A    between atoms: C_9  and  C_10
REMARK    4  A    between atoms: C_10  and  C_12
REMARK                            x       y       z     vdW  Elec       q    Type
REMARK                         _______ _______ _______ _____ _____    ______ ____
ROOT
ATOM      1  C   UNL     1     -10.856  13.629  66.907  0.00  0.00    +0.004 A 
ATOM      2  C   UNL     1      -9.995  14.630  67.333  0.00  0.00    +0.089 A 
ATOM      3  N   UNL     1      -8.824  14.836  66.537  0.00  0.00    -0.128 NA
ATOM      4  C   UNL     1     -10.181  15.283  68.547  0.00  0.00    +0.055 A 
ATOM      5  C   UNL     1     -11.346  15.011  69.247  0.00  0.00    +0.005 A 
ATOM      6  C   UNL     1     -11.959  13.796  68.990  0.00  0.00    -0.000 A 
ATOM      7  C   UNL     1     -11.707  13.060  67.848  0.00  0.00    -0.002 A 
ENDROOT
BRANCH   4   8
ATOM      8  C   UNL     1      -9.262  16.354  68.946  0.00  0.00    +0.197 C 
ATOM      9  O   UNL     1      -8.089  16.019  69.290  0.00  0.00    -0.287 OA
BRANCH   8  10
ATOM     10  C   UNL     1      -9.414  17.720  68.450  0.00  0.00    +0.039 A 
ATOM     11  C   UNL     1     -10.568  17.964  67.715  0.00  0.00    +0.003 A 
ATOM     12  C   UNL     1     -10.673  19.141  66.983  0.00  0.00    +0.000 A 
ATOM     13  C   UNL     1      -9.742  20.155  67.173  0.00  0.00    +0.000 A 
ATOM     14  C   UNL     1      -8.539  19.772  67.749  0.00  0.00    +0.000 A 
ATOM     15  C   UNL     1      -8.294  18.434  68.038  0.00  0.00    +0.003 A 
ENDBRANCH   8  10
ENDBRANCH   4   8
BRANCH   1  16
ATOM     16  C   UNL     1     -10.972  13.341  65.449  0.00  0.00    +0.116 C 
BRANCH  16  18
ATOM     17  N   UNL     1     -12.562  14.749  64.154  0.00  0.00    -0.087 NA
ATOM     18  C   UNL     1     -12.368  13.609  64.989  0.00  0.00    +0.265 C 
ATOM     19  O   UNL     1     -13.139  12.626  64.793  0.00  0.00    -0.271 OA
ENDBRANCH  16  18
ENDBRANCH   1  16
TORSDOF 4
ENDMDL
