MODEL 1
REMARK VINA RESULT:      -5.8      0.000      0.000
REMARK  Name = 
REMARK  0 active torsions:
REMARK  status: ('A' for Active; 'I' for Inactive)
REMARK                            x       y       z     vdW  Elec       q    Type
REMARK                         _______ _______ _______ _____ _____    ______ ____
ROOT
ATOM      1  C   UNL     1     -13.612  14.006  72.535  0.00  0.00    +0.000 C 
ATOM      2  C   UNL     1     -12.834  14.051  71.253  0.00  0.00    +0.001 C 
ATOM      3  C   UNL     1     -13.174  12.730  71.877  0.00  0.00    +0.000 C 
ATOM      4  C   UNL     1     -12.737  11.455  71.220  0.00  0.00    +0.001 C 
ATOM      5  C   UNL     1     -11.960  11.500  69.937  0.00  0.00    +0.000 C 
ATOM      6  C   UNL     1     -11.619  12.821  69.313  0.00  0.00    +0.001 C 
ATOM      7  C   UNL     1     -11.279  14.142  68.689  0.00  0.00    +0.018 C 
ATOM      8  C   UNL     1     -11.717  15.417  69.347  0.00  0.00    +0.077 C 
ATOM      9  N   UNL     1     -11.376  16.738  68.722  0.00  0.00    -0.134 NA
ATOM     10  C   UNL     1     -13.077  10.134  71.844  0.00  0.00    +0.000 C 
ATOM     11  C   UNL     1     -12.794  12.954  71.239  0.00  0.00    +0.018 C 
ATOM     12  C   UNL     1     -12.494  15.372  70.628  0.00  0.00    +0.018 C 
ATOM     13  C   UNL     1     -12.397  12.776  70.595  0.00  0.00    +0.000 C 
ENDROOT
TORSDOF 0
ENDMDL
MODEL 2
REMARK VINA RESULT:      -5.7      1.622      2.684
REMARK  Name = 
REMARK  0 active torsions:
REMARK  status: ('A' for Active; 'I' for Inactive)
REMARK                            x       y       z     vdW  Elec       q    Type
REMARK                         _______ _______ _______ _____ _____    ______ ____
ROOT
ATOM      1  C   UNL     1     -13.136  10.855  71.816  0.00  0.00    +0.000 C 
ATOM      2  C   UNL     1     -12.973  12.291  71.414  0.00  0.00    +0.001 C 
ATOM      3  C   UNL     1     -12.311  11.209  70.614  0.00  0.00    +0.000 C 
ATOM      4  C   UNL     1     -11.487  11.563  69.412  0.00  0.00    +0.001 C 
ATOM      5  C   UNL     1     -11.325  12.999  69.010  0.00  0.00    +0.000 C 
ATOM      6  C   UNL     1     -11.987  14.081  69.810  0.00  0.00    +0.001 C 
ATOM      7  C   UNL     1     -12.649  15.163  70.610  0.00  0.00    +0.018 C 
ATOM      8  C   UNL     1     -13.474  14.809  71.812  0.00  0.00    +0.077 C 
ATOM      9  N   UNL     1     -14.136  15.892  72.612  0.00  0.00    -0.134 NA
ATOM     10  C   UNL     1     -10.825  10.480  68.612  0.00  0.00    +0.000 C 
ATOM     11  C   UNL     1     -12.345  11.983  70.568  0.00  0.00    +0.018 C 
ATOM     12  C   UNL     1     -13.636  13.373  72.214  0.00  0.00    +0.018 C 
ATOM     13  C   UNL     1     -12.149  12.645  70.212  0.00  0.00    +0.000 C 
ENDROOT
TORSDOF 0
ENDMDL
MODEL 3
REMARK VINA RESULT:      -5.6      1.551      2.966
REMARK  Name = 
REMARK  0 active torsions:
REMARK  status: ('A' for Active; 'I' for Inactive)
REMARK                            x       y       z     vdW  Elec       q    Type
REMARK                         _______ _______ _______ _____ _____    ______ ____
ROOT
ATOM      1  C   UNL     1     -11.301  13.903  68.608  0.00  0.00    +0.000 C 
ATOM      2  C   UNL     1     -12.096  13.715  69.867  0.00  0.00    +0.001 C 
ATOM      3  C   UNL     1     -11.477  12.530  69.187  0.00  0.00    +0.000 C 
ATOM      4  C   UNL     1     -11.652  11.158  69.765  0.00  0.00    +0.001 C 
ATOM      5  C   UNL     1     -12.448  10.969  71.024  0.00  0.00    +0.000 C 
ATOM      6  C   UNL     1     -13.067  12.154  71.703  0.00  0.00    +0.001 C 
ATOM      7  C   UNL     1     -13.687  13.339  72.382  0.00  0.00    +0.018 C 
ATOM      8  C   UNL     1     -13.511  14.712  71.804  0.00  0.00    +0.077 C 
ATOM      9  N   UNL     1     -14.131  15.897  72.484  0.00  0.00    -0.134 NA
ATOM     10  C   UNL     1     -11.032   9.973  69.086  0.00  0.00    +0.000 C 
ATOM     11  C   UNL     1     -11.908  12.634  69.823  0.00  0.00    +0.018 C 
ATOM     12  C   UNL     1     -12.716  14.900  70.546  0.00  0.00    +0.018 C 
ATOM     13  C   UNL     1     -12.272  12.342  70.445  0.00  0.00    +0.000 C 
ENDROOT
TORSDOF 0
ENDMDL
MODEL 4
REMARK VINA RESULT:      -5.6      1.928      3.592
REMARK  Name = 
REMARK  0 active torsions:
REMARK  status: ('A' for Active; 'I' for Inactive)
REMARK                            x       y       z     vdW  Elec       q    Type
REMARK                         _______ _______ _______ _____ _____    ______ ____
ROOT
ATOM      1  C   UNL     1     -11.902  15.584  69.466  0.00  0.00    +0.000 C 
ATOM      2  C   UNL     1     -12.110  14.133  69.784  0.00  0.00    +0.001 C 
ATOM      3  C   UNL     1     -12.511  15.182  70.777  0.00  0.00    +0.000 C 
ATOM      4  C   UNL     1     -13.119  14.781  72.088  0.00  0.00    +0.001 C 
ATOM      5  C   UNL     1     -13.328  13.330  72.406  0.00  0.00    +0.000 C 
ATOM      6  C   UNL     1     -12.927  12.280  71.412  0.00  0.00    +0.001 C 
ATOM      7  C   UNL     1     -12.526  11.230  70.419  0.00  0.00    +0.018 C 
ATOM      8  C   UNL     1     -11.917  11.632  69.107  0.00  0.00    +0.077 C 
ATOM      9  N   UNL     1     -11.517  10.581  68.114  0.00  0.00    -0.134 NA
ATOM     10  C   UNL     1     -13.520  15.831  73.081  0.00  0.00    +0.000 C 
ATOM     11  C   UNL     1     -12.537  14.407  70.758  0.00  0.00    +0.018 C 
ATOM     12  C   UNL     1     -11.710  13.083  68.790  0.00  0.00    +0.018 C 
ATOM     13  C   UNL     1     -12.719  13.732  71.094  0.00  0.00    +0.000 C 
ENDROOT
TORSDOF 0
ENDMDL
MODEL 5
REMARK VINA RESULT:      -5.5      0.513      2.332
REMARK  Name = 
REMARK  0 active torsions:
REMARK  status: ('A' for Active; 'I' for Inactive)
REMARK                            x       y       z     vdW  Elec       q    Type
REMARK                         _______ _______ _______ _____ _____    ______ ____
ROOT
ATOM      1  C   UNL     1     -11.259  11.315  68.788  0.00  0.00    +0.000 C 
ATOM      2  C   UNL     1     -11.714  12.579  69.457  0.00  0.00    +0.001 C 
ATOM      3  C   UNL     1     -12.034  11.248  70.071  0.00  0.00    +0.000 C 
ATOM      4  C   UNL     1     -12.809  11.181  71.353  0.00  0.00    +0.001 C 
ATOM      5  C   UNL     1     -13.263  12.444  72.022  0.00  0.00    +0.000 C 
ATOM      6  C   UNL     1     -12.943  13.775  71.409  0.00  0.00    +0.001 C 
ATOM      7  C   UNL     1     -12.622  15.106  70.795  0.00  0.00    +0.018 C 
ATOM      8  C   UNL     1     -11.847  15.173  69.512  0.00  0.00    +0.077 C 
ATOM      9  N   UNL     1     -11.527  16.504  68.900  0.00  0.00    -0.134 NA
ATOM     10  C   UNL     1     -13.129   9.850  71.966  0.00  0.00    +0.000 C 
ATOM     11  C   UNL     1     -12.176  11.988  70.258  0.00  0.00    +0.018 C 
ATOM     12  C   UNL     1     -11.393  13.910  68.844  0.00  0.00    +0.018 C 
ATOM     13  C   UNL     1     -12.488  12.512  70.739  0.00  0.00    +0.000 C 
ENDROOT
TORSDOF 0
ENDMDL
MODEL 6
REMARK VINA RESULT:      -5.4      2.306      3.880
REMARK  Name = 
REMARK  0 active torsions:
REMARK  status: ('A' for Active; 'I' for Inactive)
REMARK                            x       y       z     vdW  Elec       q    Type
REMARK                         _______ _______ _______ _____ _____    ______ ____
ROOT
ATOM      1  C   UNL     1     -13.353  15.013  71.946  0.00  0.00    +0.000 C 
ATOM      2  C   UNL     1     -12.936  13.699  71.354  0.00  0.00    +0.001 C 
ATOM      3  C   UNL     1     -12.540  14.982  70.685  0.00  0.00    +0.000 C 
ATOM      4  C   UNL     1     -11.728  14.951  69.425  0.00  0.00    +0.001 C 
ATOM      5  C   UNL     1     -11.311  13.637  68.833  0.00  0.00    +0.000 C 
ATOM      6  C   UNL     1     -11.707  12.354  69.501  0.00  0.00    +0.001 C 
ATOM      7  C   UNL     1     -12.103  11.071  70.170  0.00  0.00    +0.018 C 
ATOM      8  C   UNL     1     -12.916  11.102  71.430  0.00  0.00    +0.077 C 
ATOM      9  N   UNL     1     -13.311   9.818  72.098  0.00  0.00    -0.134 NA
ATOM     10  C   UNL     1     -11.332  16.234  68.757  0.00  0.00    +0.000 C 
ATOM     11  C   UNL     1     -12.426  14.229  70.539  0.00  0.00    +0.018 C 
ATOM     12  C   UNL     1     -13.332  12.415  72.022  0.00  0.00    +0.018 C 
ATOM     13  C   UNL     1     -12.124  13.668  70.094  0.00  0.00    +0.000 C 
ENDROOT
TORSDOF 0
ENDMDL
MODEL 7
REMARK VINA RESULT:      -5.4      1.496      3.139
REMARK  Name = 
REMARK  0 active torsions:
REMARK  status: ('A' for Active; 'I' for Inactive)
REMARK                            x       y       z     vdW  Elec       q    Type
REMARK                         _______ _______ _______ _____ _____    ______ ____
ROOT
ATOM      1  C   UNL     1     -13.150  12.665  71.853  0.00  0.00    +0.000 C 
ATOM      2  C   UNL     1     -12.557  13.717  70.963  0.00  0.00    +0.001 C 
ATOM      3  C   UNL     1     -12.757  13.996  72.423  0.00  0.00    +0.000 C 
ATOM      4  C   UNL     1     -12.364  15.327  72.992  0.00  0.00    +0.001 C 
ATOM      5  C   UNL     1     -11.772  16.379  72.102  0.00  0.00    +0.000 C 
ATOM      6  C   UNL     1     -11.572  16.100  70.642  0.00  0.00    +0.001 C 
ATOM      7  C   UNL     1     -11.372  15.821  69.182  0.00  0.00    +0.018 C 
ATOM      8  C   UNL     1     -11.765  14.489  68.612  0.00  0.00    +0.077 C 
ATOM      9  N   UNL     1     -11.565  14.211  67.152  0.00  0.00    -0.134 NA
ATOM     10  C   UNL     1     -12.564  15.606  74.453  0.00  0.00    +0.000 C 
ATOM     11  C   UNL     1     -12.476  14.397  71.821  0.00  0.00    +0.018 C 
ATOM     12  C   UNL     1     -12.357  13.438  69.502  0.00  0.00    +0.018 C 
ATOM     13  C   UNL     1     -12.164  15.048  71.532  0.00  0.00    +0.000 C 
ENDROOT
TORSDOF 0
ENDMDL
MODEL 8
REMARK VINA RESULT:      -5.3      2.011      3.515
REMARK  Name = 
REMARK  0 active torsions:
REMARK  status: ('A' for Active; 'I' for Inactive)
REMARK                            x       y       z     vdW  Elec       q    Type
REMARK                         _______ _______ _______ _____ _____    ______ ____
ROOT
ATOM      1  C   UNL     1     -10.936  16.227  69.534  0.00  0.00    +0.000 C 
ATOM      2  C   UNL     1     -11.628  15.558  70.686  0.00  0.00    +0.001 C 
ATOM      3  C   UNL     1     -11.404  14.807  69.407  0.00  0.00    +0.000 C 
ATOM      4  C   UNL     1     -11.872  13.388  69.279  0.00  0.00    +0.001 C 
ATOM      5  C   UNL     1     -12.564  12.719  70.431  0.00  0.00    +0.000 C 
ATOM      6  C   UNL     1     -12.787  13.470  71.710  0.00  0.00    +0.001 C 
ATOM      7  C   UNL     1     -13.010  14.222  72.989  0.00  0.00    +0.018 C 
ATOM      8  C   UNL     1     -12.542  15.641  73.116  0.00  0.00    +0.077 C 
ATOM      9  N   UNL     1     -12.765  16.392  74.396  0.00  0.00    -0.134 NA
ATOM     10  C   UNL     1     -11.649  12.637  68.000  0.00  0.00    +0.000 C 
ATOM     11  C   UNL     1     -11.731  14.641  70.091  0.00  0.00    +0.018 C 
ATOM     12  C   UNL     1     -11.851  16.309  71.965  0.00  0.00    +0.018 C 
ATOM     13  C   UNL     1     -12.095  14.139  70.558  0.00  0.00    +0.000 C 
ENDROOT
TORSDOF 0
ENDMDL
MODEL 9
REMARK VINA RESULT:      -5.2      1.482      2.990
REMARK  Name = 
REMARK  0 active torsions:
REMARK  status: ('A' for Active; 'I' for Inactive)
REMARK                            x       y       z     vdW  Elec       q    Type
REMARK                         _______ _______ _______ _____ _____    ______ ____
ROOT
ATOM      1  C   UNL     1     -12.439  11.976  70.698  0.00  0.00    +0.000 C 
ATOM      2  C   UNL     1     -12.105  13.170  69.853  0.00  0.00    +0.001 C 
ATOM      3  C   UNL     1     -12.476  13.352  71.295  0.00  0.00    +0.000 C 
ATOM      4  C   UNL     1     -12.513  14.728  71.891  0.00  0.00    +0.001 C 
ATOM      5  C   UNL     1     -12.179  15.922  71.046  0.00  0.00    +0.000 C 
ATOM      6  C   UNL     1     -11.808  15.739  69.604  0.00  0.00    +0.001 C 
ATOM      7  C   UNL     1     -11.438  15.557  68.162  0.00  0.00    +0.018 C 
ATOM      8  C   UNL     1     -11.400  14.180  67.566  0.00  0.00    +0.077 C 
ATOM      9  N   UNL     1     -11.029  13.999  66.124  0.00  0.00    -0.134 NA
ATOM     10  C   UNL     1     -12.884  14.910  73.333  0.00  0.00    +0.000 C 
ATOM     11  C   UNL     1     -12.278  13.828  70.715  0.00  0.00    +0.018 C 
ATOM     12  C   UNL     1     -11.734  12.987  68.411  0.00  0.00    +0.018 C 
ATOM     13  C   UNL     1     -12.142  14.545  70.449  0.00  0.00    +0.000 C 
ENDROOT
TORSDOF 0
ENDMDL
