MODEL 1
REMARK VINA RESULT:      -6.2      0.000      0.000
REMARK  Name = 
REMARK  2 active torsions:
REMARK  status: ('A' for Active; 'I' for Inactive)
REMARK    1  A    between atoms: N_5  and  C_6
REMARK    2  A    between atoms: C_9  and  C_10
REMARK                            x       y       z     vdW  Elec       q    Type
REMARK                         _______ _______ _______ _____ _____    ______ ____
ROOT
ATOM      1  N   UNL     1     -13.143  12.579  64.705  0.00  0.00    -0.107 NA
ATOM      2  C   UNL     1     -12.402  13.388  64.940  0.00  0.00    +0.176 A 
ATOM      3  N   UNL     1     -12.403  14.550  64.243  0.00  0.00    -0.174 NA
ATOM      4  C   UNL     1     -11.620  15.598  64.605  0.00  0.00    +0.353 A 
ATOM      5  O   UNL     1     -11.618  16.658  63.904  0.00  0.00    -0.244 OA
ATOM      6  N   UNL     1     -10.372  15.340  65.077  0.00  0.00    -0.255 N 
ATOM      7  C   UNL     1     -10.298  14.192  65.803  0.00  0.00    +0.085 A 
ATOM      8  C   UNL     1     -11.359  13.290  65.853  0.00  0.00    +0.057 A 
ENDROOT
BRANCH   6   9
ATOM      9  C   UNL     1      -9.837  16.516  66.043  0.00  0.00    +0.220 C 
ATOM     10  O   UNL     1     -10.758  16.041  67.194  0.00  0.00    -0.323 OA
ATOM     11  C   UNL     1     -10.365  17.159  68.088  0.00  0.00    +0.198 C 
ATOM     12  S   UNL     1      -8.556  16.488  68.255  0.00  0.00    -0.105 S 
ATOM     13  C   UNL     1      -8.567  15.609  66.679  0.00  0.00    +0.114 C 
BRANCH  11  14
ATOM     14  C   UNL     1     -10.849  16.390  69.424  0.00  0.00    +0.223 C 
ATOM     15  O   UNL     1     -12.187  16.154  69.157  0.00  0.00    -0.217 OA
ENDBRANCH  11  14
ENDBRANCH   6   9
TORSDOF 2
ENDMDL
MODEL 2
REMARK VINA RESULT:      -5.5      1.774      2.886
REMARK  Name = 
REMARK  2 active torsions:
REMARK  status: ('A' for Active; 'I' for Inactive)
REMARK    1  A    between atoms: N_5  and  C_6
REMARK    2  A    between atoms: C_9  and  C_10
REMARK                            x       y       z     vdW  Elec       q    Type
REMARK                         _______ _______ _______ _____ _____    ______ ____
ROOT
ATOM      1  N   UNL     1     -12.819  12.054  63.486  0.00  0.00    -0.107 NA
ATOM      2  C   UNL     1     -12.422  12.676  64.331  0.00  0.00    +0.176 A 
ATOM      3  N   UNL     1     -12.393  12.187  65.595  0.00  0.00    -0.174 NA
ATOM      4  C   UNL     1     -11.783  12.859  66.604  0.00  0.00    +0.353 A 
ATOM      5  O   UNL     1     -11.811  12.390  67.784  0.00  0.00    -0.244 OA
ATOM      6  N   UNL     1     -11.883  14.214  66.632  0.00  0.00    -0.255 N 
ATOM      7  C   UNL     1     -11.901  14.779  65.394  0.00  0.00    +0.085 A 
ATOM      8  C   UNL     1     -12.024  14.005  64.242  0.00  0.00    +0.057 A 
ENDROOT
BRANCH   6   9
ATOM      9  C   UNL     1     -10.647  14.896  67.415  0.00  0.00    +0.220 C 
ATOM     10  O   UNL     1     -10.660  16.110  66.454  0.00  0.00    -0.323 OA
ATOM     11  C   UNL     1      -9.468  16.732  67.084  0.00  0.00    +0.198 C 
ATOM     12  S   UNL     1     -10.425  17.074  68.733  0.00  0.00    -0.105 S 
ATOM     13  C   UNL     1     -11.618  15.739  68.503  0.00  0.00    +0.114 C 
BRANCH  11  14
ATOM     14  C   UNL     1      -9.805  18.201  66.500  0.00  0.00    +0.223 C 
ATOM     15  O   UNL     1     -10.563  17.904  65.380  0.00  0.00    -0.217 OA
ENDBRANCH  11  14
ENDBRANCH   6   9
TORSDOF 2
ENDMDL
MODEL 3
REMARK VINA RESULT:      -5.3      4.859      6.656
REMARK  Name = 
REMARK  2 active torsions:
REMARK  status: ('A' for Active; 'I' for Inactive)
REMARK    1  A    between atoms: N_5  and  C_6
REMARK    2  A    between atoms: C_9  and  C_10
REMARK                            x       y       z     vdW  Elec       q    Type
REMARK                         _______ _______ _______ _____ _____    ______ ____
ROOT
ATOM      1  N   UNL     1     -12.667  16.299  74.538  0.00  0.00    -0.107 NA
ATOM      2  C   UNL     1     -12.592  15.761  73.556  0.00  0.00    +0.176 A 
ATOM      3  N   UNL     1     -13.116  14.520  73.407  0.00  0.00    -0.174 NA
ATOM      4  C   UNL     1     -13.170  13.912  72.195  0.00  0.00    +0.353 A 
ATOM      5  O   UNL     1     -13.632  12.732  72.099  0.00  0.00    -0.244 OA
ATOM      6  N   UNL     1     -12.129  14.083  71.338  0.00  0.00    -0.255 N 
ATOM      7  C   UNL     1     -11.561  15.317  71.421  0.00  0.00    +0.085 A 
ATOM      8  C   UNL     1     -11.895  16.207  72.439  0.00  0.00    +0.057 A 
ENDROOT
BRANCH   6   9
ATOM      9  C   UNL     1     -12.577  13.900  69.798  0.00  0.00    +0.220 C 
ATOM     10  O   UNL     1     -11.352  14.712  69.308  0.00  0.00    -0.323 OA
ATOM     11  C   UNL     1     -11.772  14.650  67.884  0.00  0.00    +0.198 C 
ATOM     12  S   UNL     1     -11.479  12.737  67.805  0.00  0.00    -0.105 S 
ATOM     13  C   UNL     1     -11.722  12.466  69.573  0.00  0.00    +0.114 C 
BRANCH  11  14
ATOM     14  C   UNL     1     -10.287  14.971  67.332  0.00  0.00    +0.223 C 
ATOM     15  O   UNL     1     -10.429  16.260  66.845  0.00  0.00    -0.217 OA
ENDBRANCH  11  14
ENDBRANCH   6   9
TORSDOF 2
ENDMDL
MODEL 4
REMARK VINA RESULT:      -5.2      2.793      5.004
REMARK  Name = 
REMARK  2 active torsions:
REMARK  status: ('A' for Active; 'I' for Inactive)
REMARK    1  A    between atoms: N_5  and  C_6
REMARK    2  A    between atoms: C_9  and  C_10
REMARK                            x       y       z     vdW  Elec       q    Type
REMARK                         _______ _______ _______ _____ _____    ______ ____
ROOT
ATOM      1  N   UNL     1     -10.131  19.709  67.124  0.00  0.00    -0.107 NA
ATOM      2  C   UNL     1     -10.379  18.615  67.168  0.00  0.00    +0.176 A 
ATOM      3  N   UNL     1     -10.528  17.987  68.360  0.00  0.00    -0.174 NA
ATOM      4  C   UNL     1     -10.973  16.708  68.438  0.00  0.00    +0.353 A 
ATOM      5  O   UNL     1     -11.061  16.137  69.571  0.00  0.00    -0.244 OA
ATOM      6  N   UNL     1     -10.566  15.821  67.493  0.00  0.00    -0.255 N 
ATOM      7  C   UNL     1     -10.410  16.380  66.262  0.00  0.00    +0.085 A 
ATOM      8  C   UNL     1     -10.461  17.760  66.076  0.00  0.00    +0.057 A 
ENDROOT
BRANCH   6   9
ATOM      9  C   UNL     1     -11.617  14.611  67.305  0.00  0.00    +0.220 C 
ATOM     10  O   UNL     1     -11.472  14.676  65.764  0.00  0.00    -0.323 OA
ATOM     11  C   UNL     1     -12.501  13.630  65.536  0.00  0.00    +0.198 C 
ATOM     12  S   UNL     1     -11.390  12.258  66.333  0.00  0.00    -0.105 S 
ATOM     13  C   UNL     1     -10.449  13.398  67.369  0.00  0.00    +0.114 C 
BRANCH  11  14
ATOM     14  C   UNL     1     -11.970  13.295  64.047  0.00  0.00    +0.223 C 
ATOM     15  O   UNL     1     -12.934  12.415  63.584  0.00  0.00    -0.217 OA
ENDBRANCH  11  14
ENDBRANCH   6   9
TORSDOF 2
ENDMDL
MODEL 5
REMARK VINA RESULT:      -5.0      3.857      5.343
REMARK  Name = 
REMARK  2 active torsions:
REMARK  status: ('A' for Active; 'I' for Inactive)
REMARK    1  A    between atoms: N_5  and  C_6
REMARK    2  A    between atoms: C_9  and  C_10
REMARK                            x       y       z     vdW  Elec       q    Type
REMARK                         _______ _______ _______ _____ _____    ______ ____
ROOT
ATOM      1  N   UNL     1     -12.155  15.840  72.574  0.00  0.00    -0.107 NA
ATOM      2  C   UNL     1     -11.963  15.495  71.524  0.00  0.00    +0.176 A 
ATOM      3  N   UNL     1     -11.751  16.391  70.529  0.00  0.00    -0.174 NA
ATOM      4  C   UNL     1     -11.371  15.999  69.288  0.00  0.00    +0.353 A 
ATOM      5  O   UNL     1     -11.221  16.864  68.369  0.00  0.00    -0.244 OA
ATOM      6  N   UNL     1     -11.902  14.857  68.778  0.00  0.00    -0.255 N 
ATOM      7  C   UNL     1     -12.128  13.901  69.720  0.00  0.00    +0.085 A 
ATOM      8  C   UNL     1     -12.018  14.178  71.081  0.00  0.00    +0.057 A 
ENDROOT
BRANCH   6   9
ATOM      9  C   UNL     1     -10.937  14.179  67.677  0.00  0.00    +0.220 C 
ATOM     10  O   UNL     1     -11.299  12.760  68.179  0.00  0.00    -0.323 OA
ATOM     11  C   UNL     1     -10.355  12.094  67.246  0.00  0.00    +0.198 C 
ATOM     12  S   UNL     1     -11.393  12.625  65.700  0.00  0.00    -0.105 S 
ATOM     13  C   UNL     1     -12.130  14.069  66.492  0.00  0.00    +0.114 C 
BRANCH  11  14
ATOM     14  C   UNL     1     -11.107  10.667  67.349  0.00  0.00    +0.223 C 
ATOM     15  O   UNL     1     -12.144  10.946  68.224  0.00  0.00    -0.217 OA
ENDBRANCH  11  14
ENDBRANCH   6   9
TORSDOF 2
ENDMDL
MODEL 6
REMARK VINA RESULT:      -5.0      1.650      1.895
REMARK  Name = 
REMARK  2 active torsions:
REMARK  status: ('A' for Active; 'I' for Inactive)
REMARK    1  A    between atoms: N_5  and  C_6
REMARK    2  A    between atoms: C_9  and  C_10
REMARK                            x       y       z     vdW  Elec       q    Type
REMARK                         _______ _______ _______ _____ _____    ______ ____
ROOT
ATOM      1  N   UNL     1     -11.974  11.257  67.843  0.00  0.00    -0.107 NA
ATOM      2  C   UNL     1     -11.613  12.194  67.342  0.00  0.00    +0.176 A 
ATOM      3  N   UNL     1     -12.303  12.736  66.310  0.00  0.00    -0.174 NA
ATOM      4  C   UNL     1     -11.971  13.944  65.788  0.00  0.00    +0.353 A 
ATOM      5  O   UNL     1     -12.616  14.403  64.794  0.00  0.00    -0.244 OA
ATOM      6  N   UNL     1     -10.655  14.265  65.687  0.00  0.00    -0.255 N 
ATOM      7  C   UNL     1      -9.899  13.767  66.702  0.00  0.00    +0.085 A 
ATOM      8  C   UNL     1     -10.416  12.847  67.612  0.00  0.00    +0.057 A 
ENDROOT
BRANCH   6   9
ATOM      9  C   UNL     1     -10.419  15.862  65.697  0.00  0.00    +0.220 C 
ATOM     10  O   UNL     1     -10.728  15.935  67.213  0.00  0.00    -0.323 OA
ATOM     11  C   UNL     1     -10.612  17.415  67.254  0.00  0.00    +0.198 C 
ATOM     12  S   UNL     1      -8.713  17.350  66.881  0.00  0.00    -0.105 S 
ATOM     13  C   UNL     1      -8.771  15.759  66.032  0.00  0.00    +0.114 C 
BRANCH  11  14
ATOM     14  C   UNL     1     -10.370  17.448  68.851  0.00  0.00    +0.223 C 
ATOM     15  O   UNL     1     -11.341  16.575  69.312  0.00  0.00    -0.217 OA
ENDBRANCH  11  14
ENDBRANCH   6   9
TORSDOF 2
ENDMDL
MODEL 7
REMARK VINA RESULT:      -5.0      2.928      4.544
REMARK  Name = 
REMARK  2 active torsions:
REMARK  status: ('A' for Active; 'I' for Inactive)
REMARK    1  A    between atoms: N_5  and  C_6
REMARK    2  A    between atoms: C_9  and  C_10
REMARK                            x       y       z     vdW  Elec       q    Type
REMARK                         _______ _______ _______ _____ _____    ______ ____
ROOT
ATOM      1  N   UNL     1      -9.470  17.378  65.734  0.00  0.00    -0.107 NA
ATOM      2  C   UNL     1     -10.050  16.419  65.798  0.00  0.00    +0.176 A 
ATOM      3  N   UNL     1     -10.976  16.108  64.859  0.00  0.00    -0.174 NA
ATOM      4  C   UNL     1     -11.580  14.894  64.831  0.00  0.00    +0.353 A 
ATOM      5  O   UNL     1     -12.473  14.651  63.960  0.00  0.00    -0.244 OA
ATOM      6  N   UNL     1     -11.899  14.302  66.012  0.00  0.00    -0.255 N 
ATOM      7  C   UNL     1     -11.002  14.559  67.002  0.00  0.00    +0.085 A 
ATOM      8  C   UNL     1      -9.994  15.507  66.845  0.00  0.00    +0.057 A 
ENDROOT
BRANCH   6   9
ATOM      9  C   UNL     1     -11.976  12.696  65.883  0.00  0.00    +0.220 C 
ATOM     10  O   UNL     1     -10.454  12.608  65.611  0.00  0.00    -0.323 OA
ATOM     11  C   UNL     1     -10.489  11.140  65.393  0.00  0.00    +0.198 C 
ATOM     12  S   UNL     1     -10.937  10.800  67.246  0.00  0.00    -0.105 S 
ATOM     13  C   UNL     1     -11.705  12.410  67.521  0.00  0.00    +0.114 C 
BRANCH  11  14
ATOM     14  C   UNL     1      -8.906  10.963  65.669  0.00  0.00    +0.223 C 
ATOM     15  O   UNL     1      -8.889  10.457  66.957  0.00  0.00    -0.217 OA
ENDBRANCH  11  14
ENDBRANCH   6   9
TORSDOF 2
ENDMDL
MODEL 8
REMARK VINA RESULT:      -5.0      3.761      5.479
REMARK  Name = 
REMARK  2 active torsions:
REMARK  status: ('A' for Active; 'I' for Inactive)
REMARK    1  A    between atoms: N_5  and  C_6
REMARK    2  A    between atoms: C_9  and  C_10
REMARK                            x       y       z     vdW  Elec       q    Type
REMARK                         _______ _______ _______ _____ _____    ______ ____
ROOT
ATOM      1  N   UNL     1     -13.033  15.907  71.644  0.00  0.00    -0.107 NA
ATOM      2  C   UNL     1     -12.675  15.210  70.841  0.00  0.00    +0.176 A 
ATOM      3  N   UNL     1     -12.470  13.897  71.107  0.00  0.00    -0.174 NA
ATOM      4  C   UNL     1     -12.184  13.008  70.123  0.00  0.00    +0.353 A 
ATOM      5  O   UNL     1     -11.959  11.792  70.414  0.00  0.00    -0.244 OA
ATOM      6  N   UNL     1     -11.378  13.407  69.104  0.00  0.00    -0.255 N 
ATOM      7  C   UNL     1     -11.541  14.716  68.770  0.00  0.00    +0.085 A 
ATOM      8  C   UNL     1     -12.303  15.580  69.554  0.00  0.00    +0.057 A 
ENDROOT
BRANCH   6   9
ATOM      9  C   UNL     1     -11.646  12.565  67.754  0.00  0.00    +0.220 C 
ATOM     10  O   UNL     1     -11.696  13.863  66.911  0.00  0.00    -0.323 OA
ATOM     11  C   UNL     1     -12.035  13.140  65.658  0.00  0.00    +0.198 C 
ATOM     12  S   UNL     1     -10.301  12.278  65.600  0.00  0.00    -0.105 S 
ATOM     13  C   UNL     1     -10.014  12.378  67.379  0.00  0.00    +0.114 C 
BRANCH  11  14
ATOM     14  C   UNL     1     -11.542  14.353  64.710  0.00  0.00    +0.223 C 
ATOM     15  O   UNL     1     -12.658  14.579  63.922  0.00  0.00    -0.217 OA
ENDBRANCH  11  14
ENDBRANCH   6   9
TORSDOF 2
ENDMDL
MODEL 9
REMARK VINA RESULT:      -4.9      3.019      3.843
REMARK  Name = 
REMARK  2 active torsions:
REMARK  status: ('A' for Active; 'I' for Inactive)
REMARK    1  A    between atoms: N_5  and  C_6
REMARK    2  A    between atoms: C_9  and  C_10
REMARK                            x       y       z     vdW  Elec       q    Type
REMARK                         _______ _______ _______ _____ _____    ______ ____
ROOT
ATOM      1  N   UNL     1     -11.106  11.865  65.600  0.00  0.00    -0.107 NA
ATOM      2  C   UNL     1     -11.271  12.582  66.447  0.00  0.00    +0.176 A 
ATOM      3  N   UNL     1     -10.898  13.880  66.337  0.00  0.00    -0.174 NA
ATOM      4  C   UNL     1     -11.220  14.796  67.285  0.00  0.00    +0.353 A 
ATOM      5  O   UNL     1     -10.820  15.996  67.168  0.00  0.00    -0.244 OA
ATOM      6  N   UNL     1     -11.194  14.414  68.589  0.00  0.00    -0.255 N 
ATOM      7  C   UNL     1     -11.574  13.121  68.779  0.00  0.00    +0.085 A 
ATOM      8  C   UNL     1     -11.752  12.248  67.708  0.00  0.00    +0.057 A 
ENDROOT
BRANCH   6   9
ATOM      9  C   UNL     1     -12.181  15.307  69.501  0.00  0.00    +0.220 C 
ATOM     10  O   UNL     1     -12.581  14.071  70.344  0.00  0.00    -0.323 OA
ATOM     11  C   UNL     1     -13.570  14.832  71.151  0.00  0.00    +0.198 C 
ATOM     12  S   UNL     1     -12.181  15.890  71.990  0.00  0.00    -0.105 S 
ATOM     13  C   UNL     1     -11.001  15.705  70.637  0.00  0.00    +0.114 C 
BRANCH  11  14
ATOM     14  C   UNL     1     -13.569  13.749  72.351  0.00  0.00    +0.223 C 
ATOM     15  O   UNL     1     -13.130  14.504  73.425  0.00  0.00    -0.217 OA
ENDBRANCH  11  14
ENDBRANCH   6   9
TORSDOF 2
ENDMDL
