MODEL 1
REMARK VINA RESULT:      -8.0      0.000      0.000
REMARK  Name = 
REMARK  0 active torsions:
REMARK  status: ('A' for Active; 'I' for Inactive)
REMARK                            x       y       z     vdW  Elec       q    Type
REMARK                         _______ _______ _______ _____ _____    ______ ____
ROOT
ATOM      1  C   UNL     1      -7.953  17.488  66.462  0.00  0.00    +0.038 C 
ATOM      2  C   UNL     1      -9.138  17.056  67.262  0.00  0.00    +0.009 A 
ATOM      3  S   UNL     1      -9.827  17.689  68.701  0.00  0.00    -0.075 S 
ATOM      4  C   UNL     1     -10.984  16.460  69.008  0.00  0.00    +0.107 A 
ATOM      5  N   UNL     1     -11.951  16.378  70.061  0.00  0.00    -0.202 NA
ATOM      6  C   UNL     1     -12.583  15.215  70.610  0.00  0.00    +0.114 A 
ATOM      7  C   UNL     1     -12.441  13.939  70.094  0.00  0.00    +0.208 A 
ATOM      8  N   UNL     1     -11.981  13.555  68.801  0.00  0.00    -0.039 NA
ATOM      9  C   UNL     1     -11.283  14.209  67.925  0.00  0.00    +0.326 C 
ATOM     10  N   UNL     1     -10.934  13.404  66.793  0.00  0.00    -0.188 N 
ATOM     11  C   UNL     1     -10.103  14.008  65.755  0.00  0.00    +0.220 C 
ATOM     12  C   UNL     1     -10.221  13.240  64.471  0.00  0.00    +0.124 C 
ATOM     13  N   UNL     1     -11.578  13.070  64.019  0.00  0.00    -0.265 NA
ATOM     14  C   UNL     1     -11.705  11.692  63.563  0.00  0.00    +0.090 C 
ATOM     15  C   UNL     1     -12.558  13.244  65.073  0.00  0.00    +0.124 C 
ATOM     16  C   UNL     1     -11.997  12.534  66.299  0.00  0.00    +0.220 C 
ATOM     17  C   UNL     1     -12.728  12.849  70.909  0.00  0.00    +0.048 A 
ATOM     18  C   UNL     1     -13.189  13.035  72.190  0.00  0.00    +0.004 A 
ATOM     19  C   UNL     1     -13.633  14.308  72.519  0.00  0.00    +0.002 A 
ATOM     20  C   UNL     1     -13.166  15.419  71.835  0.00  0.00    +0.020 A 
ATOM     21  C   UNL     1     -10.607  15.506  68.070  0.00  0.00    +0.104 A 
ATOM     22  C   UNL     1     -10.116  16.128  66.927  0.00  0.00    +0.011 A 
ENDROOT
TORSDOF 0
ENDMDL
MODEL 2
REMARK VINA RESULT:      -7.8      2.101      4.308
REMARK  Name = 
REMARK  0 active torsions:
REMARK  status: ('A' for Active; 'I' for Inactive)
REMARK                            x       y       z     vdW  Elec       q    Type
REMARK                         _______ _______ _______ _____ _____    ______ ____
ROOT
ATOM      1  C   UNL     1     -10.524  13.034  64.240  0.00  0.00    +0.038 C 
ATOM      2  C   UNL     1     -10.737  13.103  65.716  0.00  0.00    +0.009 A 
ATOM      3  S   UNL     1     -11.319  11.939  66.835  0.00  0.00    -0.075 S 
ATOM      4  C   UNL     1     -11.441  12.938  68.225  0.00  0.00    +0.107 A 
ATOM      5  N   UNL     1     -11.836  12.585  69.554  0.00  0.00    -0.202 NA
ATOM      6  C   UNL     1     -12.382  13.423  70.580  0.00  0.00    +0.114 A 
ATOM      7  C   UNL     1     -12.500  14.798  70.478  0.00  0.00    +0.208 A 
ATOM      8  N   UNL     1     -11.833  15.676  69.575  0.00  0.00    -0.039 NA
ATOM      9  C   UNL     1     -11.241  15.436  68.446  0.00  0.00    +0.326 C 
ATOM     10  N   UNL     1     -10.800  16.633  67.795  0.00  0.00    -0.188 N 
ATOM     11  C   UNL     1     -10.162  16.505  66.487  0.00  0.00    +0.220 C 
ATOM     12  C   UNL     1      -9.358  17.731  66.169  0.00  0.00    +0.124 C 
ATOM     13  N   UNL     1      -8.398  18.076  67.186  0.00  0.00    -0.265 NA
ATOM     14  C   UNL     1      -8.468  19.521  67.365  0.00  0.00    +0.090 C 
ATOM     15  C   UNL     1      -8.697  17.489  68.478  0.00  0.00    +0.124 C 
ATOM     16  C   UNL     1     -10.201  17.633  68.674  0.00  0.00    +0.220 C 
ATOM     17  C   UNL     1     -13.399  15.459  71.307  0.00  0.00    +0.048 A 
ATOM     18  C   UNL     1     -14.127  14.766  72.244  0.00  0.00    +0.004 A 
ATOM     19  C   UNL     1     -13.715  13.471  72.527  0.00  0.00    +0.002 A 
ATOM     20  C   UNL     1     -13.000  12.737  71.595  0.00  0.00    +0.020 A 
ATOM     21  C   UNL     1     -11.220  14.191  67.665  0.00  0.00    +0.104 A 
ATOM     22  C   UNL     1     -10.327  14.091  66.604  0.00  0.00    +0.011 A 
ENDROOT
TORSDOF 0
ENDMDL
MODEL 3
REMARK VINA RESULT:      -7.6      2.002      4.852
REMARK  Name = 
REMARK  0 active torsions:
REMARK  status: ('A' for Active; 'I' for Inactive)
REMARK                            x       y       z     vdW  Elec       q    Type
REMARK                         _______ _______ _______ _____ _____    ______ ____
ROOT
ATOM      1  C   UNL     1     -13.209  13.235  71.574  0.00  0.00    +0.038 C 
ATOM      2  C   UNL     1     -12.344  14.243  70.891  0.00  0.00    +0.009 A 
ATOM      3  S   UNL     1     -11.900  15.841  71.331  0.00  0.00    -0.075 S 
ATOM      4  C   UNL     1     -11.099  16.305  69.887  0.00  0.00    +0.107 A 
ATOM      5  N   UNL     1     -10.435  17.536  69.583  0.00  0.00    -0.202 NA
ATOM      6  C   UNL     1     -10.177  18.124  68.302  0.00  0.00    +0.114 A 
ATOM      7  C   UNL     1     -10.434  17.497  67.095  0.00  0.00    +0.208 A 
ATOM      8  N   UNL     1     -10.647  16.109  66.848  0.00  0.00    -0.039 NA
ATOM      9  C   UNL     1     -10.987  15.152  67.654  0.00  0.00    +0.326 C 
ATOM     10  N   UNL     1     -11.210  13.914  66.968  0.00  0.00    -0.188 N 
ATOM     11  C   UNL     1     -11.649  12.766  67.756  0.00  0.00    +0.220 C 
ATOM     12  C   UNL     1     -11.384  11.486  67.017  0.00  0.00    +0.124 C 
ATOM     13  N   UNL     1     -10.016  11.334  66.592  0.00  0.00    -0.265 NA
ATOM     14  C   UNL     1     -10.050  10.818  65.230  0.00  0.00    +0.090 C 
ATOM     15  C   UNL     1      -9.292  12.589  66.535  0.00  0.00    +0.124 C 
ATOM     16  C   UNL     1     -10.245  13.605  65.917  0.00  0.00    +0.220 C 
ATOM     17  C   UNL     1     -10.554  18.273  65.947  0.00  0.00    +0.048 A 
ATOM     18  C   UNL     1     -10.375  19.634  66.000  0.00  0.00    +0.004 A 
ATOM     19  C   UNL     1      -9.787  20.146  67.148  0.00  0.00    +0.002 A 
ATOM     20  C   UNL     1      -9.866  19.460  68.349  0.00  0.00    +0.020 A 
ATOM     21  C   UNL     1     -11.421  15.239  69.055  0.00  0.00    +0.104 A 
ATOM     22  C   UNL     1     -11.508  14.065  69.795  0.00  0.00    +0.011 A 
ENDROOT
TORSDOF 0
ENDMDL
MODEL 4
REMARK VINA RESULT:      -7.6      2.069      6.040
REMARK  Name = 
REMARK  0 active torsions:
REMARK  status: ('A' for Active; 'I' for Inactive)
REMARK                            x       y       z     vdW  Elec       q    Type
REMARK                         _______ _______ _______ _____ _____    ______ ____
ROOT
ATOM      1  C   UNL     1     -11.543  11.986  65.782  0.00  0.00    +0.038 C 
ATOM      2  C   UNL     1     -11.309  13.442  66.017  0.00  0.00    +0.009 A 
ATOM      3  S   UNL     1     -10.798  14.694  64.961  0.00  0.00    -0.075 S 
ATOM      4  C   UNL     1     -10.591  15.949  66.113  0.00  0.00    +0.107 A 
ATOM      5  N   UNL     1     -10.206  17.311  65.898  0.00  0.00    -0.202 NA
ATOM      6  C   UNL     1      -9.591  18.225  66.815  0.00  0.00    +0.114 A 
ATOM      7  C   UNL     1      -9.378  17.953  68.156  0.00  0.00    +0.208 A 
ATOM      8  N   UNL     1      -9.992  16.950  68.962  0.00  0.00    -0.039 NA
ATOM      9  C   UNL     1     -10.611  15.861  68.627  0.00  0.00    +0.326 C 
ATOM     10  N   UNL     1     -10.974  15.068  69.763  0.00  0.00    -0.188 N 
ATOM     11  C   UNL     1     -11.634  13.788  69.520  0.00  0.00    +0.220 C 
ATOM     12  C   UNL     1     -12.353  13.322  70.753  0.00  0.00    +0.124 C 
ATOM     13  N   UNL     1     -13.276  14.290  71.288  0.00  0.00    -0.265 NA
ATOM     14  C   UNL     1     -13.101  14.290  72.734  0.00  0.00    +0.090 C 
ATOM     15  C   UNL     1     -13.004  15.644  70.844  0.00  0.00    +0.124 C 
ATOM     16  C   UNL     1     -11.492  15.818  70.904  0.00  0.00    +0.220 C 
ATOM     17  C   UNL     1      -8.425  18.691  68.848  0.00  0.00    +0.048 A 
ATOM     18  C   UNL     1      -7.738  19.705  68.226  0.00  0.00    +0.004 A 
ATOM     19  C   UNL     1      -8.237  20.148  67.009  0.00  0.00    +0.002 A 
ATOM     20  C   UNL     1      -9.011  19.315  66.218  0.00  0.00    +0.020 A 
ATOM     21  C   UNL     1     -10.728  15.240  67.300  0.00  0.00    +0.104 A 
ATOM     22  C   UNL     1     -11.638  14.201  67.134  0.00  0.00    +0.011 A 
ENDROOT
TORSDOF 0
ENDMDL
MODEL 5
REMARK VINA RESULT:      -7.4      1.964      2.792
REMARK  Name = 
REMARK  0 active torsions:
REMARK  status: ('A' for Active; 'I' for Inactive)
REMARK                            x       y       z     vdW  Elec       q    Type
REMARK                         _______ _______ _______ _____ _____    ______ ____
ROOT
ATOM      1  C   UNL     1     -10.342  17.420  68.899  0.00  0.00    +0.038 C 
ATOM      2  C   UNL     1     -11.060  16.164  69.267  0.00  0.00    +0.009 A 
ATOM      3  S   UNL     1     -11.786  15.662  70.739  0.00  0.00    -0.075 S 
ATOM      4  C   UNL     1     -12.153  14.039  70.318  0.00  0.00    +0.107 A 
ATOM      5  N   UNL     1     -12.820  13.039  71.094  0.00  0.00    -0.202 NA
ATOM      6  C   UNL     1     -12.735  11.613  70.983  0.00  0.00    +0.114 A 
ATOM      7  C   UNL     1     -12.056  10.952  69.974  0.00  0.00    +0.208 A 
ATOM      8  N   UNL     1     -11.630  11.465  68.714  0.00  0.00    -0.039 NA
ATOM      9  C   UNL     1     -11.452  12.687  68.316  0.00  0.00    +0.326 C 
ATOM     10  N   UNL     1     -10.898  12.757  66.998  0.00  0.00    -0.188 N 
ATOM     11  C   UNL     1     -10.600  14.078  66.451  0.00  0.00    +0.220 C 
ATOM     12  C   UNL     1     -10.487  14.018  64.955  0.00  0.00    +0.124 C 
ATOM     13  N   UNL     1     -11.635  13.434  64.310  0.00  0.00    -0.265 NA
ATOM     14  C   UNL     1     -11.131  12.540  63.275  0.00  0.00    +0.090 C 
ATOM     15  C   UNL     1     -12.438  12.617  65.200  0.00  0.00    +0.124 C 
ATOM     16  C   UNL     1     -11.456  11.808  66.039  0.00  0.00    +0.220 C 
ATOM     17  C   UNL     1     -11.675   9.630  70.173  0.00  0.00    +0.048 A 
ATOM     18  C   UNL     1     -12.007   8.974  71.334  0.00  0.00    +0.004 A 
ATOM     19  C   UNL     1     -12.969   9.568  72.139  0.00  0.00    +0.002 A 
ATOM     20  C   UNL     1     -13.188  10.935  72.087  0.00  0.00    +0.020 A 
ATOM     21  C   UNL     1     -11.479  13.925  69.109  0.00  0.00    +0.104 A 
ATOM     22  C   UNL     1     -11.496  15.141  68.434  0.00  0.00    +0.011 A 
ENDROOT
TORSDOF 0
ENDMDL
MODEL 6
REMARK VINA RESULT:      -7.3      2.635      5.889
REMARK  Name = 
REMARK  0 active torsions:
REMARK  status: ('A' for Active; 'I' for Inactive)
REMARK                            x       y       z     vdW  Elec       q    Type
REMARK                         _______ _______ _______ _____ _____    ______ ____
ROOT
ATOM      1  C   UNL     1     -13.422  14.446  72.861  0.00  0.00    +0.038 C 
ATOM      2  C   UNL     1     -12.765  14.396  71.521  0.00  0.00    +0.009 A 
ATOM      3  S   UNL     1     -12.445  15.625  70.367  0.00  0.00    -0.075 S 
ATOM      4  C   UNL     1     -11.886  14.642  69.075  0.00  0.00    +0.107 A 
ATOM      5  N   UNL     1     -11.404  15.040  67.788  0.00  0.00    -0.202 NA
ATOM      6  C   UNL     1     -11.375  14.286  66.569  0.00  0.00    +0.114 A 
ATOM      7  C   UNL     1     -11.711  12.947  66.477  0.00  0.00    +0.208 A 
ATOM      8  N   UNL     1     -11.800  11.985  67.525  0.00  0.00    -0.039 NA
ATOM      9  C   UNL     1     -11.931  12.141  68.806  0.00  0.00    +0.326 C 
ATOM     10  N   UNL     1     -12.102  10.897  69.494  0.00  0.00    -0.188 N 
ATOM     11  C   UNL     1     -12.312  10.938  70.939  0.00  0.00    +0.220 C 
ATOM     12  C   UNL     1     -12.003   9.605  71.555  0.00  0.00    +0.124 C 
ATOM     13  N   UNL     1     -10.692   9.106  71.233  0.00  0.00    -0.265 NA
ATOM     14  C   UNL     1     -10.839   7.688  70.930  0.00  0.00    +0.090 C 
ATOM     15  C   UNL     1     -10.121   9.719  70.049  0.00  0.00    +0.124 C 
ATOM     16  C   UNL     1     -11.249   9.808  69.028  0.00  0.00    +0.220 C 
ATOM     17  C   UNL     1     -12.057  12.425  65.236  0.00  0.00    +0.048 A 
ATOM     18  C   UNL     1     -12.022  13.213  64.111  0.00  0.00    +0.004 A 
ATOM     19  C   UNL     1     -11.354  14.425  64.213  0.00  0.00    +0.002 A 
ATOM     20  C   UNL     1     -11.207  15.049  65.441  0.00  0.00    +0.020 A 
ATOM     21  C   UNL     1     -12.193  13.376  69.559  0.00  0.00    +0.104 A 
ATOM     22  C   UNL     1     -12.058  13.347  70.943  0.00  0.00    +0.011 A 
ENDROOT
TORSDOF 0
ENDMDL
MODEL 7
REMARK VINA RESULT:      -7.1      3.126      4.681
REMARK  Name = 
REMARK  0 active torsions:
REMARK  status: ('A' for Active; 'I' for Inactive)
REMARK                            x       y       z     vdW  Elec       q    Type
REMARK                         _______ _______ _______ _____ _____    ______ ____
ROOT
ATOM      1  C   UNL     1     -12.094  16.221  71.646  0.00  0.00    +0.038 C 
ATOM      2  C   UNL     1     -12.419  14.778  71.443  0.00  0.00    +0.009 A 
ATOM      3  S   UNL     1     -13.162  13.626  72.475  0.00  0.00    -0.075 S 
ATOM      4  C   UNL     1     -12.920  12.218  71.525  0.00  0.00    +0.107 A 
ATOM      5  N   UNL     1     -13.342  10.875  71.785  0.00  0.00    -0.202 NA
ATOM      6  C   UNL     1     -12.789   9.649  71.290  0.00  0.00    +0.114 A 
ATOM      7  C   UNL     1     -11.788   9.579  70.336  0.00  0.00    +0.208 A 
ATOM      8  N   UNL     1     -11.363  10.591  69.427  0.00  0.00    -0.039 NA
ATOM      9  C   UNL     1     -11.526  11.877  69.458  0.00  0.00    +0.326 C 
ATOM     10  N   UNL     1     -10.830  12.543  68.399  0.00  0.00    -0.188 N 
ATOM     11  C   UNL     1     -10.891  14.001  68.351  0.00  0.00    +0.220 C 
ATOM     12  C   UNL     1     -10.539  14.500  66.980  0.00  0.00    +0.124 C 
ATOM     13  N   UNL     1     -11.326  13.910  65.928  0.00  0.00    -0.265 NA
ATOM     14  C   UNL     1     -10.411  13.594  64.838  0.00  0.00    +0.090 C 
ATOM     15  C   UNL     1     -11.951  12.659  66.313  0.00  0.00    +0.124 C 
ATOM     16  C   UNL     1     -10.902  11.883  67.098  0.00  0.00    +0.220 C 
ATOM     17  C   UNL     1     -11.039   8.412  70.233  0.00  0.00    +0.048 A 
ATOM     18  C   UNL     1     -11.316   7.330  71.032  0.00  0.00    +0.004 A 
ATOM     19  C   UNL     1     -12.529   7.341  71.707  0.00  0.00    +0.002 A 
ATOM     20  C   UNL     1     -13.163   8.537  72.001  0.00  0.00    +0.020 A 
ATOM     21  C   UNL     1     -12.069  12.709  70.542  0.00  0.00    +0.104 A 
ATOM     22  C   UNL     1     -12.372  14.038  70.267  0.00  0.00    +0.011 A 
ENDROOT
TORSDOF 0
ENDMDL
MODEL 8
REMARK VINA RESULT:      -7.0      3.367      5.330
REMARK  Name = 
REMARK  0 active torsions:
REMARK  status: ('A' for Active; 'I' for Inactive)
REMARK                            x       y       z     vdW  Elec       q    Type
REMARK                         _______ _______ _______ _____ _____    ______ ____
ROOT
ATOM      1  C   UNL     1     -10.112  10.693  63.899  0.00  0.00    +0.038 C 
ATOM      2  C   UNL     1     -10.188  10.443  65.369  0.00  0.00    +0.009 A 
ATOM      3  S   UNL     1     -10.063   8.995  66.282  0.00  0.00    -0.075 S 
ATOM      4  C   UNL     1     -10.489   9.613  67.825  0.00  0.00    +0.107 A 
ATOM      5  N   UNL     1     -10.548   8.930  69.082  0.00  0.00    -0.202 NA
ATOM      6  C   UNL     1     -11.312   9.261  70.248  0.00  0.00    +0.114 A 
ATOM      7  C   UNL     1     -12.052  10.423  70.387  0.00  0.00    +0.208 A 
ATOM      8  N   UNL     1     -11.950  11.630  69.635  0.00  0.00    -0.039 NA
ATOM      9  C   UNL     1     -11.427  11.857  68.470  0.00  0.00    +0.326 C 
ATOM     10  N   UNL     1     -11.645  13.201  68.026  0.00  0.00    -0.188 N 
ATOM     11  C   UNL     1     -11.150  13.572  66.703  0.00  0.00    +0.220 C 
ATOM     12  C   UNL     1     -11.028  15.063  66.585  0.00  0.00    +0.124 C 
ATOM     13  N   UNL     1     -10.235  15.666  67.625  0.00  0.00    -0.265 NA
ATOM     14  C   UNL     1     -10.937  16.869  68.052  0.00  0.00    +0.090 C 
ATOM     15  C   UNL     1     -10.106  14.828  68.803  0.00  0.00    +0.124 C 
ATOM     16  C   UNL     1     -11.483  14.227  69.052  0.00  0.00    +0.220 C 
ATOM     17  C   UNL     1     -13.068  10.464  71.336  0.00  0.00    +0.048 A 
ATOM     18  C   UNL     1     -13.304   9.386  72.154  0.00  0.00    +0.004 A 
ATOM     19  C   UNL     1     -12.323   8.405  72.202  0.00  0.00    +0.002 A 
ATOM     20  C   UNL     1     -11.448   8.229  71.142  0.00  0.00    +0.020 A 
ATOM     21  C   UNL     1     -10.919  10.890  67.486  0.00  0.00    +0.104 A 
ATOM     22  C   UNL     1     -10.187  11.370  66.405  0.00  0.00    +0.011 A 
ENDROOT
TORSDOF 0
ENDMDL
MODEL 9
REMARK VINA RESULT:      -6.7      2.330      5.500
REMARK  Name = 
REMARK  0 active torsions:
REMARK  status: ('A' for Active; 'I' for Inactive)
REMARK                            x       y       z     vdW  Elec       q    Type
REMARK                         _______ _______ _______ _____ _____    ______ ____
ROOT
ATOM      1  C   UNL     1     -12.063  16.312  72.518  0.00  0.00    +0.038 C 
ATOM      2  C   UNL     1     -11.985  15.446  71.304  0.00  0.00    +0.009 A 
ATOM      3  S   UNL     1     -12.487  13.827  71.032  0.00  0.00    -0.075 S 
ATOM      4  C   UNL     1     -11.812  13.595  69.471  0.00  0.00    +0.107 A 
ATOM      5  N   UNL     1     -11.892  12.448  68.619  0.00  0.00    -0.202 NA
ATOM      6  C   UNL     1     -11.001  12.045  67.571  0.00  0.00    +0.114 A 
ATOM      7  C   UNL     1      -9.941  12.811  67.117  0.00  0.00    +0.208 A 
ATOM      8  N   UNL     1      -9.718  14.207  67.299  0.00  0.00    -0.039 NA
ATOM      9  C   UNL     1     -10.211  15.034  68.168  0.00  0.00    +0.326 C 
ATOM     10  N   UNL     1      -9.626  16.338  68.076  0.00  0.00    -0.188 N 
ATOM     11  C   UNL     1     -10.058  17.351  69.034  0.00  0.00    +0.220 C 
ATOM     12  C   UNL     1      -9.735  18.727  68.530  0.00  0.00    +0.124 C 
ATOM     13  N   UNL     1     -10.253  19.000  67.214  0.00  0.00    -0.265 NA
ATOM     14  C   UNL     1      -9.201  19.688  66.477  0.00  0.00    +0.090 C 
ATOM     15  C   UNL     1     -10.562  17.800  66.461  0.00  0.00    +0.124 C 
ATOM     16  C   UNL     1      -9.417  16.829  66.716  0.00  0.00    +0.220 C 
ATOM     17  C   UNL     1      -8.909  12.187  66.424  0.00  0.00    +0.048 A 
ATOM     18  C   UNL     1      -8.962  10.841  66.155  0.00  0.00    +0.004 A 
ATOM     19  C   UNL     1     -10.188  10.213  66.326  0.00  0.00    +0.002 A 
ATOM     20  C   UNL     1     -11.132  10.732  67.197  0.00  0.00    +0.020 A 
ATOM     21  C   UNL     1     -11.039  14.743  69.348  0.00  0.00    +0.104 A 
ATOM     22  C   UNL     1     -11.652  15.806  70.004  0.00  0.00    +0.011 A 
ENDROOT
TORSDOF 0
ENDMDL
