MODEL 1
REMARK VINA RESULT:      -8.4      0.000      0.000
REMARK  Name = 
REMARK  6 active torsions:
REMARK  status: ('A' for Active; 'I' for Inactive)
REMARK    1  A    between atoms: C_2  and  C_3
REMARK    2  A    between atoms: C_2  and  C_19
REMARK    3  A    between atoms: C_3  and  N_4
REMARK    4  A    between atoms: N_4  and  C_5
REMARK    5  A    between atoms: C_5  and  C_6
REMARK    6  A    between atoms: C_6  and  C_8
REMARK                            x       y       z     vdW  Elec       q    Type
REMARK                         _______ _______ _______ _____ _____    ______ ____
ROOT
ATOM      1  N   UNL     1     -10.579  14.139  65.204  0.00  0.00    -0.212 NA
ENDROOT
BRANCH   1   2
ATOM      2  C   UNL     1     -10.461  13.266  66.328  0.00  0.00    +0.125 C 
BRANCH   2   4
ATOM      3  O   UNL     1     -11.974  11.788  67.154  0.00  0.00    -0.218 OA
ATOM      4  C   UNL     1     -11.934  13.313  67.096  0.00  0.00    +0.209 C 
BRANCH   4   5
ATOM      5  C   UNL     1     -11.154  13.498  68.655  0.00  0.00    +0.198 C 
ATOM      6  O   UNL     1     -12.469  13.513  69.468  0.00  0.00    -0.477 OA
ATOM      7  C   UNL     1     -12.296  13.914  70.758  0.00  0.00    +0.135 A 
ATOM      8  C   UNL     1     -11.674  15.127  70.976  0.00  0.00    +0.014 A 
ATOM      9  C   UNL     1     -12.024  15.872  72.083  0.00  0.00    +0.028 A 
ATOM     10  C   UNL     1     -12.981  15.414  72.980  0.00  0.00    +0.140 A 
ATOM     11  C   UNL     1     -13.428  14.111  72.879  0.00  0.00    +0.033 A 
ATOM     12  F   UNL     1     -13.665  16.348  73.670  0.00  0.00    -0.204 F 
ATOM     13  C   UNL     1     -10.786  15.600  69.902  0.00  0.00    +0.033 C 
ATOM     14  C   UNL     1     -12.966  13.337  71.824  0.00  0.00    +0.039 A 
ATOM     15  C   UNL     1     -11.191  15.149  68.521  0.00  0.00    +0.051 C 
ENDBRANCH   4   5
ENDBRANCH   2   4
ENDBRANCH   1   2
BRANCH   1  16
ATOM     16  C   UNL     1      -9.736  15.281  65.222  0.00  0.00    +0.125 C 
BRANCH  16  17
ATOM     17  C   UNL     1     -10.675  16.529  65.788  0.00  0.00    +0.209 C 
ATOM     18  O   UNL     1     -11.109  16.951  64.384  0.00  0.00    -0.218 OA
BRANCH  17  19
ATOM     19  C   UNL     1      -9.342  17.670  65.827  0.00  0.00    +0.198 C 
ATOM     20  O   UNL     1      -8.968  17.351  67.300  0.00  0.00    -0.477 OA
ATOM     21  C   UNL     1      -8.098  18.249  67.871  0.00  0.00    +0.135 A 
ATOM     22  C   UNL     1      -8.592  19.553  67.847  0.00  0.00    +0.014 A 
ATOM     23  C   UNL     1      -7.679  20.569  67.609  0.00  0.00    +0.028 A 
ATOM     24  C   UNL     1      -6.313  20.312  67.570  0.00  0.00    +0.140 A 
ATOM     25  C   UNL     1      -5.907  19.173  68.260  0.00  0.00    +0.033 A 
ATOM     26  F   UNL     1      -5.489  20.989  66.720  0.00  0.00    -0.204 F 
ATOM     27  C   UNL     1      -9.997  19.578  67.417  0.00  0.00    +0.033 C 
ATOM     28  C   UNL     1      -6.761  18.073  68.144  0.00  0.00    +0.039 A 
ATOM     29  C   UNL     1     -10.341  18.936  66.173  0.00  0.00    +0.051 C 
ENDBRANCH  17  19
ENDBRANCH  16  17
ENDBRANCH   1  16
TORSDOF 6
ENDMDL
MODEL 2
REMARK VINA RESULT:      -8.4      3.078      7.179
REMARK  Name = 
REMARK  6 active torsions:
REMARK  status: ('A' for Active; 'I' for Inactive)
REMARK    1  A    between atoms: C_2  and  C_3
REMARK    2  A    between atoms: C_2  and  C_19
REMARK    3  A    between atoms: C_3  and  N_4
REMARK    4  A    between atoms: N_4  and  C_5
REMARK    5  A    between atoms: C_5  and  C_6
REMARK    6  A    between atoms: C_6  and  C_8
REMARK                            x       y       z     vdW  Elec       q    Type
REMARK                         _______ _______ _______ _____ _____    ______ ____
ROOT
ATOM      1  N   UNL     1     -12.388  13.586  63.544  0.00  0.00    -0.212 NA
ENDROOT
BRANCH   1   2
ATOM      2  C   UNL     1     -12.336  14.540  64.605  0.00  0.00    +0.125 C 
BRANCH   2   4
ATOM      3  O   UNL     1     -11.727  16.614  63.910  0.00  0.00    -0.218 OA
ATOM      4  C   UNL     1     -10.931  15.397  64.376  0.00  0.00    +0.209 C 
BRANCH   4   5
ATOM      5  C   UNL     1     -10.907  15.876  66.062  0.00  0.00    +0.198 C 
ATOM      6  O   UNL     1     -10.390  17.308  65.794  0.00  0.00    -0.477 OA
ATOM      7  C   UNL     1      -9.978  17.949  66.922  0.00  0.00    +0.135 A 
ATOM      8  C   UNL     1      -9.035  17.320  67.710  0.00  0.00    +0.014 A 
ATOM      9  C   UNL     1      -8.136  18.088  68.423  0.00  0.00    +0.028 A 
ATOM     10  C   UNL     1      -8.177  19.475  68.366  0.00  0.00    +0.140 A 
ATOM     11  C   UNL     1      -9.256  20.092  67.762  0.00  0.00    +0.033 A 
ATOM     12  F   UNL     1      -7.019  20.128  68.589  0.00  0.00    -0.204 F 
ATOM     13  C   UNL     1      -8.968  15.855  67.595  0.00  0.00    +0.033 C 
ATOM     14  C   UNL     1     -10.215  19.293  67.156  0.00  0.00    +0.039 A 
ATOM     15  C   UNL     1      -9.356  15.323  66.237  0.00  0.00    +0.051 C 
ENDBRANCH   4   5
ENDBRANCH   2   4
ENDBRANCH   1   2
BRANCH   1  16
ATOM     16  C   UNL     1     -12.150  12.237  63.919  0.00  0.00    +0.125 C 
BRANCH  16  17
ATOM     17  C   UNL     1     -10.502  12.095  64.080  0.00  0.00    +0.209 C 
ATOM     18  O   UNL     1     -10.428  10.901  63.126  0.00  0.00    -0.218 OA
BRANCH  17  19
ATOM     19  C   UNL     1     -10.612  11.077  65.505  0.00  0.00    +0.198 C 
ATOM     20  O   UNL     1     -10.893  12.264  66.467  0.00  0.00    -0.477 OA
ATOM     21  C   UNL     1     -10.781  11.952  67.800  0.00  0.00    +0.135 A 
ATOM     22  C   UNL     1      -9.519  11.455  68.122  0.00  0.00    +0.014 A 
ATOM     23  C   UNL     1      -9.464  10.431  69.056  0.00  0.00    +0.028 A 
ATOM     24  C   UNL     1     -10.597  10.042  69.762  0.00  0.00    +0.140 A 
ATOM     25  C   UNL     1     -11.590  11.013  69.866  0.00  0.00    +0.033 A 
ATOM     26  F   UNL     1     -10.806   8.738  70.105  0.00  0.00    -0.204 F 
ATOM     27  C   UNL     1      -8.588  11.605  66.995  0.00  0.00    +0.033 C 
ATOM     28  C   UNL     1     -11.794  11.779  68.715  0.00  0.00    +0.039 A 
ATOM     29  C   UNL     1      -8.975  11.070  65.715  0.00  0.00    +0.051 C 
ENDBRANCH  17  19
ENDBRANCH  16  17
ENDBRANCH   1  16
TORSDOF 6
ENDMDL
MODEL 3
REMARK VINA RESULT:      -8.3      3.981      7.627
REMARK  Name = 
REMARK  6 active torsions:
REMARK  status: ('A' for Active; 'I' for Inactive)
REMARK    1  A    between atoms: C_2  and  C_3
REMARK    2  A    between atoms: C_2  and  C_19
REMARK    3  A    between atoms: C_3  and  N_4
REMARK    4  A    between atoms: N_4  and  C_5
REMARK    5  A    between atoms: C_5  and  C_6
REMARK    6  A    between atoms: C_6  and  C_8
REMARK                            x       y       z     vdW  Elec       q    Type
REMARK                         _______ _______ _______ _____ _____    ______ ____
ROOT
ATOM      1  N   UNL     1     -10.431  11.486  65.752  0.00  0.00    -0.212 NA
ENDROOT
BRANCH   1   2
ATOM      2  C   UNL     1      -9.931  12.503  66.620  0.00  0.00    +0.125 C 
BRANCH   2   4
ATOM      3  O   UNL     1     -12.107  12.274  67.227  0.00  0.00    -0.218 OA
ATOM      4  C   UNL     1     -11.225  13.490  66.955  0.00  0.00    +0.209 C 
BRANCH   4   5
ATOM      5  C   UNL     1     -10.703  13.666  68.620  0.00  0.00    +0.198 C 
ATOM      6  O   UNL     1     -12.127  13.617  69.219  0.00  0.00    -0.477 OA
ATOM      7  C   UNL     1     -12.171  13.994  70.527  0.00  0.00    +0.135 A 
ATOM      8  C   UNL     1     -11.637  15.222  70.859  0.00  0.00    +0.014 A 
ATOM      9  C   UNL     1     -12.183  15.930  71.911  0.00  0.00    +0.028 A 
ATOM     10  C   UNL     1     -13.248  15.418  72.640  0.00  0.00    +0.140 A 
ATOM     11  C   UNL     1     -13.624  14.102  72.449  0.00  0.00    +0.033 A 
ATOM     12  F   UNL     1     -14.066  16.312  73.233  0.00  0.00    -0.204 F 
ATOM     13  C   UNL     1     -10.613  15.751  69.945  0.00  0.00    +0.033 C 
ATOM     14  C   UNL     1     -12.976  13.370  71.465  0.00  0.00    +0.039 A 
ATOM     15  C   UNL     1     -10.782  15.317  68.510  0.00  0.00    +0.051 C 
ENDBRANCH   4   5
ENDBRANCH   2   4
ENDBRANCH   1   2
BRANCH   1  16
ATOM     16  C   UNL     1     -10.153  10.149  66.146  0.00  0.00    +0.125 C 
BRANCH  16  17
ATOM     17  C   UNL     1      -9.094  10.263  67.421  0.00  0.00    +0.209 C 
ATOM     18  O   UNL     1      -8.219   9.120  66.904  0.00  0.00    -0.218 OA
BRANCH  17  19
ATOM     19  C   UNL     1     -10.040   9.206  68.453  0.00  0.00    +0.198 C 
ATOM     20  O   UNL     1     -10.543  10.362  69.362  0.00  0.00    -0.477 OA
ATOM     21  C   UNL     1     -11.136   9.947  70.530  0.00  0.00    +0.135 A 
ATOM     22  C   UNL     1     -10.284   9.160  71.304  0.00  0.00    +0.014 A 
ATOM     23  C   UNL     1     -10.856   8.091  71.980  0.00  0.00    +0.028 A 
ATOM     24  C   UNL     1     -12.235   7.923  72.021  0.00  0.00    +0.140 A 
ATOM     25  C   UNL     1     -12.977   9.084  71.820  0.00  0.00    +0.033 A 
ATOM     26  F   UNL     1     -12.797   6.680  72.014  0.00  0.00    -0.204 F 
ATOM     27  C   UNL     1      -8.918   9.169  70.764  0.00  0.00    +0.033 C 
ATOM     28  C   UNL     1     -12.475   9.948  70.844  0.00  0.00    +0.039 A 
ATOM     29  C   UNL     1      -8.730   8.819  69.378  0.00  0.00    +0.051 C 
ENDBRANCH  17  19
ENDBRANCH  16  17
ENDBRANCH   1  16
TORSDOF 6
ENDMDL
MODEL 4
REMARK VINA RESULT:      -8.3      3.057      8.228
REMARK  Name = 
REMARK  6 active torsions:
REMARK  status: ('A' for Active; 'I' for Inactive)
REMARK    1  A    between atoms: C_2  and  C_3
REMARK    2  A    between atoms: C_2  and  C_19
REMARK    3  A    between atoms: C_3  and  N_4
REMARK    4  A    between atoms: N_4  and  C_5
REMARK    5  A    between atoms: C_5  and  C_6
REMARK    6  A    between atoms: C_6  and  C_8
REMARK                            x       y       z     vdW  Elec       q    Type
REMARK                         _______ _______ _______ _____ _____    ______ ____
ROOT
ATOM      1  N   UNL     1     -11.820  13.052  65.163  0.00  0.00    -0.212 NA
ENDROOT
BRANCH   1   2
ATOM      2  C   UNL     1     -12.220  14.411  64.987  0.00  0.00    +0.125 C 
BRANCH   2   4
ATOM      3  O   UNL     1     -11.643  16.339  63.937  0.00  0.00    -0.218 OA
ATOM      4  C   UNL     1     -10.831  15.252  64.637  0.00  0.00    +0.209 C 
BRANCH   4   5
ATOM      5  C   UNL     1     -10.867  16.032  66.207  0.00  0.00    +0.198 C 
ATOM      6  O   UNL     1     -10.161  17.325  65.738  0.00  0.00    -0.477 OA
ATOM      7  C   UNL     1      -9.753  18.116  66.768  0.00  0.00    +0.135 A 
ATOM      8  C   UNL     1      -8.951  17.548  67.736  0.00  0.00    +0.014 A 
ATOM      9  C   UNL     1      -8.017  18.333  68.381  0.00  0.00    +0.028 A 
ATOM     10  C   UNL     1      -7.884  19.682  68.076  0.00  0.00    +0.140 A 
ATOM     11  C   UNL     1      -8.835  20.288  67.277  0.00  0.00    +0.033 A 
ATOM     12  F   UNL     1      -6.673  20.237  68.284  0.00  0.00    -0.204 F 
ATOM     13  C   UNL     1      -9.057  16.089  67.889  0.00  0.00    +0.033 C 
ATOM     14  C   UNL     1      -9.839  19.498  66.737  0.00  0.00    +0.039 A 
ATOM     15  C   UNL     1      -9.411  15.358  66.618  0.00  0.00    +0.051 C 
ENDBRANCH   4   5
ENDBRANCH   2   4
ENDBRANCH   1   2
BRANCH   1  16
ATOM     16  C   UNL     1     -11.981  12.528  66.473  0.00  0.00    +0.125 C 
BRANCH  16  17
ATOM     17  C   UNL     1     -10.533  11.811  66.857  0.00  0.00    +0.209 C 
ATOM     18  O   UNL     1     -10.539  10.935  65.604  0.00  0.00    -0.218 OA
BRANCH  17  19
ATOM     19  C   UNL     1     -11.275  10.570  67.850  0.00  0.00    +0.198 C 
ATOM     20  O   UNL     1     -11.302  11.454  69.128  0.00  0.00    -0.477 OA
ATOM     21  C   UNL     1     -11.574  10.767  70.287  0.00  0.00    +0.135 A 
ATOM     22  C   UNL     1     -10.660   9.740  70.519  0.00  0.00    +0.014 A 
ATOM     23  C   UNL     1     -11.158   8.564  71.061  0.00  0.00    +0.028 A 
ATOM     24  C   UNL     1     -12.471   8.481  71.511  0.00  0.00    +0.140 A 
ATOM     25  C   UNL     1     -13.054   9.697  71.857  0.00  0.00    +0.033 A 
ATOM     26  F   UNL     1     -13.192   7.330  71.384  0.00  0.00    -0.204 F 
ATOM     27  C   UNL     1      -9.533   9.811  69.578  0.00  0.00    +0.033 C 
ATOM     28  C   UNL     1     -12.741  10.766  71.014  0.00  0.00    +0.039 A 
ATOM     29  C   UNL     1      -9.824   9.853  68.167  0.00  0.00    +0.051 C 
ENDBRANCH  17  19
ENDBRANCH  16  17
ENDBRANCH   1  16
TORSDOF 6
ENDMDL
MODEL 5
REMARK VINA RESULT:      -8.0      3.535      4.858
REMARK  Name = 
REMARK  6 active torsions:
REMARK  status: ('A' for Active; 'I' for Inactive)
REMARK    1  A    between atoms: C_2  and  C_3
REMARK    2  A    between atoms: C_2  and  C_19
REMARK    3  A    between atoms: C_3  and  N_4
REMARK    4  A    between atoms: N_4  and  C_5
REMARK    5  A    between atoms: C_5  and  C_6
REMARK    6  A    between atoms: C_6  and  C_8
REMARK                            x       y       z     vdW  Elec       q    Type
REMARK                         _______ _______ _______ _____ _____    ______ ____
ROOT
ATOM      1  N   UNL     1      -9.978  10.545  64.120  0.00  0.00    -0.212 NA
ENDROOT
BRANCH   1   2
ATOM      2  C   UNL     1      -9.283  10.377  65.356  0.00  0.00    +0.125 C 
BRANCH   2   4
ATOM      3  O   UNL     1      -8.753   8.358  66.249  0.00  0.00    -0.218 OA
ATOM      4  C   UNL     1     -10.060   9.141  66.150  0.00  0.00    +0.209 C 
BRANCH   4   5
ATOM      5  C   UNL     1      -9.858   9.957  67.689  0.00  0.00    +0.198 C 
ATOM      6  O   UNL     1     -10.432   8.800  68.537  0.00  0.00    -0.477 OA
ATOM      7  C   UNL     1     -10.695   9.158  69.824  0.00  0.00    +0.135 A 
ATOM      8  C   UNL     1     -11.509  10.253  70.033  0.00  0.00    +0.014 A 
ATOM      9  C   UNL     1     -12.314  10.288  71.154  0.00  0.00    +0.028 A 
ATOM     10  C   UNL     1     -12.305   9.247  72.073  0.00  0.00    +0.140 A 
ATOM     11  C   UNL     1     -11.330   8.272  71.976  0.00  0.00    +0.033 A 
ATOM     12  F   UNL     1     -13.432   9.055  72.788  0.00  0.00    -0.204 F 
ATOM     13  C   UNL     1     -11.565  11.234  68.939  0.00  0.00    +0.033 C 
ATOM     14  C   UNL     1     -10.451   8.326  70.904  0.00  0.00    +0.039 A 
ATOM     15  C   UNL     1     -11.361  10.643  67.566  0.00  0.00    +0.051 C 
ENDBRANCH   4   5
ENDBRANCH   2   4
ENDBRANCH   1   2
BRANCH   1  16
ATOM     16  C   UNL     1     -10.281  11.886  63.763  0.00  0.00    +0.125 C 
BRANCH  16  17
ATOM     17  C   UNL     1     -11.683  12.264  64.570  0.00  0.00    +0.209 C 
ATOM     18  O   UNL     1     -12.420  12.640  63.283  0.00  0.00    -0.218 OA
BRANCH  17  19
ATOM     19  C   UNL     1     -11.191  13.918  64.889  0.00  0.00    +0.198 C 
ATOM     20  O   UNL     1     -10.138  13.514  65.958  0.00  0.00    -0.477 OA
ATOM     21  C   UNL     1      -9.666  14.562  66.711  0.00  0.00    +0.135 A 
ATOM     22  C   UNL     1     -10.687  15.237  67.378  0.00  0.00    +0.014 A 
ATOM     23  C   UNL     1     -10.573  16.617  67.474  0.00  0.00    +0.028 A 
ATOM     24  C   UNL     1      -9.411  17.269  67.079  0.00  0.00    +0.140 A 
ATOM     25  C   UNL     1      -8.261  16.483  67.083  0.00  0.00    +0.033 A 
ATOM     26  F   UNL     1      -9.454  18.505  66.503  0.00  0.00    -0.204 F 
ATOM     27  C   UNL     1     -11.961  14.513  67.266  0.00  0.00    +0.033 C 
ATOM     28  C   UNL     1      -8.436  15.174  66.629  0.00  0.00    +0.039 A 
ATOM     29  C   UNL     1     -12.431  14.158  65.951  0.00  0.00    +0.051 C 
ENDBRANCH  17  19
ENDBRANCH  16  17
ENDBRANCH   1  16
TORSDOF 6
ENDMDL
MODEL 6
REMARK VINA RESULT:      -8.0      3.267      8.578
REMARK  Name = 
REMARK  6 active torsions:
REMARK  status: ('A' for Active; 'I' for Inactive)
REMARK    1  A    between atoms: C_2  and  C_3
REMARK    2  A    between atoms: C_2  and  C_19
REMARK    3  A    between atoms: C_3  and  N_4
REMARK    4  A    between atoms: N_4  and  C_5
REMARK    5  A    between atoms: C_5  and  C_6
REMARK    6  A    between atoms: C_6  and  C_8
REMARK                            x       y       z     vdW  Elec       q    Type
REMARK                         _______ _______ _______ _____ _____    ______ ____
ROOT
ATOM      1  N   UNL     1     -10.736  16.956  68.709  0.00  0.00    -0.212 NA
ENDROOT
BRANCH   1   2
ATOM      2  C   UNL     1     -10.576  17.987  67.734  0.00  0.00    +0.125 C 
BRANCH   2   4
ATOM      3  O   UNL     1     -10.163  17.470  65.563  0.00  0.00    -0.218 OA
ATOM      4  C   UNL     1      -9.276  17.535  66.804  0.00  0.00    +0.209 C 
BRANCH   4   5
ATOM      5  C   UNL     1      -8.817  19.210  66.568  0.00  0.00    +0.198 C 
ATOM      6  O   UNL     1      -7.618  18.899  65.643  0.00  0.00    -0.477 OA
ATOM      7  C   UNL     1      -6.806  19.972  65.440  0.00  0.00    +0.135 A 
ATOM      8  C   UNL     1      -6.301  20.616  66.551  0.00  0.00    +0.014 A 
ATOM      9  C   UNL     1      -5.060  21.215  66.474  0.00  0.00    +0.028 A 
ATOM     10  C   UNL     1      -4.324  21.187  65.296  0.00  0.00    +0.140 A 
ATOM     11  C   UNL     1      -4.929  20.743  64.136  0.00  0.00    +0.033 A 
ATOM     12  F   UNL     1      -2.983  21.264  65.414  0.00  0.00    -0.204 F 
ATOM     13  C   UNL     1      -7.078  20.470  67.791  0.00  0.00    +0.033 C 
ATOM     14  C   UNL     1      -6.226  20.257  64.215  0.00  0.00    +0.039 A 
ATOM     15  C   UNL     1      -7.832  19.167  67.899  0.00  0.00    +0.051 C 
ENDBRANCH   4   5
ENDBRANCH   2   4
ENDBRANCH   1   2
BRANCH   1  16
ATOM     16  C   UNL     1     -11.671  15.938  68.379  0.00  0.00    +0.125 C 
BRANCH  16  17
ATOM     17  C   UNL     1     -11.033  14.526  68.978  0.00  0.00    +0.209 C 
ATOM     18  O   UNL     1      -9.673  15.164  69.265  0.00  0.00    -0.218 OA
BRANCH  17  19
ATOM     19  C   UNL     1     -10.538  13.942  67.400  0.00  0.00    +0.198 C 
ATOM     20  O   UNL     1     -11.969  13.492  66.995  0.00  0.00    -0.477 OA
ATOM     21  C   UNL     1     -12.017  12.692  65.879  0.00  0.00    +0.135 A 
ATOM     22  C   UNL     1     -11.251  11.536  66.024  0.00  0.00    +0.014 A 
ATOM     23  C   UNL     1     -10.562  11.093  64.903  0.00  0.00    +0.028 A 
ATOM     24  C   UNL     1     -10.768  11.674  63.658  0.00  0.00    +0.140 A 
ATOM     25  C   UNL     1     -11.995  12.314  63.500  0.00  0.00    +0.033 A 
ATOM     26  F   UNL     1      -9.748  11.812  62.763  0.00  0.00    -0.204 F 
ATOM     27  C   UNL     1     -10.777  11.385  67.406  0.00  0.00    +0.033 C 
ATOM     28  C   UNL     1     -12.438  13.032  64.614  0.00  0.00    +0.039 A 
ATOM     29  C   UNL     1     -10.064  12.483  68.007  0.00  0.00    +0.051 C 
ENDBRANCH  17  19
ENDBRANCH  16  17
ENDBRANCH   1  16
TORSDOF 6
ENDMDL
MODEL 7
REMARK VINA RESULT:      -7.9      2.647      3.209
REMARK  Name = 
REMARK  6 active torsions:
REMARK  status: ('A' for Active; 'I' for Inactive)
REMARK    1  A    between atoms: C_2  and  C_3
REMARK    2  A    between atoms: C_2  and  C_19
REMARK    3  A    between atoms: C_3  and  N_4
REMARK    4  A    between atoms: N_4  and  C_5
REMARK    5  A    between atoms: C_5  and  C_6
REMARK    6  A    between atoms: C_6  and  C_8
REMARK                            x       y       z     vdW  Elec       q    Type
REMARK                         _______ _______ _______ _____ _____    ______ ____
ROOT
ATOM      1  N   UNL     1     -10.016  13.650  66.121  0.00  0.00    -0.212 NA
ENDROOT
BRANCH   1   2
ATOM      2  C   UNL     1      -9.373  12.516  66.703  0.00  0.00    +0.125 C 
BRANCH   2   4
ATOM      3  O   UNL     1      -9.516  10.251  66.628  0.00  0.00    -0.218 OA
ATOM      4  C   UNL     1     -10.550  11.352  66.851  0.00  0.00    +0.209 C 
BRANCH   4   5
ATOM      5  C   UNL     1     -10.384  11.357  68.596  0.00  0.00    +0.198 C 
ATOM      6  O   UNL     1     -11.150  10.032  68.813  0.00  0.00    -0.477 OA
ATOM      7  C   UNL     1     -11.475   9.808  70.116  0.00  0.00    +0.135 A 
ATOM      8  C   UNL     1     -12.177  10.793  70.781  0.00  0.00    +0.014 A 
ATOM      9  C   UNL     1     -13.061  10.431  71.778  0.00  0.00    +0.028 A 
ATOM     10  C   UNL     1     -13.241   9.098  72.124  0.00  0.00    +0.140 A 
ATOM     11  C   UNL     1     -12.376   8.148  71.616  0.00  0.00    +0.033 A 
ATOM     12  F   UNL     1     -14.437   8.762  72.649  0.00  0.00    -0.204 F 
ATOM     13  C   UNL     1     -12.036  12.158  70.252  0.00  0.00    +0.033 C 
ATOM     14  C   UNL     1     -11.412   8.556  70.706  0.00  0.00    +0.039 A 
ATOM     15  C   UNL     1     -11.787  12.222  68.765  0.00  0.00    +0.051 C 
ENDBRANCH   4   5
ENDBRANCH   2   4
ENDBRANCH   1   2
BRANCH   1  16
ATOM     16  C   UNL     1      -9.303  14.875  66.211  0.00  0.00    +0.125 C 
BRANCH  16  17
ATOM     17  C   UNL     1     -10.457  16.069  66.262  0.00  0.00    +0.209 C 
ATOM     18  O   UNL     1     -10.661  16.052  64.747  0.00  0.00    -0.218 OA
BRANCH  17  19
ATOM     19  C   UNL     1      -9.282  17.370  66.191  0.00  0.00    +0.198 C 
ATOM     20  O   UNL     1      -9.058  17.400  67.728  0.00  0.00    -0.477 OA
ATOM     21  C   UNL     1      -8.377  18.505  68.179  0.00  0.00    +0.135 A 
ATOM     22  C   UNL     1      -9.014  19.696  67.835  0.00  0.00    +0.014 A 
ATOM     23  C   UNL     1      -8.203  20.764  67.479  0.00  0.00    +0.028 A 
ATOM     24  C   UNL     1      -6.823  20.698  67.628  0.00  0.00    +0.140 A 
ATOM     25  C   UNL     1      -6.375  19.783  68.578  0.00  0.00    +0.033 A 
ATOM     26  F   UNL     1      -5.984  21.305  66.740  0.00  0.00    -0.204 F 
ATOM     27  C   UNL     1     -10.348  19.440  67.274  0.00  0.00    +0.033 C 
ATOM     28  C   UNL     1      -7.073  18.574  68.612  0.00  0.00    +0.039 A 
ATOM     29  C   UNL     1     -10.458  18.527  66.165  0.00  0.00    +0.051 C 
ENDBRANCH  17  19
ENDBRANCH  16  17
ENDBRANCH   1  16
TORSDOF 6
ENDMDL
MODEL 8
REMARK VINA RESULT:      -7.9      3.613      8.678
REMARK  Name = 
REMARK  6 active torsions:
REMARK  status: ('A' for Active; 'I' for Inactive)
REMARK    1  A    between atoms: C_2  and  C_3
REMARK    2  A    between atoms: C_2  and  C_19
REMARK    3  A    between atoms: C_3  and  N_4
REMARK    4  A    between atoms: N_4  and  C_5
REMARK    5  A    between atoms: C_5  and  C_6
REMARK    6  A    between atoms: C_6  and  C_8
REMARK                            x       y       z     vdW  Elec       q    Type
REMARK                         _______ _______ _______ _____ _____    ______ ____
ROOT
ATOM      1  N   UNL     1     -10.520  17.631  69.068  0.00  0.00    -0.212 NA
ENDROOT
BRANCH   1   2
ATOM      2  C   UNL     1      -9.823  18.779  68.583  0.00  0.00    +0.125 C 
BRANCH   2   4
ATOM      3  O   UNL     1     -10.143  20.005  66.700  0.00  0.00    -0.218 OA
ATOM      4  C   UNL     1      -9.689  18.568  66.941  0.00  0.00    +0.209 C 
BRANCH   4   5
ATOM      5  C   UNL     1      -7.982  18.962  66.995  0.00  0.00    +0.198 C 
ATOM      6  O   UNL     1      -7.902  19.444  65.529  0.00  0.00    -0.477 OA
ATOM      7  C   UNL     1      -6.624  19.602  65.086  0.00  0.00    +0.135 A 
ATOM      8  C   UNL     1      -5.765  18.528  65.204  0.00  0.00    +0.014 A 
ATOM      9  C   UNL     1      -4.765  18.361  64.268  0.00  0.00    +0.028 A 
ATOM     10  C   UNL     1      -4.607  19.261  63.222  0.00  0.00    +0.140 A 
ATOM     11  C   UNL     1      -5.319  20.445  63.240  0.00  0.00    +0.033 A 
ATOM     12  F   UNL     1      -4.042  18.789  62.093  0.00  0.00    -0.204 F 
ATOM     13  C   UNL     1      -6.096  17.549  66.251  0.00  0.00    +0.033 C 
ATOM     14  C   UNL     1      -6.235  20.646  64.263  0.00  0.00    +0.039 A 
ATOM     15  C   UNL     1      -7.572  17.424  66.538  0.00  0.00    +0.051 C 
ENDBRANCH   4   5
ENDBRANCH   2   4
ENDBRANCH   1   2
BRANCH   1  16
ATOM     16  C   UNL     1     -10.897  16.678  68.084  0.00  0.00    +0.125 C 
BRANCH  16  17
ATOM     17  C   UNL     1     -10.692  15.189  68.792  0.00  0.00    +0.209 C 
ATOM     18  O   UNL     1      -9.223  15.456  69.123  0.00  0.00    -0.218 OA
BRANCH  17  19
ATOM     19  C   UNL     1     -10.309  14.391  67.277  0.00  0.00    +0.198 C 
ATOM     20  O   UNL     1     -11.793  14.301  66.824  0.00  0.00    -0.477 OA
ATOM     21  C   UNL     1     -12.008  13.467  65.753  0.00  0.00    +0.135 A 
ATOM     22  C   UNL     1     -11.576  12.164  66.002  0.00  0.00    +0.014 A 
ATOM     23  C   UNL     1     -10.987  11.483  64.947  0.00  0.00    +0.028 A 
ATOM     24  C   UNL     1     -10.988  12.012  63.662  0.00  0.00    +0.140 A 
ATOM     25  C   UNL     1     -11.998  12.935  63.404  0.00  0.00    +0.033 A 
ATOM     26  F   UNL     1      -9.935  11.819  62.816  0.00  0.00    -0.204 F 
ATOM     27  C   UNL     1     -11.209  11.990  67.414  0.00  0.00    +0.033 C 
ATOM     28  C   UNL     1     -12.278  13.817  64.450  0.00  0.00    +0.039 A 
ATOM     29  C   UNL     1     -10.257  12.905  67.990  0.00  0.00    +0.051 C 
ENDBRANCH  17  19
ENDBRANCH  16  17
ENDBRANCH   1  16
TORSDOF 6
ENDMDL
MODEL 9
REMARK VINA RESULT:      -7.8      2.803      3.469
REMARK  Name = 
REMARK  6 active torsions:
REMARK  status: ('A' for Active; 'I' for Inactive)
REMARK    1  A    between atoms: C_2  and  C_3
REMARK    2  A    between atoms: C_2  and  C_19
REMARK    3  A    between atoms: C_3  and  N_4
REMARK    4  A    between atoms: N_4  and  C_5
REMARK    5  A    between atoms: C_5  and  C_6
REMARK    6  A    between atoms: C_6  and  C_8
REMARK                            x       y       z     vdW  Elec       q    Type
REMARK                         _______ _______ _______ _____ _____    ______ ____
ROOT
ATOM      1  N   UNL     1     -10.506  14.198  66.192  0.00  0.00    -0.212 NA
ENDROOT
BRANCH   1   2
ATOM      2  C   UNL     1     -11.626  13.749  66.956  0.00  0.00    +0.125 C 
BRANCH   2   4
ATOM      3  O   UNL     1     -12.310  14.083  69.094  0.00  0.00    -0.218 OA
ATOM      4  C   UNL     1     -11.049  13.473  68.489  0.00  0.00    +0.209 C 
BRANCH   4   5
ATOM      5  C   UNL     1     -11.676  11.836  68.467  0.00  0.00    +0.198 C 
ATOM      6  O   UNL     1     -11.929  11.762  69.990  0.00  0.00    -0.477 OA
ATOM      7  C   UNL     1     -12.189  10.500  70.429  0.00  0.00    +0.135 A 
ATOM      8  C   UNL     1     -11.274   9.513  70.125  0.00  0.00    +0.014 A 
ATOM      9  C   UNL     1     -11.101   8.463  71.004  0.00  0.00    +0.028 A 
ATOM     10  C   UNL     1     -11.840   8.383  72.177  0.00  0.00    +0.140 A 
ATOM     11  C   UNL     1     -12.905   9.245  72.361  0.00  0.00    +0.033 A 
ATOM     12  F   UNL     1     -11.280   7.717  73.206  0.00  0.00    -0.204 F 
ATOM     13  C   UNL     1     -10.433   9.753  68.942  0.00  0.00    +0.033 C 
ATOM     14  C   UNL     1     -13.136  10.218  71.400  0.00  0.00    +0.039 A 
ATOM     15  C   UNL     1     -10.155  11.210  68.666  0.00  0.00    +0.051 C 
ENDBRANCH   4   5
ENDBRANCH   2   4
ENDBRANCH   1   2
BRANCH   1  16
ATOM     16  C   UNL     1      -9.722  15.220  66.791  0.00  0.00    +0.125 C 
BRANCH  16  17
ATOM     17  C   UNL     1     -10.543  16.639  66.517  0.00  0.00    +0.209 C 
ATOM     18  O   UNL     1     -10.590  16.417  65.004  0.00  0.00    -0.218 OA
BRANCH  17  19
ATOM     19  C   UNL     1      -9.080  17.604  66.430  0.00  0.00    +0.198 C 
ATOM     20  O   UNL     1      -8.988  17.802  67.968  0.00  0.00    -0.477 OA
ATOM     21  C   UNL     1      -8.095  18.769  68.363  0.00  0.00    +0.135 A 
ATOM     22  C   UNL     1      -8.385  20.015  67.807  0.00  0.00    +0.014 A 
ATOM     23  C   UNL     1      -7.307  20.800  67.424  0.00  0.00    +0.028 A 
ATOM     24  C   UNL     1      -6.004  20.435  67.742  0.00  0.00    +0.140 A 
ATOM     25  C   UNL     1      -5.880  19.587  68.840  0.00  0.00    +0.033 A 
ATOM     26  F   UNL     1      -4.969  20.694  66.893  0.00  0.00    -0.204 F 
ATOM     27  C   UNL     1      -9.688  20.000  67.127  0.00  0.00    +0.033 C 
ATOM     28  C   UNL     1      -6.856  18.593  68.935  0.00  0.00    +0.039 A 
ATOM     29  C   UNL     1      -9.925  18.989  66.129  0.00  0.00    +0.051 C 
ENDBRANCH  17  19
ENDBRANCH  16  17
ENDBRANCH   1  16
TORSDOF 6
ENDMDL
