MODEL 1
REMARK VINA RESULT:      -8.3      0.000      0.000
REMARK  Name = 
REMARK  7 active torsions:
REMARK  status: ('A' for Active; 'I' for Inactive)
REMARK    1  A    between atoms: C_2  and  C_5
REMARK    2  A    between atoms: C_35  and  C_36
REMARK    3  A    between atoms: N_38  and  C_39
REMARK    4  A    between atoms: C_39  and  C_40
REMARK    5  A    between atoms: N_42  and  S_43
REMARK    6  A    between atoms: S_43  and  C_46
REMARK    7  A    between atoms: C_51  and  C_52
REMARK                            x       y       z     vdW  Elec       q    Type
REMARK                         _______ _______ _______ _____ _____    ______ ____
ROOT
ATOM      1  C   UNL     1      -9.410   7.979  70.841  0.00  0.00    +0.174 C 
ATOM      2  C   UNL     1      -9.074   9.227  69.876  0.00  0.00    +0.246 C 
ATOM      3  O   UNL     1      -8.472  10.192  70.299  0.00  0.00    -0.273 OA
ATOM      4  N   UNL     1      -9.270   8.864  68.514  0.00  0.00    -0.268 N 
ATOM      5  C   UNL     1      -8.448   7.730  68.085  0.00  0.00    +0.137 C 
ATOM      6  C   UNL     1      -9.314   7.217  66.782  0.00  0.00    +0.189 C 
ATOM      7  C   UNL     1      -9.717   8.727  66.292  0.00  0.00    +0.075 C 
ATOM      8  O   UNL     1      -8.066   7.192  65.876  0.00  0.00    -0.461 OA
ATOM      9  C   UNL     1      -8.228   6.140  64.953  0.00  0.00    +0.244 A 
ATOM     10  C   UNL     1      -9.027   5.051  65.289  0.00  0.00    +0.176 A 
ATOM     11  N   UNL     1      -9.194   4.223  64.215  0.00  0.00    -0.238 NA
ATOM     12  C   UNL     1      -8.475   4.231  63.110  0.00  0.00    +0.099 A 
ATOM     13  C   UNL     1      -7.500   5.172  62.977  0.00  0.00    +0.102 A 
ATOM     14  C   UNL     1      -6.382   4.854  62.199  0.00  0.00    +0.021 A 
ATOM     15  C   UNL     1      -6.339   3.639  61.522  0.00  0.00    +0.002 A 
ATOM     16  C   UNL     1      -7.583   3.098  61.217  0.00  0.00    +0.002 A 
ATOM     17  C   UNL     1      -8.669   3.353  62.047  0.00  0.00    +0.021 A 
ATOM     18  C   UNL     1      -9.169   4.651  66.615  0.00  0.00    +0.321 C 
ATOM     19  F   UNL     1     -10.130   3.602  66.362  0.00  0.00    -0.193 F 
ATOM     20  F   UNL     1      -9.705   4.718  67.732  0.00  0.00    -0.193 F 
ATOM     21  C   UNL     1      -7.880   3.912  66.939  0.00  0.00    +0.043 C 
ATOM     22  C   UNL     1      -6.893   4.331  67.637  0.00  0.00    +0.007 C 
ATOM     23  C   UNL     1      -6.495   4.126  69.030  0.00  0.00    +0.168 C 
ATOM     24  O   UNL     1      -6.708   5.240  69.830  0.00  0.00    -0.348 OA
ATOM     25  C   UNL     1      -6.955   4.738  71.228  0.00  0.00    +0.156 C 
ATOM     26  C   UNL     1      -8.257   5.829  71.457  0.00  0.00    +0.197 C 
ATOM     27  C   UNL     1      -8.923   4.811  72.548  0.00  0.00    +0.046 C 
ATOM     28  C   UNL     1      -8.987   3.538  71.810  0.00  0.00    +0.006 C 
ATOM     29  O   UNL     1      -7.508   6.591  72.550  0.00  0.00    -0.435 OA
ATOM     30  C   UNL     1      -8.314   7.602  73.090  0.00  0.00    +0.421 C 
ATOM     31  O   UNL     1      -8.173   8.039  74.271  0.00  0.00    -0.225 OA
ATOM     32  C   UNL     1      -8.006   3.595  70.713  0.00  0.00    +0.033 C 
ATOM     33  N   UNL     1      -7.539   6.229  63.788  0.00  0.00    -0.209 NA
ATOM     34  C   UNL     1      -8.708   9.596  67.244  0.00  0.00    +0.157 C 
ATOM     35  N   UNL     1      -8.733   8.580  72.133  0.00  0.00    -0.161 NA
ENDROOT
BRANCH   1  37
ATOM     36  C   UNL     1     -10.880   9.728  71.081  0.00  0.00    +0.002 C 
ATOM     37  C   UNL     1     -10.885   8.587  71.255  0.00  0.00    +0.027 C 
ATOM     38  C   UNL     1     -11.177   8.085  72.634  0.00  0.00    +0.002 C 
ATOM     39  C   UNL     1     -11.885   7.903  70.350  0.00  0.00    +0.002 C 
ENDBRANCH   1  37
BRANCH  34  40
ATOM     40  C   UNL     1      -9.742  10.837  67.362  0.00  0.00    +0.260 C 
ATOM     41  N   UNL     1      -9.621  11.734  66.238  0.00  0.00    -0.198 NA
ATOM     42  O   UNL     1     -10.958  10.448  67.407  0.00  0.00    -0.272 OA
BRANCH  41  43
ATOM     43  C   UNL     1     -10.422  12.925  66.180  0.00  0.00    +0.155 C 
ATOM     44  C   UNL     1     -11.011  13.190  64.665  0.00  0.00    +0.096 C 
ATOM     45  C   UNL     1     -11.950  12.428  65.799  0.00  0.00    +0.037 C 
BRANCH  43  46
ATOM     46  C   UNL     1     -10.514  13.892  67.188  0.00  0.00    +0.280 C 
ATOM     47  N   UNL     1     -11.570  13.988  68.151  0.00  0.00    -0.062 NA
ATOM     48  O   UNL     1      -9.605  14.780  67.313  0.00  0.00    -0.270 OA
BRANCH  47  49
ATOM     49  S   UNL     1     -11.490  15.039  69.504  0.00  0.00    +0.072 S 
ATOM     50  O   UNL     1     -10.068  15.064  70.007  0.00  0.00    -0.153 OA
ATOM     51  O   UNL     1     -11.864  16.421  69.037  0.00  0.00    -0.153 OA
BRANCH  49  52
ATOM     52  C   UNL     1     -12.521  14.476  70.822  0.00  0.00    +0.131 C 
ATOM     53  C   UNL     1     -12.347  15.193  72.189  0.00  0.00    +0.026 C 
ATOM     54  C   UNL     1     -13.625  15.304  71.334  0.00  0.00    +0.026 C 
ATOM     55  C   UNL     1     -12.560  12.964  70.998  0.00  0.00    +0.026 C 
ENDBRANCH  49  52
ENDBRANCH  47  49
ENDBRANCH  43  46
BRANCH  44  56
ATOM     56  C   UNL     1     -11.638  14.712  64.946  0.00  0.00    +0.321 C 
ATOM     57  F   UNL     1     -10.555  15.456  64.490  0.00  0.00    -0.198 F 
ATOM     58  F   UNL     1     -12.595  14.758  63.964  0.00  0.00    -0.198 F 
ENDBRANCH  44  56
ENDBRANCH  41  43
ENDBRANCH  34  40
TORSDOF 7
ENDMDL
MODEL 2
REMARK VINA RESULT:      -8.3      2.564      6.647
REMARK  Name = 
REMARK  7 active torsions:
REMARK  status: ('A' for Active; 'I' for Inactive)
REMARK    1  A    between atoms: C_2  and  C_5
REMARK    2  A    between atoms: C_35  and  C_36
REMARK    3  A    between atoms: N_38  and  C_39
REMARK    4  A    between atoms: C_39  and  C_40
REMARK    5  A    between atoms: N_42  and  S_43
REMARK    6  A    between atoms: S_43  and  C_46
REMARK    7  A    between atoms: C_51  and  C_52
REMARK                            x       y       z     vdW  Elec       q    Type
REMARK                         _______ _______ _______ _____ _____    ______ ____
ROOT
ATOM      1  C   UNL     1      -8.128   8.438  64.219  0.00  0.00    +0.174 C 
ATOM      2  C   UNL     1      -9.255   9.442  64.787  0.00  0.00    +0.246 C 
ATOM      3  O   UNL     1     -10.090   9.918  64.045  0.00  0.00    -0.273 OA
ATOM      4  N   UNL     1      -9.300   9.381  66.207  0.00  0.00    -0.268 N 
ATOM      5  C   UNL     1      -9.588   8.042  66.728  0.00  0.00    +0.137 C 
ATOM      6  C   UNL     1      -8.982   8.184  68.253  0.00  0.00    +0.189 C 
ATOM      7  C   UNL     1      -9.476   9.735  68.444  0.00  0.00    +0.075 C 
ATOM      8  O   UNL     1     -10.273   7.632  68.890  0.00  0.00    -0.461 OA
ATOM      9  C   UNL     1      -9.907   6.916  70.047  0.00  0.00    +0.244 A 
ATOM     10  C   UNL     1      -8.638   6.350  70.129  0.00  0.00    +0.176 A 
ATOM     11  N   UNL     1      -8.413   5.844  71.378  0.00  0.00    -0.238 NA
ATOM     12  C   UNL     1      -9.329   5.610  72.297  0.00  0.00    +0.099 A 
ATOM     13  C   UNL     1     -10.621   5.937  72.023  0.00  0.00    +0.102 A 
ATOM     14  C   UNL     1     -11.632   5.186  72.630  0.00  0.00    +0.021 A 
ATOM     15  C   UNL     1     -11.295   4.199  73.552  0.00  0.00    +0.002 A 
ATOM     16  C   UNL     1     -10.082   4.399  74.201  0.00  0.00    +0.002 A 
ATOM     17  C   UNL     1      -9.055   5.074  73.552  0.00  0.00    +0.021 A 
ATOM     18  C   UNL     1      -7.966   5.934  68.983  0.00  0.00    +0.321 C 
ATOM     19  F   UNL     1      -6.741   5.550  69.648  0.00  0.00    -0.193 F 
ATOM     20  F   UNL     1      -7.236   6.139  68.001  0.00  0.00    -0.193 F 
ATOM     21  C   UNL     1      -8.620   4.614  68.605  0.00  0.00    +0.043 C 
ATOM     22  C   UNL     1      -9.452   4.397  67.658  0.00  0.00    +0.007 C 
ATOM     23  C   UNL     1      -9.306   3.867  66.302  0.00  0.00    +0.168 C 
ATOM     24  O   UNL     1      -9.420   4.839  65.318  0.00  0.00    -0.348 OA
ATOM     25  C   UNL     1      -8.592   4.381  64.147  0.00  0.00    +0.156 C 
ATOM     26  C   UNL     1      -7.935   5.947  63.917  0.00  0.00    +0.197 C 
ATOM     27  C   UNL     1      -6.602   5.293  63.237  0.00  0.00    +0.046 C 
ATOM     28  C   UNL     1      -6.164   4.317  64.251  0.00  0.00    +0.006 C 
ATOM     29  O   UNL     1      -8.615   6.100  62.557  0.00  0.00    -0.435 OA
ATOM     30  C   UNL     1      -8.253   7.313  61.956  0.00  0.00    +0.421 C 
ATOM     31  O   UNL     1      -8.247   7.486  60.701  0.00  0.00    -0.225 OA
ATOM     32  C   UNL     1      -7.321   3.990  65.101  0.00  0.00    +0.033 C 
ATOM     33  N   UNL     1     -10.852   6.772  71.009  0.00  0.00    -0.209 NA
ATOM     34  C   UNL     1     -10.464   9.863  67.144  0.00  0.00    +0.157 C 
ATOM     35  N   UNL     1      -8.617   8.468  62.719  0.00  0.00    -0.161 NA
ENDROOT
BRANCH   1  37
ATOM     36  C   UNL     1      -6.937  10.270  64.929  0.00  0.00    +0.002 C 
ATOM     37  C   UNL     1      -7.051   9.658  63.957  0.00  0.00    +0.027 C 
ATOM     38  C   UNL     1      -7.512  10.372  62.726  0.00  0.00    +0.002 C 
ATOM     39  C   UNL     1      -5.749   8.989  63.579  0.00  0.00    +0.002 C 
ENDBRANCH   1  37
BRANCH  34  40
ATOM     40  C   UNL     1     -10.133  11.435  66.935  0.00  0.00    +0.260 C 
ATOM     41  N   UNL     1     -11.339  12.213  66.781  0.00  0.00    -0.198 NA
ATOM     42  O   UNL     1      -9.489  11.927  67.923  0.00  0.00    -0.272 OA
BRANCH  41  43
ATOM     43  C   UNL     1     -11.257  13.626  66.537  0.00  0.00    +0.155 C 
ATOM     44  C   UNL     1     -11.363  13.975  64.932  0.00  0.00    +0.096 C 
ATOM     45  C   UNL     1     -12.712  14.064  65.892  0.00  0.00    +0.037 C 
BRANCH  43  46
ATOM     46  C   UNL     1     -10.887  14.593  67.481  0.00  0.00    +0.280 C 
ATOM     47  N   UNL     1      -9.547  15.015  67.755  0.00  0.00    -0.062 NA
ATOM     48  O   UNL     1     -11.779  15.186  68.176  0.00  0.00    -0.270 OA
BRANCH  47  49
ATOM     49  S   UNL     1      -9.192  16.373  68.740  0.00  0.00    +0.072 S 
ATOM     50  O   UNL     1     -10.248  16.476  69.811  0.00  0.00    -0.153 OA
ATOM     51  O   UNL     1      -7.858  16.131  69.395  0.00  0.00    -0.153 OA
BRANCH  49  52
ATOM     52  C   UNL     1      -9.218  17.872  67.807  0.00  0.00    +0.131 C 
ATOM     53  C   UNL     1     -10.619  18.416  67.415  0.00  0.00    +0.026 C 
ATOM     54  C   UNL     1      -9.681  19.135  68.406  0.00  0.00    +0.026 C 
ATOM     55  C   UNL     1      -8.268  17.899  66.618  0.00  0.00    +0.026 C 
ENDBRANCH  49  52
ENDBRANCH  47  49
ENDBRANCH  43  46
BRANCH  44  56
ATOM     56  C   UNL     1     -10.990  15.598  65.044  0.00  0.00    +0.321 C 
ATOM     57  F   UNL     1      -9.641  15.512  64.718  0.00  0.00    -0.198 F 
ATOM     58  F   UNL     1     -11.640  16.068  63.930  0.00  0.00    -0.198 F 
ENDBRANCH  44  56
ENDBRANCH  41  43
ENDBRANCH  34  40
TORSDOF 7
ENDMDL
MODEL 3
REMARK VINA RESULT:      -8.0      2.155      6.324
REMARK  Name = 
REMARK  7 active torsions:
REMARK  status: ('A' for Active; 'I' for Inactive)
REMARK    1  A    between atoms: C_2  and  C_5
REMARK    2  A    between atoms: C_35  and  C_36
REMARK    3  A    between atoms: N_38  and  C_39
REMARK    4  A    between atoms: C_39  and  C_40
REMARK    5  A    between atoms: N_42  and  S_43
REMARK    6  A    between atoms: S_43  and  C_46
REMARK    7  A    between atoms: C_51  and  C_52
REMARK                            x       y       z     vdW  Elec       q    Type
REMARK                         _______ _______ _______ _____ _____    ______ ____
ROOT
ATOM      1  C   UNL     1      -8.006   8.293  64.517  0.00  0.00    +0.174 C 
ATOM      2  C   UNL     1      -9.190   9.236  65.077  0.00  0.00    +0.246 C 
ATOM      3  O   UNL     1     -10.032   9.683  64.326  0.00  0.00    -0.273 OA
ATOM      4  N   UNL     1      -9.259   9.150  66.495  0.00  0.00    -0.268 N 
ATOM      5  C   UNL     1      -9.494   7.791  66.990  0.00  0.00    +0.137 C 
ATOM      6  C   UNL     1      -8.925   7.937  68.529  0.00  0.00    +0.189 C 
ATOM      7  C   UNL     1      -9.494   9.460  68.733  0.00  0.00    +0.075 C 
ATOM      8  O   UNL     1     -10.201   7.316  69.132  0.00  0.00    -0.461 OA
ATOM      9  C   UNL     1      -9.824   6.599  70.285  0.00  0.00    +0.244 A 
ATOM     10  C   UNL     1      -8.532   6.092  70.384  0.00  0.00    +0.176 A 
ATOM     11  N   UNL     1      -8.307   5.577  71.630  0.00  0.00    -0.238 NA
ATOM     12  C   UNL     1      -9.229   5.286  72.527  0.00  0.00    +0.099 A 
ATOM     13  C   UNL     1     -10.530   5.557  72.232  0.00  0.00    +0.102 A 
ATOM     14  C   UNL     1     -11.516   4.751  72.808  0.00  0.00    +0.021 A 
ATOM     15  C   UNL     1     -11.151   3.766  73.721  0.00  0.00    +0.002 A 
ATOM     16  C   UNL     1      -9.961   4.012  74.398  0.00  0.00    +0.002 A 
ATOM     17  C   UNL     1      -8.954   4.744  73.779  0.00  0.00    +0.021 A 
ATOM     18  C   UNL     1      -7.820   5.725  69.245  0.00  0.00    +0.321 C 
ATOM     19  F   UNL     1      -6.591   5.387  69.929  0.00  0.00    -0.193 F 
ATOM     20  F   UNL     1      -7.081   5.979  68.282  0.00  0.00    -0.193 F 
ATOM     21  C   UNL     1      -8.404   4.382  68.836  0.00  0.00    +0.043 C 
ATOM     22  C   UNL     1      -9.206   4.142  67.869  0.00  0.00    +0.007 C 
ATOM     23  C   UNL     1      -9.010   3.640  66.508  0.00  0.00    +0.168 C 
ATOM     24  O   UNL     1      -9.150   4.622  65.537  0.00  0.00    -0.348 OA
ATOM     25  C   UNL     1      -8.279   4.221  64.376  0.00  0.00    +0.156 C 
ATOM     26  C   UNL     1      -7.692   5.819  64.182  0.00  0.00    +0.197 C 
ATOM     27  C   UNL     1      -6.317   5.238  63.519  0.00  0.00    +0.046 C 
ATOM     28  C   UNL     1      -5.853   4.267  64.527  0.00  0.00    +0.006 C 
ATOM     29  O   UNL     1      -8.352   5.962  62.811  0.00  0.00    -0.435 OA
ATOM     30  C   UNL     1      -8.036   7.200  62.235  0.00  0.00    +0.421 C 
ATOM     31  O   UNL     1      -8.013   7.393  60.984  0.00  0.00    -0.225 OA
ATOM     32  C   UNL     1      -7.010   3.875  65.350  0.00  0.00    +0.033 C 
ATOM     33  N   UNL     1     -10.780   6.397  71.226  0.00  0.00    -0.209 NA
ATOM     34  C   UNL     1     -10.462   9.563  67.416  0.00  0.00    +0.157 C 
ATOM     35  N   UNL     1      -8.468   8.324  63.008  0.00  0.00    -0.161 NA
ENDROOT
BRANCH   1  37
ATOM     36  C   UNL     1      -7.430  10.270  63.496  0.00  0.00    +0.002 C 
ATOM     37  C   UNL     1      -6.983   9.566  64.295  0.00  0.00    +0.027 C 
ATOM     38  C   UNL     1      -5.630   8.981  64.040  0.00  0.00    +0.002 C 
ATOM     39  C   UNL     1      -6.884  10.258  65.635  0.00  0.00    +0.002 C 
ENDBRANCH   1  37
BRANCH  34  40
ATOM     40  C   UNL     1     -10.200  11.151  67.237  0.00  0.00    +0.260 C 
ATOM     41  N   UNL     1     -11.417  11.852  66.900  0.00  0.00    -0.198 NA
ATOM     42  O   UNL     1      -9.738  11.686  68.301  0.00  0.00    -0.272 OA
BRANCH  41  43
ATOM     43  C   UNL     1     -11.386  13.267  66.653  0.00  0.00    +0.155 C 
ATOM     44  C   UNL     1     -11.375  13.604  65.041  0.00  0.00    +0.096 C 
ATOM     45  C   UNL     1     -12.802  13.627  65.884  0.00  0.00    +0.037 C 
BRANCH  43  46
ATOM     46  C   UNL     1     -11.147  14.255  67.617  0.00  0.00    +0.280 C 
ATOM     47  N   UNL     1     -11.966  14.510  68.763  0.00  0.00    -0.062 NA
ATOM     48  O   UNL     1     -10.124  15.011  67.522  0.00  0.00    -0.270 OA
BRANCH  47  49
ATOM     49  S   UNL     1     -11.481  15.563  70.026  0.00  0.00    +0.072 S 
ATOM     50  O   UNL     1     -10.041  15.269  70.367  0.00  0.00    -0.153 OA
ATOM     51  O   UNL     1     -11.579  16.975  69.513  0.00  0.00    -0.153 OA
BRANCH  49  52
ATOM     52  C   UNL     1     -12.445  15.312  71.483  0.00  0.00    +0.131 C 
ATOM     53  C   UNL     1     -13.988  15.309  71.297  0.00  0.00    +0.026 C 
ATOM     54  C   UNL     1     -13.184  14.057  71.702  0.00  0.00    +0.026 C 
ATOM     55  C   UNL     1     -12.039  16.171  72.673  0.00  0.00    +0.026 C 
ENDBRANCH  49  52
ENDBRANCH  47  49
ENDBRANCH  43  46
BRANCH  44  56
ATOM     56  C   UNL     1     -11.095  15.245  65.172  0.00  0.00    +0.321 C 
ATOM     57  F   UNL     1      -9.789  15.259  64.694  0.00  0.00    -0.198 F 
ATOM     58  F   UNL     1     -11.896  15.702  64.156  0.00  0.00    -0.198 F 
ENDBRANCH  44  56
ENDBRANCH  41  43
ENDBRANCH  34  40
TORSDOF 7
ENDMDL
MODEL 4
REMARK VINA RESULT:      -7.9      1.339      1.826
REMARK  Name = 
REMARK  7 active torsions:
REMARK  status: ('A' for Active; 'I' for Inactive)
REMARK    1  A    between atoms: C_2  and  C_5
REMARK    2  A    between atoms: C_35  and  C_36
REMARK    3  A    between atoms: N_38  and  C_39
REMARK    4  A    between atoms: C_39  and  C_40
REMARK    5  A    between atoms: N_42  and  S_43
REMARK    6  A    between atoms: S_43  and  C_46
REMARK    7  A    between atoms: C_51  and  C_52
REMARK                            x       y       z     vdW  Elec       q    Type
REMARK                         _______ _______ _______ _____ _____    ______ ____
ROOT
ATOM      1  C   UNL     1      -9.439   7.981  70.851  0.00  0.00    +0.174 C 
ATOM      2  C   UNL     1      -9.118   9.216  69.865  0.00  0.00    +0.246 C 
ATOM      3  O   UNL     1      -8.513  10.189  70.269  0.00  0.00    -0.273 OA
ATOM      4  N   UNL     1      -9.329   8.835  68.511  0.00  0.00    -0.268 N 
ATOM      5  C   UNL     1      -8.508   7.697  68.087  0.00  0.00    +0.137 C 
ATOM      6  C   UNL     1      -9.388   7.164  66.801  0.00  0.00    +0.189 C 
ATOM      7  C   UNL     1      -9.801   8.667  66.296  0.00  0.00    +0.075 C 
ATOM      8  O   UNL     1      -8.151   7.131  65.882  0.00  0.00    -0.461 OA
ATOM      9  C   UNL     1      -8.321   6.066  64.974  0.00  0.00    +0.244 A 
ATOM     10  C   UNL     1      -9.112   4.980  65.334  0.00  0.00    +0.176 A 
ATOM     11  N   UNL     1      -9.290   4.137  64.273  0.00  0.00    -0.238 NA
ATOM     12  C   UNL     1      -8.584   4.132  63.160  0.00  0.00    +0.099 A 
ATOM     13  C   UNL     1      -7.613   5.073  63.003  0.00  0.00    +0.102 A 
ATOM     14  C   UNL     1      -6.504   4.749  62.217  0.00  0.00    +0.021 A 
ATOM     15  C   UNL     1      -6.465   3.525  61.555  0.00  0.00    +0.002 A 
ATOM     16  C   UNL     1      -7.711   2.977  61.271  0.00  0.00    +0.002 A 
ATOM     17  C   UNL     1      -8.788   3.240  62.111  0.00  0.00    +0.021 A 
ATOM     18  C   UNL     1      -9.238   4.598  66.667  0.00  0.00    +0.321 C 
ATOM     19  F   UNL     1     -10.200   3.542  66.440  0.00  0.00    -0.193 F 
ATOM     20  F   UNL     1      -9.761   4.678  67.789  0.00  0.00    -0.193 F 
ATOM     21  C   UNL     1      -7.944   3.865  66.986  0.00  0.00    +0.043 C 
ATOM     22  C   UNL     1      -6.950   4.297  67.666  0.00  0.00    +0.007 C 
ATOM     23  C   UNL     1      -6.535   4.111  69.057  0.00  0.00    +0.168 C 
ATOM     24  O   UNL     1      -6.741   5.235  69.845  0.00  0.00    -0.348 OA
ATOM     25  C   UNL     1      -6.971   4.751  71.253  0.00  0.00    +0.156 C 
ATOM     26  C   UNL     1      -8.273   5.842  71.482  0.00  0.00    +0.197 C 
ATOM     27  C   UNL     1      -8.924   4.837  72.594  0.00  0.00    +0.046 C 
ATOM     28  C   UNL     1      -8.994   3.553  71.873  0.00  0.00    +0.006 C 
ATOM     29  O   UNL     1      -7.513   6.620  72.556  0.00  0.00    -0.435 OA
ATOM     30  C   UNL     1      -8.316   7.636  73.092  0.00  0.00    +0.421 C 
ATOM     31  O   UNL     1      -8.162   8.090  74.265  0.00  0.00    -0.225 OA
ATOM     32  C   UNL     1      -8.025   3.598  70.764  0.00  0.00    +0.033 C 
ATOM     33  N   UNL     1      -7.645   6.142  63.801  0.00  0.00    -0.209 NA
ATOM     34  C   UNL     1      -8.783   9.551  67.225  0.00  0.00    +0.157 C 
ATOM     35  N   UNL     1      -8.749   8.601  72.127  0.00  0.00    -0.161 NA
ENDROOT
BRANCH   1  37
ATOM     36  C   UNL     1     -10.907   9.731  71.098  0.00  0.00    +0.002 C 
ATOM     37  C   UNL     1     -10.910   8.590  71.274  0.00  0.00    +0.027 C 
ATOM     38  C   UNL     1     -11.194   8.092  72.656  0.00  0.00    +0.002 C 
ATOM     39  C   UNL     1     -11.917   7.905  70.378  0.00  0.00    +0.002 C 
ENDBRANCH   1  37
BRANCH  34  40
ATOM     40  C   UNL     1      -9.819  10.791  67.338  0.00  0.00    +0.260 C 
ATOM     41  N   UNL     1      -9.699  11.685  66.211  0.00  0.00    -0.198 NA
ATOM     42  O   UNL     1     -11.034  10.400  67.384  0.00  0.00    -0.272 OA
BRANCH  41  43
ATOM     43  C   UNL     1     -10.502  12.874  66.149  0.00  0.00    +0.155 C 
ATOM     44  C   UNL     1     -11.009  13.187  64.614  0.00  0.00    +0.096 C 
ATOM     45  C   UNL     1     -12.004  12.385  65.669  0.00  0.00    +0.037 C 
BRANCH  43  46
ATOM     46  C   UNL     1     -10.654  13.807  67.182  0.00  0.00    +0.280 C 
ATOM     47  N   UNL     1      -9.746  14.875  67.476  0.00  0.00    -0.062 NA
ATOM     48  O   UNL     1     -11.672  13.755  67.951  0.00  0.00    -0.270 OA
BRANCH  47  49
ATOM     49  S   UNL     1     -10.121  16.121  68.592  0.00  0.00    +0.072 S 
ATOM     50  O   UNL     1     -11.564  16.517  68.400  0.00  0.00    -0.153 OA
ATOM     51  O   UNL     1      -9.951  15.564  69.980  0.00  0.00    -0.153 OA
BRANCH  49  52
ATOM     52  C   UNL     1      -9.125  17.554  68.319  0.00  0.00    +0.131 C 
ATOM     53  C   UNL     1      -7.614  17.417  68.654  0.00  0.00    +0.026 C 
ATOM     54  C   UNL     1      -8.146  17.604  67.220  0.00  0.00    +0.026 C 
ATOM     55  C   UNL     1      -9.697  18.845  68.886  0.00  0.00    +0.026 C 
ENDBRANCH  49  52
ENDBRANCH  47  49
ENDBRANCH  43  46
BRANCH  44  56
ATOM     56  C   UNL     1     -11.658  14.697  64.910  0.00  0.00    +0.321 C 
ATOM     57  F   UNL     1     -10.568  15.461  64.506  0.00  0.00    -0.198 F 
ATOM     58  F   UNL     1     -12.584  14.758  63.900  0.00  0.00    -0.198 F 
ENDBRANCH  44  56
ENDBRANCH  41  43
ENDBRANCH  34  40
TORSDOF 7
ENDMDL
MODEL 5
REMARK VINA RESULT:      -7.2      3.369      9.123
REMARK  Name = 
REMARK  7 active torsions:
REMARK  status: ('A' for Active; 'I' for Inactive)
REMARK    1  A    between atoms: C_2  and  C_5
REMARK    2  A    between atoms: C_35  and  C_36
REMARK    3  A    between atoms: N_38  and  C_39
REMARK    4  A    between atoms: C_39  and  C_40
REMARK    5  A    between atoms: N_42  and  S_43
REMARK    6  A    between atoms: S_43  and  C_46
REMARK    7  A    between atoms: C_51  and  C_52
REMARK                            x       y       z     vdW  Elec       q    Type
REMARK                         _______ _______ _______ _____ _____    ______ ____
ROOT
ATOM      1  C   UNL     1      -7.882   5.715  67.698  0.00  0.00    +0.174 C 
ATOM      2  C   UNL     1      -7.572   6.455  69.097  0.00  0.00    +0.246 C 
ATOM      3  O   UNL     1      -6.641   6.100  69.791  0.00  0.00    -0.273 OA
ATOM      4  N   UNL     1      -8.282   7.685  69.173  0.00  0.00    -0.268 N 
ATOM      5  C   UNL     1      -7.959   8.618  68.090  0.00  0.00    +0.137 C 
ATOM      6  C   UNL     1      -9.299   9.573  68.116  0.00  0.00    +0.189 C 
ATOM      7  C   UNL     1      -9.443   9.551  69.748  0.00  0.00    +0.075 C 
ATOM      8  O   UNL     1      -8.461  10.867  68.148  0.00  0.00    -0.461 OA
ATOM      9  C   UNL     1      -9.173  11.857  67.443  0.00  0.00    +0.244 A 
ATOM     10  C   UNL     1     -10.068  11.478  66.447  0.00  0.00    +0.176 A 
ATOM     11  N   UNL     1     -10.778  12.556  65.997  0.00  0.00    -0.238 NA
ATOM     12  C   UNL     1     -10.477  13.823  66.203  0.00  0.00    +0.099 A 
ATOM     13  C   UNL     1      -9.393  14.116  66.972  0.00  0.00    +0.102 A 
ATOM     14  C   UNL     1      -8.706  15.305  66.713  0.00  0.00    +0.021 A 
ATOM     15  C   UNL     1      -9.193  16.184  65.750  0.00  0.00    +0.002 A 
ATOM     16  C   UNL     1     -10.563  16.103  65.527  0.00  0.00    +0.002 A 
ATOM     17  C   UNL     1     -11.220  14.891  65.707  0.00  0.00    +0.021 A 
ATOM     18  C   UNL     1      -9.870  10.310  65.716  0.00  0.00    +0.321 C 
ATOM     19  F   UNL     1     -11.095  10.392  64.951  0.00  0.00    -0.193 F 
ATOM     20  F   UNL     1      -9.981   9.085  65.548  0.00  0.00    -0.193 F 
ATOM     21  C   UNL     1      -8.778  10.657  64.716  0.00  0.00    +0.043 C 
ATOM     22  C   UNL     1      -7.547  10.313  64.755  0.00  0.00    +0.007 C 
ATOM     23  C   UNL     1      -6.785   9.248  64.100  0.00  0.00    +0.168 C 
ATOM     24  O   UNL     1      -6.438   8.215  64.960  0.00  0.00    -0.348 OA
ATOM     25  C   UNL     1      -6.339   6.963  64.128  0.00  0.00    +0.156 C 
ATOM     26  C   UNL     1      -7.176   6.040  65.304  0.00  0.00    +0.197 C 
ATOM     27  C   UNL     1      -7.688   5.014  64.140  0.00  0.00    +0.046 C 
ATOM     28  C   UNL     1      -8.309   5.920  63.157  0.00  0.00    +0.006 C 
ATOM     29  O   UNL     1      -5.947   5.178  65.592  0.00  0.00    -0.435 OA
ATOM     30  C   UNL     1      -6.251   4.177  66.524  0.00  0.00    +0.421 C 
ATOM     31  O   UNL     1      -5.630   3.074  66.579  0.00  0.00    -0.225 OA
ATOM     32  C   UNL     1      -7.754   7.269  63.364  0.00  0.00    +0.033 C 
ATOM     33  N   UNL     1      -8.898  13.150  67.747  0.00  0.00    -0.209 NA
ATOM     34  C   UNL     1      -7.995   8.892  70.135  0.00  0.00    +0.157 C 
ATOM     35  N   UNL     1      -6.695   4.680  67.789  0.00  0.00    -0.161 NA
ENDROOT
BRANCH   1  37
ATOM     36  C   UNL     1      -8.380   4.044  69.193  0.00  0.00    +0.002 C 
ATOM     37  C   UNL     1      -8.939   4.659  68.392  0.00  0.00    +0.027 C 
ATOM     38  C   UNL     1      -9.599   3.921  67.271  0.00  0.00    +0.002 C 
ATOM     39  C   UNL     1     -10.023   5.508  69.018  0.00  0.00    +0.002 C 
ENDBRANCH   1  37
BRANCH  34  40
ATOM     40  C   UNL     1      -8.585   8.138  71.441  0.00  0.00    +0.260 C 
ATOM     41  N   UNL     1      -7.557   7.905  72.427  0.00  0.00    -0.198 NA
ATOM     42  O   UNL     1      -9.509   8.813  72.010  0.00  0.00    -0.272 OA
BRANCH  41  43
ATOM     43  C   UNL     1      -7.871   7.205  73.641  0.00  0.00    +0.155 C 
ATOM     44  C   UNL     1      -6.603   7.210  74.692  0.00  0.00    +0.096 C 
ATOM     45  C   UNL     1      -7.812   8.333  74.846  0.00  0.00    +0.037 C 
BRANCH  43  46
ATOM     46  C   UNL     1      -8.999   6.402  73.847  0.00  0.00    +0.280 C 
ATOM     47  N   UNL     1      -9.179   5.077  73.335  0.00  0.00    -0.062 NA
ATOM     48  O   UNL     1      -9.974   6.831  74.550  0.00  0.00    -0.270 OA
BRANCH  47  49
ATOM     49  S   UNL     1     -10.470   4.064  73.831  0.00  0.00    +0.072 S 
ATOM     50  O   UNL     1     -10.563   4.111  75.336  0.00  0.00    -0.153 OA
ATOM     51  O   UNL     1     -11.742   4.621  73.250  0.00  0.00    -0.153 OA
BRANCH  49  52
ATOM     52  C   UNL     1     -10.194   2.386  73.357  0.00  0.00    +0.131 C 
ATOM     53  C   UNL     1     -10.050   2.115  71.834  0.00  0.00    +0.026 C 
ATOM     54  C   UNL     1      -8.890   1.945  72.835  0.00  0.00    +0.026 C 
ATOM     55  C   UNL     1     -11.133   1.378  74.005  0.00  0.00    +0.026 C 
ENDBRANCH  49  52
ENDBRANCH  47  49
ENDBRANCH  43  46
BRANCH  44  56
ATOM     56  C   UNL     1      -7.247   6.141  75.802  0.00  0.00    +0.321 C 
ATOM     57  F   UNL     1      -6.616   4.987  75.351  0.00  0.00    -0.198 F 
ATOM     58  F   UNL     1      -6.580   6.544  76.932  0.00  0.00    -0.198 F 
ENDBRANCH  44  56
ENDBRANCH  41  43
ENDBRANCH  34  40
TORSDOF 7
ENDMDL
MODEL 6
REMARK VINA RESULT:      -7.2      3.320      9.092
REMARK  Name = 
REMARK  7 active torsions:
REMARK  status: ('A' for Active; 'I' for Inactive)
REMARK    1  A    between atoms: C_2  and  C_5
REMARK    2  A    between atoms: C_35  and  C_36
REMARK    3  A    between atoms: N_38  and  C_39
REMARK    4  A    between atoms: C_39  and  C_40
REMARK    5  A    between atoms: N_42  and  S_43
REMARK    6  A    between atoms: S_43  and  C_46
REMARK    7  A    between atoms: C_51  and  C_52
REMARK                            x       y       z     vdW  Elec       q    Type
REMARK                         _______ _______ _______ _____ _____    ______ ____
ROOT
ATOM      1  C   UNL     1      -8.678   5.606  65.954  0.00  0.00    +0.174 C 
ATOM      2  C   UNL     1      -8.420   6.014  67.493  0.00  0.00    +0.246 C 
ATOM      3  O   UNL     1      -7.592   5.428  68.159  0.00  0.00    -0.273 OA
ATOM      4  N   UNL     1      -9.014   7.276  67.775  0.00  0.00    -0.268 N 
ATOM      5  C   UNL     1      -8.510   8.363  66.931  0.00  0.00    +0.137 C 
ATOM      6  C   UNL     1      -9.750   9.438  67.065  0.00  0.00    +0.189 C 
ATOM      7  C   UNL     1     -10.036   9.108  68.644  0.00  0.00    +0.075 C 
ATOM      8  O   UNL     1      -8.798  10.598  67.418  0.00  0.00    -0.461 OA
ATOM      9  C   UNL     1      -9.349  11.781  66.887  0.00  0.00    +0.244 A 
ATOM     10  C   UNL     1     -10.186  11.708  65.778  0.00  0.00    +0.176 A 
ATOM     11  N   UNL     1     -10.747  12.926  65.515  0.00  0.00    -0.238 NA
ATOM     12  C   UNL     1     -10.346  14.086  65.996  0.00  0.00    +0.099 A 
ATOM     13  C   UNL     1      -9.310  14.098  66.879  0.00  0.00    +0.102 A 
ATOM     14  C   UNL     1      -8.492  15.231  66.915  0.00  0.00    +0.021 A 
ATOM     15  C   UNL     1      -8.807  16.332  66.125  0.00  0.00    +0.002 A 
ATOM     16  C   UNL     1     -10.154  16.449  65.801  0.00  0.00    +0.002 A 
ATOM     17  C   UNL     1     -10.938  15.307  65.684  0.00  0.00    +0.021 A 
ATOM     18  C   UNL     1     -10.038  10.694  64.836  0.00  0.00    +0.321 C 
ATOM     19  F   UNL     1     -11.178  11.062  64.027  0.00  0.00    -0.193 F 
ATOM     20  F   UNL     1     -10.251   9.547  64.413  0.00  0.00    -0.193 F 
ATOM     21  C   UNL     1      -8.836  11.108  64.003  0.00  0.00    +0.043 C 
ATOM     22  C   UNL     1      -7.651  10.628  64.051  0.00  0.00    +0.007 C 
ATOM     23  C   UNL     1      -6.941   9.637  63.242  0.00  0.00    +0.168 C 
ATOM     24  O   UNL     1      -6.770   8.422  63.891  0.00  0.00    -0.348 OA
ATOM     25  C   UNL     1      -6.719   7.357  62.827  0.00  0.00    +0.156 C 
ATOM     26  C   UNL     1      -7.740   6.317  63.731  0.00  0.00    +0.197 C 
ATOM     27  C   UNL     1      -8.245   5.606  62.349  0.00  0.00    +0.046 C 
ATOM     28  C   UNL     1      -8.688   6.752  61.535  0.00  0.00    +0.006 C 
ATOM     29  O   UNL     1      -6.628   5.285  63.914  0.00  0.00    -0.435 OA
ATOM     30  C   UNL     1      -7.106   4.159  64.598  0.00  0.00    +0.421 C 
ATOM     31  O   UNL     1      -6.601   3.005  64.466  0.00  0.00    -0.225 OA
ATOM     32  C   UNL     1      -8.027   7.963  62.052  0.00  0.00    +0.033 C 
ATOM     33  N   UNL     1      -8.979  12.949  67.469  0.00  0.00    -0.209 NA
ATOM     34  C   UNL     1      -8.697   8.229  68.981  0.00  0.00    +0.157 C 
ATOM     35  N   UNL     1      -7.608   4.447  65.908  0.00  0.00    -0.161 NA
ENDROOT
BRANCH   1  37
ATOM     36  C   UNL     1     -10.698   5.126  66.939  0.00  0.00    +0.002 C 
ATOM     37  C   UNL     1      -9.887   4.557  66.346  0.00  0.00    +0.027 C 
ATOM     38  C   UNL     1      -9.233   3.381  66.998  0.00  0.00    +0.002 C 
ATOM     39  C   UNL     1     -10.434   4.045  65.033  0.00  0.00    +0.002 C 
ENDBRANCH   1  37
BRANCH  34  40
ATOM     40  C   UNL     1      -9.467   7.302  70.063  0.00  0.00    +0.260 C 
ATOM     41  N   UNL     1      -8.559   6.785  71.058  0.00  0.00    -0.198 NA
ATOM     42  O   UNL     1     -10.382   7.944  70.682  0.00  0.00    -0.272 OA
BRANCH  41  43
ATOM     43  C   UNL     1      -9.042   5.900  72.081  0.00  0.00    +0.155 C 
ATOM     44  C   UNL     1     -10.047   4.750  71.467  0.00  0.00    +0.096 C 
ATOM     45  C   UNL     1      -8.444   4.406  71.713  0.00  0.00    +0.037 C 
BRANCH  43  46
ATOM     46  C   UNL     1      -8.903   6.100  73.461  0.00  0.00    +0.280 C 
ATOM     47  N   UNL     1      -7.951   5.440  74.302  0.00  0.00    -0.062 NA
ATOM     48  O   UNL     1      -9.653   6.935  74.068  0.00  0.00    -0.270 OA
BRANCH  47  49
ATOM     49  S   UNL     1      -7.671   5.915  75.926  0.00  0.00    +0.072 S 
ATOM     50  O   UNL     1      -8.991   6.303  76.544  0.00  0.00    -0.153 OA
ATOM     51  O   UNL     1      -7.121   4.725  76.666  0.00  0.00    -0.153 OA
BRANCH  49  52
ATOM     52  C   UNL     1      -6.598   7.314  76.014  0.00  0.00    +0.131 C 
ATOM     53  C   UNL     1      -7.187   8.667  75.529  0.00  0.00    +0.026 C 
ATOM     54  C   UNL     1      -6.821   8.385  77.000  0.00  0.00    +0.026 C 
ATOM     55  C   UNL     1      -5.206   7.086  75.441  0.00  0.00    +0.026 C 
ENDBRANCH  49  52
ENDBRANCH  47  49
ENDBRANCH  43  46
BRANCH  44  56
ATOM     56  C   UNL     1     -10.562   4.120  72.925  0.00  0.00    +0.321 C 
ATOM     57  F   UNL     1     -11.763   4.815  73.025  0.00  0.00    -0.198 F 
ATOM     58  F   UNL     1     -10.873   2.842  72.534  0.00  0.00    -0.198 F 
ENDBRANCH  44  56
ENDBRANCH  41  43
ENDBRANCH  34  40
TORSDOF 7
ENDMDL
MODEL 7
REMARK VINA RESULT:      -7.2      1.886      2.183
REMARK  Name = 
REMARK  7 active torsions:
REMARK  status: ('A' for Active; 'I' for Inactive)
REMARK    1  A    between atoms: C_2  and  C_5
REMARK    2  A    between atoms: C_35  and  C_36
REMARK    3  A    between atoms: N_38  and  C_39
REMARK    4  A    between atoms: C_39  and  C_40
REMARK    5  A    between atoms: N_42  and  S_43
REMARK    6  A    between atoms: S_43  and  C_46
REMARK    7  A    between atoms: C_51  and  C_52
REMARK                            x       y       z     vdW  Elec       q    Type
REMARK                         _______ _______ _______ _____ _____    ______ ____
ROOT
ATOM      1  C   UNL     1      -9.149   7.470  71.395  0.00  0.00    +0.174 C 
ATOM      2  C   UNL     1      -8.865   8.475  70.166  0.00  0.00    +0.246 C 
ATOM      3  O   UNL     1      -8.288   9.528  70.348  0.00  0.00    -0.273 OA
ATOM      4  N   UNL     1      -9.067   7.807  68.926  0.00  0.00    -0.268 N 
ATOM      5  C   UNL     1      -8.216   6.628  68.748  0.00  0.00    +0.137 C 
ATOM      6  C   UNL     1      -9.083   5.809  67.613  0.00  0.00    +0.189 C 
ATOM      7  C   UNL     1      -9.540   7.157  66.802  0.00  0.00    +0.075 C 
ATOM      8  O   UNL     1      -7.847   5.614  66.711  0.00  0.00    -0.461 OA
ATOM      9  C   UNL     1      -7.989   4.376  66.054  0.00  0.00    +0.244 A 
ATOM     10  C   UNL     1      -8.748   3.370  66.644  0.00  0.00    +0.176 A 
ATOM     11  N   UNL     1      -8.903   2.316  65.789  0.00  0.00    -0.238 NA
ATOM     12  C   UNL     1      -8.200   2.093  64.696  0.00  0.00    +0.099 A 
ATOM     13  C   UNL     1      -7.257   3.005  64.334  0.00  0.00    +0.102 A 
ATOM     14  C   UNL     1      -6.140   2.550  63.626  0.00  0.00    +0.021 A 
ATOM     15  C   UNL     1      -6.068   1.215  63.241  0.00  0.00    +0.002 A 
ATOM     16  C   UNL     1      -7.298   0.585  63.091  0.00  0.00    +0.002 A 
ATOM     17  C   UNL     1      -8.380   0.991  63.864  0.00  0.00    +0.021 A 
ATOM     18  C   UNL     1      -8.859   3.278  68.028  0.00  0.00    +0.321 C 
ATOM     19  F   UNL     1      -9.791   2.173  68.039  0.00  0.00    -0.193 F 
ATOM     20  F   UNL     1      -9.382   3.582  69.112  0.00  0.00    -0.193 F 
ATOM     21  C   UNL     1      -7.544   2.667  68.486  0.00  0.00    +0.043 C 
ATOM     22  C   UNL     1      -6.562   3.261  69.050  0.00  0.00    +0.007 C 
ATOM     23  C   UNL     1      -6.139   3.388  70.445  0.00  0.00    +0.168 C 
ATOM     24  O   UNL     1      -6.375   4.649  70.976  0.00  0.00    -0.348 OA
ATOM     25  C   UNL     1      -6.588   4.471  72.457  0.00  0.00    +0.156 C 
ATOM     26  C   UNL     1      -7.921   5.549  72.458  0.00  0.00    +0.197 C 
ATOM     27  C   UNL     1      -8.540   4.787  73.765  0.00  0.00    +0.046 C 
ATOM     28  C   UNL     1      -8.574   3.378  73.336  0.00  0.00    +0.006 C 
ATOM     29  O   UNL     1      -7.181   6.559  73.335  0.00  0.00    -0.435 OA
ATOM     30  C   UNL     1      -8.011   7.644  73.649  0.00  0.00    +0.421 C 
ATOM     31  O   UNL     1      -7.868   8.341  74.696  0.00  0.00    -0.225 OA
ATOM     32  C   UNL     1      -7.610   3.211  72.235  0.00  0.00    +0.033 C 
ATOM     33  N   UNL     1      -7.318   4.218  64.886  0.00  0.00    -0.209 NA
ATOM     34  C   UNL     1      -8.545   8.247  67.512  0.00  0.00    +0.157 C 
ATOM     35  N   UNL     1      -8.474   8.368  72.504  0.00  0.00    -0.161 NA
ENDROOT
BRANCH   1  37
ATOM     36  C   UNL     1     -10.581   9.260  71.552  0.00  0.00    +0.002 C 
ATOM     37  C   UNL     1     -10.636   8.115  71.690  0.00  0.00    +0.027 C 
ATOM     38  C   UNL     1     -11.070   7.587  73.021  0.00  0.00    +0.002 C 
ATOM     39  C   UNL     1     -11.568   7.490  70.677  0.00  0.00    +0.002 C 
ENDBRANCH   1  37
BRANCH  34  40
ATOM     40  C   UNL     1      -9.616   9.454  67.367  0.00  0.00    +0.260 C 
ATOM     41  N   UNL     1      -9.404  10.206  66.153  0.00  0.00    -0.198 NA
ATOM     42  O   UNL     1     -10.821   9.028  67.343  0.00  0.00    -0.272 OA
BRANCH  41  43
ATOM     43  C   UNL     1     -10.224  11.349  65.863  0.00  0.00    +0.155 C 
ATOM     44  C   UNL     1     -10.223  11.707  64.256  0.00  0.00    +0.096 C 
ATOM     45  C   UNL     1     -11.450  10.799  64.903  0.00  0.00    +0.037 C 
BRANCH  43  46
ATOM     46  C   UNL     1     -10.769  12.220  66.815  0.00  0.00    +0.280 C 
ATOM     47  N   UNL     1     -10.065  13.283  67.466  0.00  0.00    -0.062 NA
ATOM     48  O   UNL     1     -11.993  12.110  67.160  0.00  0.00    -0.270 OA
BRANCH  47  49
ATOM     49  S   UNL     1     -10.858  14.459  68.428  0.00  0.00    +0.072 S 
ATOM     50  O   UNL     1     -12.062  14.962  67.673  0.00  0.00    -0.153 OA
ATOM     51  O   UNL     1     -11.323  13.784  69.691  0.00  0.00    -0.153 OA
BRANCH  49  52
ATOM     52  C   UNL     1      -9.808  15.841  68.756  0.00  0.00    +0.131 C 
ATOM     53  C   UNL     1      -9.623  16.857  67.595  0.00  0.00    +0.026 C 
ATOM     54  C   UNL     1     -10.358  17.198  68.907  0.00  0.00    +0.026 C 
ATOM     55  C   UNL     1      -8.470  15.488  69.392  0.00  0.00    +0.026 C 
ENDBRANCH  49  52
ENDBRANCH  47  49
ENDBRANCH  43  46
BRANCH  44  56
ATOM     56  C   UNL     1     -11.038  13.161  64.364  0.00  0.00    +0.321 C 
ATOM     57  F   UNL     1      -9.937  14.008  64.288  0.00  0.00    -0.198 F 
ATOM     58  F   UNL     1     -11.644  13.184  63.133  0.00  0.00    -0.198 F 
ENDBRANCH  44  56
ENDBRANCH  41  43
ENDBRANCH  34  40
TORSDOF 7
ENDMDL
MODEL 8
REMARK VINA RESULT:      -7.0      3.016      6.974
REMARK  Name = 
REMARK  7 active torsions:
REMARK  status: ('A' for Active; 'I' for Inactive)
REMARK    1  A    between atoms: C_2  and  C_5
REMARK    2  A    between atoms: C_35  and  C_36
REMARK    3  A    between atoms: N_38  and  C_39
REMARK    4  A    between atoms: C_39  and  C_40
REMARK    5  A    between atoms: N_42  and  S_43
REMARK    6  A    between atoms: S_43  and  C_46
REMARK    7  A    between atoms: C_51  and  C_52
REMARK                            x       y       z     vdW  Elec       q    Type
REMARK                         _______ _______ _______ _____ _____    ______ ____
ROOT
ATOM      1  C   UNL     1      -7.990   8.495  64.015  0.00  0.00    +0.174 C 
ATOM      2  C   UNL     1      -9.010   9.596  64.606  0.00  0.00    +0.246 C 
ATOM      3  O   UNL     1      -9.815  10.144  63.883  0.00  0.00    -0.273 OA
ATOM      4  N   UNL     1      -9.028   9.539  66.028  0.00  0.00    -0.268 N 
ATOM      5  C   UNL     1      -9.422   8.231  66.557  0.00  0.00    +0.137 C 
ATOM      6  C   UNL     1      -8.773   8.319  68.068  0.00  0.00    +0.189 C 
ATOM      7  C   UNL     1      -9.121   9.907  68.267  0.00  0.00    +0.075 C 
ATOM      8  O   UNL     1     -10.093   7.884  68.735  0.00  0.00    -0.461 OA
ATOM      9  C   UNL     1      -9.766   7.138  69.885  0.00  0.00    +0.244 A 
ATOM     10  C   UNL     1      -8.552   6.461  69.939  0.00  0.00    +0.176 A 
ATOM     11  N   UNL     1      -8.344   5.937  71.184  0.00  0.00    -0.238 NA
ATOM     12  C   UNL     1      -9.257   5.785  72.123  0.00  0.00    +0.099 A 
ATOM     13  C   UNL     1     -10.520   6.226  71.878  0.00  0.00    +0.102 A 
ATOM     14  C   UNL     1     -11.581   5.569  72.510  0.00  0.00    +0.021 A 
ATOM     15  C   UNL     1     -11.313   4.556  73.425  0.00  0.00    +0.002 A 
ATOM     16  C   UNL     1     -10.072   4.646  74.047  0.00  0.00    +0.002 A 
ATOM     17  C   UNL     1      -9.003   5.226  73.373  0.00  0.00    +0.021 A 
ATOM     18  C   UNL     1      -7.946   5.986  68.779  0.00  0.00    +0.321 C 
ATOM     19  F   UNL     1      -6.745   5.493  69.417  0.00  0.00    -0.193 F 
ATOM     20  F   UNL     1      -7.222   6.125  67.781  0.00  0.00    -0.193 F 
ATOM     21  C   UNL     1      -8.723   4.730  68.419  0.00  0.00    +0.043 C 
ATOM     22  C   UNL     1      -9.592   4.589  67.491  0.00  0.00    +0.007 C 
ATOM     23  C   UNL     1      -9.526   4.047  66.133  0.00  0.00    +0.168 C 
ATOM     24  O   UNL     1      -9.574   5.027  65.150  0.00  0.00    -0.348 OA
ATOM     25  C   UNL     1      -8.817   4.496  63.961  0.00  0.00    +0.156 C 
ATOM     26  C   UNL     1      -8.028   5.997  63.714  0.00  0.00    +0.197 C 
ATOM     27  C   UNL     1      -6.774   5.226  63.005  0.00  0.00    +0.046 C 
ATOM     28  C   UNL     1      -6.403   4.214  64.011  0.00  0.00    +0.006 C 
ATOM     29  O   UNL     1      -8.722   6.210  62.369  0.00  0.00    -0.435 OA
ATOM     30  C   UNL     1      -8.267   7.386  61.758  0.00  0.00    +0.421 C 
ATOM     31  O   UNL     1      -8.273   7.558  60.503  0.00  0.00    -0.225 OA
ATOM     32  C   UNL     1      -7.565   3.993  64.888  0.00  0.00    +0.033 C 
ATOM     33  N   UNL     1     -10.699   7.079  70.868  0.00  0.00    -0.209 NA
ATOM     34  C   UNL     1     -10.122  10.123  66.989  0.00  0.00    +0.157 C 
ATOM     35  N   UNL     1      -8.508   8.569  62.527  0.00  0.00    -0.161 NA
ENDROOT
BRANCH   1  37
ATOM     36  C   UNL     1      -6.510  10.101  64.728  0.00  0.00    +0.002 C 
ATOM     37  C   UNL     1      -6.815   9.613  63.727  0.00  0.00    +0.027 C 
ATOM     38  C   UNL     1      -7.332  10.501  62.640  0.00  0.00    +0.002 C 
ATOM     39  C   UNL     1      -5.658   8.853  63.118  0.00  0.00    +0.002 C 
ENDBRANCH   1  37
BRANCH  34  40
ATOM     40  C   UNL     1      -9.657  11.659  66.770  0.00  0.00    +0.260 C 
ATOM     41  N   UNL     1     -10.079  12.501  67.864  0.00  0.00    -0.198 NA
ATOM     42  O   UNL     1      -8.388  11.769  66.676  0.00  0.00    -0.272 OA
BRANCH  41  43
ATOM     43  C   UNL     1      -9.802  13.910  67.835  0.00  0.00    +0.155 C 
ATOM     44  C   UNL     1     -11.124  14.781  67.381  0.00  0.00    +0.096 C 
ATOM     45  C   UNL     1     -10.769  14.589  68.989  0.00  0.00    +0.037 C 
BRANCH  43  46
ATOM     46  C   UNL     1      -8.531  14.491  67.931  0.00  0.00    +0.280 C 
ATOM     47  N   UNL     1      -7.857  14.814  69.152  0.00  0.00    -0.062 NA
ATOM     48  O   UNL     1      -7.869  14.766  66.875  0.00  0.00    -0.270 OA
BRANCH  47  49
ATOM     49  S   UNL     1      -6.211  15.290  69.197  0.00  0.00    +0.072 S 
ATOM     50  O   UNL     1      -5.742  15.257  70.630  0.00  0.00    -0.153 OA
ATOM     51  O   UNL     1      -5.418  14.284  68.405  0.00  0.00    -0.153 OA
BRANCH  49  52
ATOM     52  C   UNL     1      -5.997  16.935  68.593  0.00  0.00    +0.131 C 
ATOM     53  C   UNL     1      -7.232  17.873  68.694  0.00  0.00    +0.026 C 
ATOM     54  C   UNL     1      -5.943  18.084  69.513  0.00  0.00    +0.026 C 
ATOM     55  C   UNL     1      -5.348  17.031  67.219  0.00  0.00    +0.026 C 
ENDBRANCH  49  52
ENDBRANCH  47  49
ENDBRANCH  43  46
BRANCH  44  56
ATOM     56  C   UNL     1     -10.361  16.259  67.233  0.00  0.00    +0.321 C 
ATOM     57  F   UNL     1     -10.463  16.394  65.852  0.00  0.00    -0.198 F 
ATOM     58  F   UNL     1     -11.318  17.074  67.784  0.00  0.00    -0.198 F 
ENDBRANCH  44  56
ENDBRANCH  41  43
ENDBRANCH  34  40
TORSDOF 7
ENDMDL
MODEL 9
REMARK VINA RESULT:      -7.0      5.986      8.854
REMARK  Name = 
REMARK  7 active torsions:
REMARK  status: ('A' for Active; 'I' for Inactive)
REMARK    1  A    between atoms: C_2  and  C_5
REMARK    2  A    between atoms: C_35  and  C_36
REMARK    3  A    between atoms: N_38  and  C_39
REMARK    4  A    between atoms: C_39  and  C_40
REMARK    5  A    between atoms: N_42  and  S_43
REMARK    6  A    between atoms: S_43  and  C_46
REMARK    7  A    between atoms: C_51  and  C_52
REMARK                            x       y       z     vdW  Elec       q    Type
REMARK                         _______ _______ _______ _____ _____    ______ ____
ROOT
ATOM      1  C   UNL     1      -9.092  15.208  67.787  0.00  0.00    +0.174 C 
ATOM      2  C   UNL     1      -7.825  15.802  68.590  0.00  0.00    +0.246 C 
ATOM      3  O   UNL     1      -7.986  16.545  69.536  0.00  0.00    -0.273 OA
ATOM      4  N   UNL     1      -6.645  15.085  68.249  0.00  0.00    -0.268 N 
ATOM      5  C   UNL     1      -6.726  13.651  68.535  0.00  0.00    +0.137 C 
ATOM      6  C   UNL     1      -5.559  13.083  67.521  0.00  0.00    +0.189 C 
ATOM      7  C   UNL     1      -4.552  14.353  67.760  0.00  0.00    +0.075 C 
ATOM      8  O   UNL     1      -4.888  12.263  68.642  0.00  0.00    -0.461 OA
ATOM      9  C   UNL     1      -4.348  11.101  68.057  0.00  0.00    +0.244 A 
ATOM     10  C   UNL     1      -4.912  10.597  66.889  0.00  0.00    +0.176 A 
ATOM     11  N   UNL     1      -4.157   9.574  66.389  0.00  0.00    -0.238 NA
ATOM     12  C   UNL     1      -3.217   8.914  67.037  0.00  0.00    +0.099 A 
ATOM     13  C   UNL     1      -2.915   9.296  68.308  0.00  0.00    +0.102 A 
ATOM     14  C   UNL     1      -2.443   8.322  69.192  0.00  0.00    +0.021 A 
ATOM     15  C   UNL     1      -2.214   7.029  68.732  0.00  0.00    +0.002 A 
ATOM     16  C   UNL     1      -1.938   6.936  67.372  0.00  0.00    +0.002 A 
ATOM     17  C   UNL     1      -2.485   7.863  66.492  0.00  0.00    +0.021 A 
ATOM     18  C   UNL     1      -6.264  10.780  66.612  0.00  0.00    +0.321 C 
ATOM     19  F   UNL     1      -6.243  10.163  65.304  0.00  0.00    -0.193 F 
ATOM     20  F   UNL     1      -7.215  11.438  66.161  0.00  0.00    -0.193 F 
ATOM     21  C   UNL     1      -6.983   9.770  67.493  0.00  0.00    +0.043 C 
ATOM     22  C   UNL     1      -7.630   9.997  68.573  0.00  0.00    +0.007 C 
ATOM     23  C   UNL     1      -9.054  10.163  68.869  0.00  0.00    +0.168 C 
ATOM     24  O   UNL     1      -9.408  11.479  69.135  0.00  0.00    -0.348 OA
ATOM     25  C   UNL     1     -10.847  11.640  68.720  0.00  0.00    +0.156 C 
ATOM     26  C   UNL     1     -10.528  13.151  67.976  0.00  0.00    +0.197 C 
ATOM     27  C   UNL     1     -11.793  12.924  66.966  0.00  0.00    +0.046 C 
ATOM     28  C   UNL     1     -11.511  11.600  66.382  0.00  0.00    +0.006 C 
ATOM     29  O   UNL     1     -11.401  13.901  68.981  0.00  0.00    -0.435 OA
ATOM     30  C   UNL     1     -11.466  15.263  68.661  0.00  0.00    +0.421 C 
ATOM     31  O   UNL     1     -12.445  16.001  68.980  0.00  0.00    -0.225 OA
ATOM     32  C   UNL     1     -10.598  10.884  67.290  0.00  0.00    +0.033 C 
ATOM     33  N   UNL     1      -3.322  10.501  68.711  0.00  0.00    -0.209 NA
ATOM     34  C   UNL     1      -5.293  15.045  69.046  0.00  0.00    +0.157 C 
ATOM     35  N   UNL     1     -10.194  15.920  68.664  0.00  0.00    -0.161 NA
ENDROOT
BRANCH   1  37
ATOM     36  C   UNL     1      -8.036  16.497  66.205  0.00  0.00    +0.002 C 
ATOM     37  C   UNL     1      -9.082  16.438  66.691  0.00  0.00    +0.027 C 
ATOM     38  C   UNL     1      -9.595  17.648  67.406  0.00  0.00    +0.002 C 
ATOM     39  C   UNL     1     -10.138  16.090  65.666  0.00  0.00    +0.002 C 
ENDBRANCH   1  37
BRANCH  34  40
ATOM     40  C   UNL     1      -4.857  16.541  68.605  0.00  0.00    +0.260 C 
ATOM     41  N   UNL     1      -4.539  17.359  69.752  0.00  0.00    -0.198 NA
ATOM     42  O   UNL     1      -3.830  16.540  67.845  0.00  0.00    -0.272 OA
BRANCH  41  43
ATOM     43  C   UNL     1      -4.174  18.736  69.574  0.00  0.00    +0.155 C 
ATOM     44  C   UNL     1      -3.260  19.291  70.826  0.00  0.00    +0.096 C 
ATOM     45  C   UNL     1      -2.529  18.758  69.437  0.00  0.00    +0.037 C 
BRANCH  43  46
ATOM     46  C   UNL     1      -4.706  19.599  68.607  0.00  0.00    +0.280 C 
ATOM     47  N   UNL     1      -4.022  20.050  67.432  0.00  0.00    -0.062 NA
ATOM     48  O   UNL     1      -5.897  20.042  68.726  0.00  0.00    -0.270 OA
BRANCH  47  49
ATOM     49  S   UNL     1      -4.817  20.900  66.173  0.00  0.00    +0.072 S 
ATOM     50  O   UNL     1      -5.665  21.985  66.789  0.00  0.00    -0.153 OA
ATOM     51  O   UNL     1      -3.762  21.540  65.311  0.00  0.00    -0.153 OA
BRANCH  49  52
ATOM     52  C   UNL     1      -5.883  19.838  65.249  0.00  0.00    +0.131 C 
ATOM     53  C   UNL     1      -5.615  19.752  63.721  0.00  0.00    +0.026 C 
ATOM     54  C   UNL     1      -5.393  18.570  64.685  0.00  0.00    +0.026 C 
ATOM     55  C   UNL     1      -7.367  20.020  65.535  0.00  0.00    +0.026 C 
ENDBRANCH  49  52
ENDBRANCH  47  49
ENDBRANCH  43  46
BRANCH  44  56
ATOM     56  C   UNL     1      -3.260  20.903  70.388  0.00  0.00    +0.321 C 
ATOM     57  F   UNL     1      -4.313  21.324  71.194  0.00  0.00    -0.198 F 
ATOM     58  F   UNL     1      -2.102  21.313  70.998  0.00  0.00    -0.198 F 
ENDBRANCH  44  56
ENDBRANCH  41  43
ENDBRANCH  34  40
TORSDOF 7
ENDMDL
