MODEL 1
REMARK VINA RESULT:      -5.3      0.000      0.000
REMARK  Name = 
REMARK  5 active torsions:
REMARK  status: ('A' for Active; 'I' for Inactive)
REMARK    1  A    between atoms: C_2  and  C_3
REMARK    2  A    between atoms: C_3  and  C_4
REMARK    3  A    between atoms: C_4  and  C_5
REMARK    4  A    between atoms: C_5  and  C_7
REMARK    5  A    between atoms: C_7  and  C_8
REMARK                            x       y       z     vdW  Elec       q    Type
REMARK                         _______ _______ _______ _____ _____    ______ ____
ROOT
ATOM      1  C   UNL     1     -10.610  15.091  65.825  0.00  0.00    +0.145 C 
ATOM      2  C   UNL     1     -10.125  13.762  65.546  0.00  0.00    +0.257 C 
ATOM      3  O   UNL     1      -9.244  13.168  66.233  0.00  0.00    -0.272 OA
ATOM      4  N   UNL     1     -10.849  12.929  64.629  0.00  0.00    -0.125 NA
ATOM      5  C   UNL     1     -12.136  13.293  64.133  0.00  0.00    +0.352 C 
ATOM      6  O   UNL     1     -12.864  12.518  63.451  0.00  0.00    -0.248 OA
ATOM      7  N   UNL     1     -12.403  14.702  64.162  0.00  0.00    -0.125 NA
ATOM      8  C   UNL     1     -11.470  15.587  64.742  0.00  0.00    +0.257 C 
ATOM      9  O   UNL     1     -11.322  16.714  64.178  0.00  0.00    -0.272 OA
ENDROOT
BRANCH   1  10
ATOM     10  C   UNL     1      -9.342  16.149  65.874  0.00  0.00    +0.017 C 
ATOM     11  C   UNL     1     -10.193  17.228  66.801  0.00  0.00    +0.001 C 
BRANCH  10  12
ATOM     12  C   UNL     1      -8.642  15.467  67.213  0.00  0.00    +0.001 C 
BRANCH  12  13
ATOM     13  C   UNL     1      -7.207  15.936  67.189  0.00  0.00    +0.000 C 
ATOM     14  C   UNL     1      -6.920  16.604  68.529  0.00  0.00    +0.000 C 
ENDBRANCH  12  13
ENDBRANCH  10  12
ENDBRANCH   1  10
BRANCH   1  15
ATOM     15  C   UNL     1     -11.238  15.196  67.186  0.00  0.00    +0.044 C 
BRANCH  15  17
ATOM     16  C   UNL     1     -11.918  13.404  68.648  0.00  0.00    -0.005 C 
ATOM     17  C   UNL     1     -11.913  13.920  67.573  0.00  0.00    -0.025 C 
ENDBRANCH  15  17
ENDBRANCH   1  15
TORSDOF 5
ENDMDL
MODEL 2
REMARK VINA RESULT:      -5.3      2.463      4.659
REMARK  Name = 
REMARK  5 active torsions:
REMARK  status: ('A' for Active; 'I' for Inactive)
REMARK    1  A    between atoms: C_2  and  C_3
REMARK    2  A    between atoms: C_3  and  C_4
REMARK    3  A    between atoms: C_4  and  C_5
REMARK    4  A    between atoms: C_5  and  C_7
REMARK    5  A    between atoms: C_7  and  C_8
REMARK                            x       y       z     vdW  Elec       q    Type
REMARK                         _______ _______ _______ _____ _____    ______ ____
ROOT
ATOM      1  C   UNL     1     -10.564  15.734  66.336  0.00  0.00    +0.145 C 
ATOM      2  C   UNL     1     -10.951  16.111  67.673  0.00  0.00    +0.257 C 
ATOM      3  O   UNL     1     -11.083  15.296  68.632  0.00  0.00    -0.272 OA
ATOM      4  N   UNL     1     -10.918  17.496  68.048  0.00  0.00    -0.125 NA
ATOM      5  C   UNL     1     -10.330  18.492  67.210  0.00  0.00    +0.352 C 
ATOM      6  O   UNL     1     -10.146  19.686  67.575  0.00  0.00    -0.248 OA
ATOM      7  N   UNL     1     -10.280  18.139  65.822  0.00  0.00    -0.125 NA
ATOM      8  C   UNL     1     -10.697  16.858  65.401  0.00  0.00    +0.257 C 
ATOM      9  O   UNL     1     -11.311  16.792  64.292  0.00  0.00    -0.272 OA
ENDROOT
BRANCH   1  10
ATOM     10  C   UNL     1     -11.600  14.582  65.759  0.00  0.00    +0.017 C 
ATOM     11  C   UNL     1     -10.439  13.943  64.763  0.00  0.00    +0.001 C 
BRANCH  10  12
ATOM     12  C   UNL     1     -11.262  13.481  66.951  0.00  0.00    +0.001 C 
BRANCH  12  13
ATOM     13  C   UNL     1     -11.594  12.136  66.350  0.00  0.00    +0.000 C 
ATOM     14  C   UNL     1     -11.144  11.067  67.339  0.00  0.00    +0.000 C 
ENDBRANCH  12  13
ENDBRANCH  10  12
ENDBRANCH   1  10
BRANCH   1  15
ATOM     15  C   UNL     1      -9.214  15.076  66.296  0.00  0.00    +0.044 C 
BRANCH  15  17
ATOM     16  C   UNL     1      -7.228  16.348  66.797  0.00  0.00    -0.005 C 
ATOM     17  C   UNL     1      -8.229  15.804  67.152  0.00  0.00    -0.025 C 
ENDBRANCH  15  17
ENDBRANCH   1  15
TORSDOF 5
ENDMDL
MODEL 3
REMARK VINA RESULT:      -5.1      1.963      4.588
REMARK  Name = 
REMARK  5 active torsions:
REMARK  status: ('A' for Active; 'I' for Inactive)
REMARK    1  A    between atoms: C_2  and  C_3
REMARK    2  A    between atoms: C_3  and  C_4
REMARK    3  A    between atoms: C_4  and  C_5
REMARK    4  A    between atoms: C_5  and  C_7
REMARK    5  A    between atoms: C_7  and  C_8
REMARK                            x       y       z     vdW  Elec       q    Type
REMARK                         _______ _______ _______ _____ _____    ______ ____
ROOT
ATOM      1  C   UNL     1     -10.981  14.237  66.004  0.00  0.00    +0.145 C 
ATOM      2  C   UNL     1     -11.287  15.176  64.954  0.00  0.00    +0.257 C 
ATOM      3  O   UNL     1     -12.291  15.085  64.189  0.00  0.00    -0.272 OA
ATOM      4  N   UNL     1     -10.609  16.440  64.924  0.00  0.00    -0.125 NA
ATOM      5  C   UNL     1      -9.786  16.882  66.003  0.00  0.00    +0.352 C 
ATOM      6  O   UNL     1      -9.302  18.045  66.078  0.00  0.00    -0.248 OA
ATOM      7  N   UNL     1      -9.263  15.824  66.818  0.00  0.00    -0.125 NA
ATOM      8  C   UNL     1      -9.654  14.489  66.580  0.00  0.00    +0.257 C 
ATOM      9  O   UNL     1      -8.764  13.596  66.731  0.00  0.00    -0.272 OA
ENDROOT
BRANCH   1  10
ATOM     10  C   UNL     1     -10.885  12.710  65.377  0.00  0.00    +0.017 C 
ATOM     11  C   UNL     1     -11.287  12.018  66.829  0.00  0.00    +0.001 C 
BRANCH  10  12
ATOM     12  C   UNL     1     -12.460  12.672  64.861  0.00  0.00    +0.001 C 
BRANCH  12  13
ATOM     13  C   UNL     1     -12.433  11.884  63.574  0.00  0.00    +0.000 C 
ATOM     14  C   UNL     1     -10.974  11.569  63.260  0.00  0.00    +0.000 C 
ENDBRANCH  12  13
ENDBRANCH  10  12
ENDBRANCH   1  10
BRANCH   1  15
ATOM     15  C   UNL     1     -12.074  14.151  67.031  0.00  0.00    +0.044 C 
BRANCH  15  17
ATOM     16  C   UNL     1     -11.958  14.714  69.372  0.00  0.00    -0.005 C 
ATOM     17  C   UNL     1     -11.763  14.989  68.228  0.00  0.00    -0.025 C 
ENDBRANCH  15  17
ENDBRANCH   1  15
TORSDOF 5
ENDMDL
MODEL 4
REMARK VINA RESULT:      -5.0      2.080      3.959
REMARK  Name = 
REMARK  5 active torsions:
REMARK  status: ('A' for Active; 'I' for Inactive)
REMARK    1  A    between atoms: C_2  and  C_3
REMARK    2  A    between atoms: C_3  and  C_4
REMARK    3  A    between atoms: C_4  and  C_5
REMARK    4  A    between atoms: C_5  and  C_7
REMARK    5  A    between atoms: C_7  and  C_8
REMARK                            x       y       z     vdW  Elec       q    Type
REMARK                         _______ _______ _______ _____ _____    ______ ____
ROOT
ATOM      1  C   UNL     1     -10.857  13.568  66.587  0.00  0.00    +0.145 C 
ATOM      2  C   UNL     1     -11.736  13.372  65.461  0.00  0.00    +0.257 C 
ATOM      3  O   UNL     1     -12.588  12.440  65.378  0.00  0.00    -0.272 OA
ATOM      4  N   UNL     1     -11.883  14.423  64.495  0.00  0.00    -0.125 NA
ATOM      5  C   UNL     1     -11.344  15.727  64.709  0.00  0.00    +0.352 C 
ATOM      6  O   UNL     1     -11.586  16.712  63.957  0.00  0.00    -0.248 OA
ATOM      7  N   UNL     1     -10.245  15.767  65.628  0.00  0.00    -0.125 NA
ATOM      8  C   UNL     1      -9.846  14.596  66.307  0.00  0.00    +0.257 C 
ATOM      9  O   UNL     1      -8.601  14.435  66.490  0.00  0.00    -0.272 OA
ENDROOT
BRANCH   1  10
ATOM     10  C   UNL     1      -9.990  12.189  66.866  0.00  0.00    +0.017 C 
ATOM     11  C   UNL     1      -9.439  12.751  68.324  0.00  0.00    +0.001 C 
BRANCH  10  12
ATOM     12  C   UNL     1     -11.243  11.379  67.589  0.00  0.00    +0.001 C 
BRANCH  12  13
ATOM     13  C   UNL     1     -10.873   9.918  67.493  0.00  0.00    +0.000 C 
ATOM     14  C   UNL     1     -10.080   9.729  66.205  0.00  0.00    +0.000 C 
ENDBRANCH  12  13
ENDBRANCH  10  12
ENDBRANCH   1  10
BRANCH   1  15
ATOM     15  C   UNL     1     -11.611  13.800  67.866  0.00  0.00    +0.044 C 
BRANCH  15  17
ATOM     16  C   UNL     1     -11.897  15.721  69.294  0.00  0.00    -0.005 C 
ATOM     17  C   UNL     1     -11.626  15.249  68.233  0.00  0.00    -0.025 C 
ENDBRANCH  15  17
ENDBRANCH   1  15
TORSDOF 5
ENDMDL
MODEL 5
REMARK VINA RESULT:      -5.0      1.670      2.951
REMARK  Name = 
REMARK  5 active torsions:
REMARK  status: ('A' for Active; 'I' for Inactive)
REMARK    1  A    between atoms: C_2  and  C_3
REMARK    2  A    between atoms: C_3  and  C_4
REMARK    3  A    between atoms: C_4  and  C_5
REMARK    4  A    between atoms: C_5  and  C_7
REMARK    5  A    between atoms: C_7  and  C_8
REMARK                            x       y       z     vdW  Elec       q    Type
REMARK                         _______ _______ _______ _____ _____    ______ ____
ROOT
ATOM      1  C   UNL     1     -10.839  14.809  66.560  0.00  0.00    +0.145 C 
ATOM      2  C   UNL     1     -11.354  15.225  65.279  0.00  0.00    +0.257 C 
ATOM      3  O   UNL     1     -10.865  16.165  64.587  0.00  0.00    -0.272 OA
ATOM      4  N   UNL     1     -12.287  14.380  64.590  0.00  0.00    -0.125 NA
ATOM      5  C   UNL     1     -12.573  13.053  65.032  0.00  0.00    +0.352 C 
ATOM      6  O   UNL     1     -13.265  12.233  64.367  0.00  0.00    -0.248 OA
ATOM      7  N   UNL     1     -12.317  12.827  66.424  0.00  0.00    -0.125 NA
ATOM      8  C   UNL     1     -11.734  13.843  67.211  0.00  0.00    +0.257 C 
ATOM      9  O   UNL     1     -12.149  13.953  68.405  0.00  0.00    -0.272 OA
ENDROOT
BRANCH   1  10
ATOM     10  C   UNL     1     -10.793  16.101  67.590  0.00  0.00    +0.017 C 
ATOM     11  C   UNL     1      -9.712  15.345  68.594  0.00  0.00    +0.001 C 
BRANCH  10  12
ATOM     12  C   UNL     1      -9.576  16.883  66.779  0.00  0.00    +0.001 C 
BRANCH  12  13
ATOM     13  C   UNL     1      -9.539  18.271  67.371  0.00  0.00    +0.000 C 
ATOM     14  C   UNL     1     -10.504  19.139  66.570  0.00  0.00    +0.000 C 
ENDBRANCH  12  13
ENDBRANCH  10  12
ENDBRANCH   1  10
BRANCH   1  15
ATOM     15  C   UNL     1      -9.412  14.345  66.478  0.00  0.00    +0.044 C 
BRANCH  15  17
ATOM     16  C   UNL     1      -8.498  12.161  66.931  0.00  0.00    -0.005 C 
ATOM     17  C   UNL     1      -9.328  12.854  66.427  0.00  0.00    -0.025 C 
ENDBRANCH  15  17
ENDBRANCH   1  15
TORSDOF 5
ENDMDL
MODEL 6
REMARK VINA RESULT:      -4.8      2.507      3.258
REMARK  Name = 
REMARK  5 active torsions:
REMARK  status: ('A' for Active; 'I' for Inactive)
REMARK    1  A    between atoms: C_2  and  C_3
REMARK    2  A    between atoms: C_3  and  C_4
REMARK    3  A    between atoms: C_4  and  C_5
REMARK    4  A    between atoms: C_5  and  C_7
REMARK    5  A    between atoms: C_7  and  C_8
REMARK                            x       y       z     vdW  Elec       q    Type
REMARK                         _______ _______ _______ _____ _____    ______ ____
ROOT
ATOM      1  C   UNL     1      -9.689  17.385  66.812  0.00  0.00    +0.145 C 
ATOM      2  C   UNL     1      -8.502  16.591  67.011  0.00  0.00    +0.257 C 
ATOM      3  O   UNL     1      -7.533  16.933  67.750  0.00  0.00    -0.272 OA
ATOM      4  N   UNL     1      -8.500  15.216  66.599  0.00  0.00    -0.125 NA
ATOM      5  C   UNL     1      -9.691  14.552  66.178  0.00  0.00    +0.352 C 
ATOM      6  O   UNL     1      -9.755  13.310  65.958  0.00  0.00    -0.248 OA
ATOM      7  N   UNL     1     -10.716  15.429  65.692  0.00  0.00    -0.125 NA
ATOM      8  C   UNL     1     -10.536  16.828  65.749  0.00  0.00    +0.257 C 
ATOM      9  O   UNL     1     -10.989  17.504  64.775  0.00  0.00    -0.272 OA
ENDROOT
BRANCH   1  10
ATOM     10  C   UNL     1      -9.270  18.890  66.273  0.00  0.00    +0.017 C 
ATOM     11  C   UNL     1     -10.674  19.558  66.849  0.00  0.00    +0.001 C 
BRANCH  10  12
ATOM     12  C   UNL     1      -8.444  19.306  67.649  0.00  0.00    +0.001 C 
BRANCH  12  13
ATOM     13  C   UNL     1      -7.591  20.487  67.252  0.00  0.00    +0.000 C 
ATOM     14  C   UNL     1      -6.360  20.488  68.152  0.00  0.00    +0.000 C 
ENDBRANCH  12  13
ENDBRANCH  10  12
ENDBRANCH   1  10
BRANCH   1  15
ATOM     15  C   UNL     1     -10.428  17.639  68.096  0.00  0.00    +0.044 C 
BRANCH  15  17
ATOM     16  C   UNL     1     -11.682  15.894  69.187  0.00  0.00    -0.005 C 
ATOM     17  C   UNL     1     -10.640  16.374  68.861  0.00  0.00    -0.025 C 
ENDBRANCH  15  17
ENDBRANCH   1  15
TORSDOF 5
ENDMDL
MODEL 7
REMARK VINA RESULT:      -4.6      2.632      4.536
REMARK  Name = 
REMARK  5 active torsions:
REMARK  status: ('A' for Active; 'I' for Inactive)
REMARK    1  A    between atoms: C_2  and  C_3
REMARK    2  A    between atoms: C_3  and  C_4
REMARK    3  A    between atoms: C_4  and  C_5
REMARK    4  A    between atoms: C_5  and  C_7
REMARK    5  A    between atoms: C_7  and  C_8
REMARK                            x       y       z     vdW  Elec       q    Type
REMARK                         _______ _______ _______ _____ _____    ______ ____
ROOT
ATOM      1  C   UNL     1     -10.246  11.769  66.034  0.00  0.00    +0.145 C 
ATOM      2  C   UNL     1     -11.627  12.045  66.341  0.00  0.00    +0.257 C 
ATOM      3  O   UNL     1     -12.098  12.101  67.514  0.00  0.00    -0.272 OA
ATOM      4  N   UNL     1     -12.484  12.565  65.314  0.00  0.00    -0.125 NA
ATOM      5  C   UNL     1     -11.973  13.004  64.055  0.00  0.00    +0.352 C 
ATOM      6  O   UNL     1     -12.671  13.607  63.193  0.00  0.00    -0.248 OA
ATOM      7  N   UNL     1     -10.717  12.416  63.691  0.00  0.00    -0.125 NA
ATOM      8  C   UNL     1     -10.046  11.564  64.593  0.00  0.00    +0.257 C 
ATOM      9  O   UNL     1      -9.437  10.568  64.096  0.00  0.00    -0.272 OA
ENDROOT
BRANCH   1  10
ATOM     10  C   UNL     1      -9.794  10.340  66.730  0.00  0.00    +0.017 C 
ATOM     11  C   UNL     1      -8.183  10.687  66.553  0.00  0.00    +0.001 C 
BRANCH  10  12
ATOM     12  C   UNL     1      -9.807  10.928  68.280  0.00  0.00    +0.001 C 
BRANCH  12  13
ATOM     13  C   UNL     1     -10.036   9.720  69.156  0.00  0.00    +0.000 C 
ATOM     14  C   UNL     1     -11.046  10.115  70.228  0.00  0.00    +0.000 C 
ENDBRANCH  12  13
ENDBRANCH  10  12
ENDBRANCH   1  10
BRANCH   1  15
ATOM     15  C   UNL     1      -9.314  12.786  66.630  0.00  0.00    +0.044 C 
BRANCH  15  17
ATOM     16  C   UNL     1      -9.223  15.143  66.135  0.00  0.00    -0.005 C 
ATOM     17  C   UNL     1      -9.840  14.173  66.455  0.00  0.00    -0.025 C 
ENDBRANCH  15  17
ENDBRANCH   1  15
TORSDOF 5
ENDMDL
MODEL 8
REMARK VINA RESULT:      -4.6      2.377      4.695
REMARK  Name = 
REMARK  5 active torsions:
REMARK  status: ('A' for Active; 'I' for Inactive)
REMARK    1  A    between atoms: C_2  and  C_3
REMARK    2  A    between atoms: C_3  and  C_4
REMARK    3  A    between atoms: C_4  and  C_5
REMARK    4  A    between atoms: C_5  and  C_7
REMARK    5  A    between atoms: C_7  and  C_8
REMARK                            x       y       z     vdW  Elec       q    Type
REMARK                         _______ _______ _______ _____ _____    ______ ____
ROOT
ATOM      1  C   UNL     1     -10.677  15.594  67.429  0.00  0.00    +0.145 C 
ATOM      2  C   UNL     1     -10.949  16.775  68.211  0.00  0.00    +0.257 C 
ATOM      3  O   UNL     1     -11.042  16.786  69.473  0.00  0.00    -0.272 OA
ATOM      4  N   UNL     1     -10.834  18.066  67.595  0.00  0.00    -0.125 NA
ATOM      5  C   UNL     1     -10.272  18.235  66.294  0.00  0.00    +0.352 C 
ATOM      6  O   UNL     1     -10.014  19.363  65.789  0.00  0.00    -0.248 OA
ATOM      7  N   UNL     1     -10.337  17.066  65.467  0.00  0.00    -0.125 NA
ATOM      8  C   UNL     1     -10.834  15.854  65.992  0.00  0.00    +0.257 C 
ATOM      9  O   UNL     1     -11.531  15.135  65.213  0.00  0.00    -0.272 OA
ENDROOT
BRANCH   1  10
ATOM     10  C   UNL     1     -11.796  14.428  67.771  0.00  0.00    +0.017 C 
ATOM     11  C   UNL     1     -10.961  13.281  66.914  0.00  0.00    +0.001 C 
BRANCH  10  12
ATOM     12  C   UNL     1     -11.084  13.963  69.194  0.00  0.00    +0.001 C 
BRANCH  12  13
ATOM     13  C   UNL     1     -12.214  13.437  70.046  0.00  0.00    +0.000 C 
ATOM     14  C   UNL     1     -12.012  11.933  70.199  0.00  0.00    +0.000 C 
ENDBRANCH  12  13
ENDBRANCH  10  12
ENDBRANCH   1  10
BRANCH   1  15
ATOM     15  C   UNL     1      -9.360  14.964  67.785  0.00  0.00    +0.044 C 
BRANCH  15  17
ATOM     16  C   UNL     1      -7.195  15.936  67.359  0.00  0.00    -0.005 C 
ATOM     17  C   UNL     1      -8.273  15.987  67.868  0.00  0.00    -0.025 C 
ENDBRANCH  15  17
ENDBRANCH   1  15
TORSDOF 5
ENDMDL
MODEL 9
REMARK VINA RESULT:      -4.6      2.044      3.740
REMARK  Name = 
REMARK  5 active torsions:
REMARK  status: ('A' for Active; 'I' for Inactive)
REMARK    1  A    between atoms: C_2  and  C_3
REMARK    2  A    between atoms: C_3  and  C_4
REMARK    3  A    between atoms: C_4  and  C_5
REMARK    4  A    between atoms: C_5  and  C_7
REMARK    5  A    between atoms: C_7  and  C_8
REMARK                            x       y       z     vdW  Elec       q    Type
REMARK                         _______ _______ _______ _____ _____    ______ ____
ROOT
ATOM      1  C   UNL     1     -10.655  13.565  67.119  0.00  0.00    +0.145 C 
ATOM      2  C   UNL     1     -11.098  14.707  66.358  0.00  0.00    +0.257 C 
ATOM      3  O   UNL     1     -10.590  15.862  66.448  0.00  0.00    -0.272 OA
ATOM      4  N   UNL     1     -11.963  14.506  65.231  0.00  0.00    -0.125 NA
ATOM      5  C   UNL     1     -12.243  13.205  64.716  0.00  0.00    +0.352 C 
ATOM      6  O   UNL     1     -12.870  13.002  63.639  0.00  0.00    -0.248 OA
ATOM      7  N   UNL     1     -12.071  12.145  65.666  0.00  0.00    -0.125 NA
ATOM      8  C   UNL     1     -11.564  12.424  66.953  0.00  0.00    +0.257 C 
ATOM      9  O   UNL     1     -12.058  11.763  67.919  0.00  0.00    -0.272 OA
ENDROOT
BRANCH   1  10
ATOM     10  C   UNL     1     -10.707  13.915  68.733  0.00  0.00    +0.017 C 
ATOM     11  C   UNL     1      -9.345  14.855  68.640  0.00  0.00    +0.001 C 
BRANCH  10  12
ATOM     12  C   UNL     1     -11.696  15.234  68.559  0.00  0.00    +0.001 C 
BRANCH  12  13
ATOM     13  C   UNL     1     -12.197  15.536  69.950  0.00  0.00    +0.000 C 
ATOM     14  C   UNL     1     -12.480  14.203  70.636  0.00  0.00    +0.000 C 
ENDBRANCH  12  13
ENDBRANCH  10  12
ENDBRANCH   1  10
BRANCH   1  15
ATOM     15  C   UNL     1      -9.214  13.228  66.855  0.00  0.00    +0.044 C 
BRANCH  15  17
ATOM     16  C   UNL     1      -7.983  11.165  67.054  0.00  0.00    -0.005 C 
ATOM     17  C   UNL     1      -8.998  11.750  66.829  0.00  0.00    -0.025 C 
ENDBRANCH  15  17
ENDBRANCH   1  15
TORSDOF 5
ENDMDL
