MODEL 1
REMARK VINA RESULT:      -5.4      0.000      0.000
REMARK  Name = 
REMARK  9 active torsions:
REMARK  status: ('A' for Active; 'I' for Inactive)
REMARK    1  A    between atoms: C_2  and  C_3
REMARK    2  A    between atoms: C_3  and  C_4
REMARK    3  A    between atoms: C_4  and  C_6
REMARK    4  A    between atoms: C_4  and  C_11
REMARK    5  A    between atoms: C_6  and  O_7
REMARK    6  A    between atoms: O_7  and  C_8
REMARK    7  A    between atoms: C_11  and  O_12
REMARK    8  A    between atoms: O_12  and  C_13
REMARK    9  A    between atoms: N_15  and  C_16
REMARK                            x       y       z     vdW  Elec       q    Type
REMARK                         _______ _______ _______ _____ _____    ______ ____
ROOT
ATOM      1  C   UNL     1     -10.164  16.855  67.641  0.00  0.00    +0.081 C 
ATOM      2  C   UNL     1      -9.010  16.748  68.627  0.00  0.00    +0.007 C 
ENDROOT
BRANCH   1   3
ATOM      3  C   UNL     1      -9.652  16.376  66.316  0.00  0.00    +0.214 C 
BRANCH   3   4
ATOM      4  O   UNL     1     -10.502  16.771  65.241  0.00  0.00    -0.433 OA
BRANCH   4   5
ATOM      5  C   UNL     1     -11.232  15.830  64.549  0.00  0.00    +0.421 C 
ATOM      6  N   UNL     1     -11.044  14.419  64.697  0.00  0.00    -0.170 NA
ATOM      7  O   UNL     1     -12.220  16.157  63.825  0.00  0.00    -0.225 OA
BRANCH   6   8
ATOM      8  C   UNL     1     -12.173  13.502  64.841  0.00  0.00    +0.099 C 
ATOM      9  C   UNL     1     -12.096  12.574  63.632  0.00  0.00    +0.024 C 
ATOM     10  C   UNL     1     -11.942  12.607  66.054  0.00  0.00    +0.024 C 
ENDBRANCH   6   8
ENDBRANCH   4   5
ENDBRANCH   3   4
ENDBRANCH   1   3
BRANCH   1  11
ATOM     11  C   UNL     1     -11.271  15.968  68.151  0.00  0.00    +0.214 C 
BRANCH  11  12
ATOM     12  O   UNL     1     -11.737  16.363  69.419  0.00  0.00    -0.432 OA
BRANCH  12  13
ATOM     13  C   UNL     1     -12.402  15.472  70.231  0.00  0.00    +0.441 C 
ATOM     14  O   UNL     1     -13.105  15.923  71.185  0.00  0.00    -0.223 OA
ATOM     15  N   UNL     1     -11.928  14.142  70.349  0.00  0.00    -0.048 NA
ENDBRANCH  12  13
ENDBRANCH  11  12
ENDBRANCH   1  11
BRANCH   1  16
ATOM     16  C   UNL     1     -10.677  18.267  67.560  0.00  0.00    +0.007 C 
BRANCH  16  18
ATOM     17  C   UNL     1      -9.747  20.394  67.418  0.00  0.00    +0.000 C 
ATOM     18  C   UNL     1      -9.603  19.293  67.387  0.00  0.00    +0.000 C 
ENDBRANCH  16  18
ENDBRANCH   1  16
TORSDOF 9
ENDMDL
MODEL 2
REMARK VINA RESULT:      -5.3      2.936      6.782
REMARK  Name = 
REMARK  9 active torsions:
REMARK  status: ('A' for Active; 'I' for Inactive)
REMARK    1  A    between atoms: C_2  and  C_3
REMARK    2  A    between atoms: C_3  and  C_4
REMARK    3  A    between atoms: C_4  and  C_6
REMARK    4  A    between atoms: C_4  and  C_11
REMARK    5  A    between atoms: C_6  and  O_7
REMARK    6  A    between atoms: O_7  and  C_8
REMARK    7  A    between atoms: C_11  and  O_12
REMARK    8  A    between atoms: O_12  and  C_13
REMARK    9  A    between atoms: N_15  and  C_16
REMARK                            x       y       z     vdW  Elec       q    Type
REMARK                         _______ _______ _______ _____ _____    ______ ____
ROOT
ATOM      1  C   UNL     1     -11.246  13.007  67.015  0.00  0.00    +0.081 C 
ATOM      2  C   UNL     1      -9.763  13.326  67.134  0.00  0.00    +0.007 C 
ENDROOT
BRANCH   1   3
ATOM      3  C   UNL     1     -11.693  12.509  68.356  0.00  0.00    +0.214 C 
BRANCH   3   4
ATOM      4  O   UNL     1     -12.062  13.577  69.226  0.00  0.00    -0.433 OA
BRANCH   4   5
ATOM      5  C   UNL     1     -12.255  13.345  70.571  0.00  0.00    +0.421 C 
ATOM      6  N   UNL     1     -12.184  14.370  71.567  0.00  0.00    -0.170 NA
ATOM      7  O   UNL     1     -12.644  12.217  71.001  0.00  0.00    -0.225 OA
BRANCH   6   8
ATOM      8  C   UNL     1     -13.185  14.488  72.624  0.00  0.00    +0.099 C 
ATOM      9  C   UNL     1     -12.552  15.387  73.682  0.00  0.00    +0.024 C 
ATOM     10  C   UNL     1     -14.385  15.267  72.096  0.00  0.00    +0.024 C 
ENDBRANCH   6   8
ENDBRANCH   4   5
ENDBRANCH   3   4
ENDBRANCH   1   3
BRANCH   1  11
ATOM     11  C   UNL     1     -11.950  14.288  66.645  0.00  0.00    +0.214 C 
BRANCH  11  12
ATOM     12  O   UNL     1     -11.133  15.156  65.898  0.00  0.00    -0.432 OA
BRANCH  12  13
ATOM     13  C   UNL     1     -11.503  15.551  64.632  0.00  0.00    +0.441 C 
ATOM     14  O   UNL     1     -11.260  16.742  64.270  0.00  0.00    -0.223 OA
ATOM     15  N   UNL     1     -12.552  14.873  63.964  0.00  0.00    -0.048 NA
ENDBRANCH  12  13
ENDBRANCH  11  12
ENDBRANCH   1  11
BRANCH   1  16
ATOM     16  C   UNL     1     -11.495  11.992  65.934  0.00  0.00    +0.007 C 
BRANCH  16  18
ATOM     17  C   UNL     1     -10.183  10.466  64.767  0.00  0.00    +0.000 C 
ATOM     18  C   UNL     1     -10.338  11.080  65.681  0.00  0.00    +0.000 C 
ENDBRANCH  16  18
ENDBRANCH   1  16
TORSDOF 9
ENDMDL
MODEL 3
REMARK VINA RESULT:      -5.2      4.123      6.589
REMARK  Name = 
REMARK  9 active torsions:
REMARK  status: ('A' for Active; 'I' for Inactive)
REMARK    1  A    between atoms: C_2  and  C_3
REMARK    2  A    between atoms: C_3  and  C_4
REMARK    3  A    between atoms: C_4  and  C_6
REMARK    4  A    between atoms: C_4  and  C_11
REMARK    5  A    between atoms: C_6  and  O_7
REMARK    6  A    between atoms: O_7  and  C_8
REMARK    7  A    between atoms: C_11  and  O_12
REMARK    8  A    between atoms: O_12  and  C_13
REMARK    9  A    between atoms: N_15  and  C_16
REMARK                            x       y       z     vdW  Elec       q    Type
REMARK                         _______ _______ _______ _____ _____    ______ ____
ROOT
ATOM      1  C   UNL     1     -12.964  14.461  71.921  0.00  0.00    +0.081 C 
ATOM      2  C   UNL     1     -14.258  15.176  71.557  0.00  0.00    +0.007 C 
ENDROOT
BRANCH   1   3
ATOM      3  C   UNL     1     -13.146  13.020  71.555  0.00  0.00    +0.214 C 
BRANCH   3   4
ATOM      4  O   UNL     1     -12.189  12.590  70.589  0.00  0.00    -0.433 OA
BRANCH   4   5
ATOM      5  C   UNL     1     -12.058  11.252  70.286  0.00  0.00    +0.421 C 
ATOM      6  N   UNL     1     -11.667  10.259  71.240  0.00  0.00    -0.170 NA
ATOM      7  O   UNL     1     -12.409  10.789  69.158  0.00  0.00    -0.225 OA
BRANCH   6   8
ATOM      8  C   UNL     1     -12.363   8.980  71.352  0.00  0.00    +0.099 C 
ATOM      9  C   UNL     1     -11.502   8.132  72.284  0.00  0.00    +0.024 C 
ATOM     10  C   UNL     1     -13.680   9.186  72.091  0.00  0.00    +0.024 C 
ENDBRANCH   6   8
ENDBRANCH   4   5
ENDBRANCH   3   4
ENDBRANCH   1   3
BRANCH   1  11
ATOM     11  C   UNL     1     -11.861  15.095  71.112  0.00  0.00    +0.214 C 
BRANCH  11  12
ATOM     12  O   UNL     1     -12.352  15.941  70.101  0.00  0.00    -0.432 OA
BRANCH  12  13
ATOM     13  C   UNL     1     -11.764  15.961  68.856  0.00  0.00    +0.441 C 
ATOM     14  O   UNL     1     -11.505  14.859  68.286  0.00  0.00    -0.223 OA
ATOM     15  N   UNL     1     -11.005  17.090  68.457  0.00  0.00    -0.048 NA
ENDBRANCH  12  13
ENDBRANCH  11  12
ENDBRANCH   1  11
BRANCH   1  16
ATOM     16  C   UNL     1     -12.647  14.628  73.381  0.00  0.00    +0.007 C 
BRANCH  16  18
ATOM     17  C   UNL     1     -12.412  16.400  74.871  0.00  0.00    +0.000 C 
ATOM     18  C   UNL     1     -12.655  16.050  73.845  0.00  0.00    +0.000 C 
ENDBRANCH  16  18
ENDBRANCH   1  16
TORSDOF 9
ENDMDL
MODEL 4
REMARK VINA RESULT:      -5.2      2.459      6.362
REMARK  Name = 
REMARK  9 active torsions:
REMARK  status: ('A' for Active; 'I' for Inactive)
REMARK    1  A    between atoms: C_2  and  C_3
REMARK    2  A    between atoms: C_3  and  C_4
REMARK    3  A    between atoms: C_4  and  C_6
REMARK    4  A    between atoms: C_4  and  C_11
REMARK    5  A    between atoms: C_6  and  O_7
REMARK    6  A    between atoms: O_7  and  C_8
REMARK    7  A    between atoms: C_11  and  O_12
REMARK    8  A    between atoms: O_12  and  C_13
REMARK    9  A    between atoms: N_15  and  C_16
REMARK                            x       y       z     vdW  Elec       q    Type
REMARK                         _______ _______ _______ _____ _____    ______ ____
ROOT
ATOM      1  C   UNL     1     -11.220  14.307  68.297  0.00  0.00    +0.081 C 
ATOM      2  C   UNL     1      -9.739  14.211  67.960  0.00  0.00    +0.007 C 
ENDROOT
BRANCH   1   3
ATOM      3  C   UNL     1     -11.441  15.656  68.910  0.00  0.00    +0.214 C 
BRANCH   3   4
ATOM      4  O   UNL     1     -11.107  15.673  70.297  0.00  0.00    -0.433 OA
BRANCH   4   5
ATOM      5  C   UNL     1     -12.067  15.964  71.241  0.00  0.00    +0.421 C 
ATOM      6  N   UNL     1     -13.471  15.798  71.017  0.00  0.00    -0.170 NA
ATOM      7  O   UNL     1     -11.757  16.278  72.430  0.00  0.00    -0.225 OA
BRANCH   6   8
ATOM      8  C   UNL     1     -14.341  15.168  72.008  0.00  0.00    +0.099 C 
ATOM      9  C   UNL     1     -15.709  15.070  71.341  0.00  0.00    +0.024 C 
ATOM     10  C   UNL     1     -13.893  13.727  72.228  0.00  0.00    +0.024 C 
ENDBRANCH   6   8
ENDBRANCH   4   5
ENDBRANCH   3   4
ENDBRANCH   1   3
BRANCH   1  11
ATOM     11  C   UNL     1     -11.982  14.163  67.004  0.00  0.00    +0.214 C 
BRANCH  11  12
ATOM     12  O   UNL     1     -11.136  14.144  65.879  0.00  0.00    -0.432 OA
BRANCH  12  13
ATOM     13  C   UNL     1     -11.353  15.002  64.825  0.00  0.00    +0.441 C 
ATOM     14  O   UNL     1     -10.775  16.130  64.828  0.00  0.00    -0.223 OA
ATOM     15  N   UNL     1     -12.537  14.883  64.056  0.00  0.00    -0.048 NA
ENDBRANCH  12  13
ENDBRANCH  11  12
ENDBRANCH   1  11
BRANCH   1  16
ATOM     16  C   UNL     1     -11.635  13.199  69.226  0.00  0.00    +0.007 C 
BRANCH  16  18
ATOM     17  C   UNL     1     -11.863  10.890  69.061  0.00  0.00    +0.000 C 
ATOM     18  C   UNL     1     -11.412  11.828  68.673  0.00  0.00    +0.000 C 
ENDBRANCH  16  18
ENDBRANCH   1  16
TORSDOF 9
ENDMDL
MODEL 5
REMARK VINA RESULT:      -5.2      2.721      6.164
REMARK  Name = 
REMARK  9 active torsions:
REMARK  status: ('A' for Active; 'I' for Inactive)
REMARK    1  A    between atoms: C_2  and  C_3
REMARK    2  A    between atoms: C_3  and  C_4
REMARK    3  A    between atoms: C_4  and  C_6
REMARK    4  A    between atoms: C_4  and  C_11
REMARK    5  A    between atoms: C_6  and  O_7
REMARK    6  A    between atoms: O_7  and  C_8
REMARK    7  A    between atoms: C_11  and  O_12
REMARK    8  A    between atoms: O_12  and  C_13
REMARK    9  A    between atoms: N_15  and  C_16
REMARK                            x       y       z     vdW  Elec       q    Type
REMARK                         _______ _______ _______ _____ _____    ______ ____
ROOT
ATOM      1  C   UNL     1     -11.028  12.515  67.912  0.00  0.00    +0.081 C 
ATOM      2  C   UNL     1      -9.602  12.657  68.424  0.00  0.00    +0.007 C 
ENDROOT
BRANCH   1   3
ATOM      3  C   UNL     1     -11.739  13.791  68.243  0.00  0.00    +0.214 C 
BRANCH   3   4
ATOM      4  O   UNL     1     -11.210  14.900  67.518  0.00  0.00    -0.433 OA
BRANCH   4   5
ATOM      5  C   UNL     1     -11.068  16.127  68.129  0.00  0.00    +0.421 C 
ATOM      6  N   UNL     1     -10.206  17.159  67.637  0.00  0.00    -0.170 NA
ATOM      7  O   UNL     1     -11.801  16.473  69.104  0.00  0.00    -0.225 OA
BRANCH   6   8
ATOM      8  C   UNL     1     -10.644  18.550  67.544  0.00  0.00    +0.099 C 
ATOM      9  C   UNL     1      -9.721  19.327  68.478  0.00  0.00    +0.024 C 
ATOM     10  C   UNL     1     -10.345  19.079  66.146  0.00  0.00    +0.024 C 
ENDBRANCH   6   8
ENDBRANCH   4   5
ENDBRANCH   3   4
ENDBRANCH   1   3
BRANCH   1  11
ATOM     11  C   UNL     1     -10.948  12.304  66.421  0.00  0.00    +0.214 C 
BRANCH  11  12
ATOM     12  O   UNL     1     -12.208  12.063  65.842  0.00  0.00    -0.432 OA
BRANCH  12  13
ATOM     13  C   UNL     1     -12.650  12.822  64.782  0.00  0.00    +0.441 C 
ATOM     14  O   UNL     1     -13.197  13.941  65.019  0.00  0.00    -0.223 OA
ATOM     15  N   UNL     1     -12.969  12.193  63.554  0.00  0.00    -0.048 NA
ENDBRANCH  12  13
ENDBRANCH  11  12
ENDBRANCH   1  11
BRANCH   1  16
ATOM     16  C   UNL     1     -11.708  11.324  68.530  0.00  0.00    +0.007 C 
BRANCH  16  18
ATOM     17  C   UNL     1     -12.444  10.908  70.697  0.00  0.00    +0.000 C 
ATOM     18  C   UNL     1     -11.653  11.303  70.024  0.00  0.00    +0.000 C 
ENDBRANCH  16  18
ENDBRANCH   1  16
TORSDOF 9
ENDMDL
MODEL 6
REMARK VINA RESULT:      -5.1      2.390      5.548
REMARK  Name = 
REMARK  9 active torsions:
REMARK  status: ('A' for Active; 'I' for Inactive)
REMARK    1  A    between atoms: C_2  and  C_3
REMARK    2  A    between atoms: C_3  and  C_4
REMARK    3  A    between atoms: C_4  and  C_6
REMARK    4  A    between atoms: C_4  and  C_11
REMARK    5  A    between atoms: C_6  and  O_7
REMARK    6  A    between atoms: O_7  and  C_8
REMARK    7  A    between atoms: C_11  and  O_12
REMARK    8  A    between atoms: O_12  and  C_13
REMARK    9  A    between atoms: N_15  and  C_16
REMARK                            x       y       z     vdW  Elec       q    Type
REMARK                         _______ _______ _______ _____ _____    ______ ____
ROOT
ATOM      1  C   UNL     1     -10.797  15.502  68.194  0.00  0.00    +0.081 C 
ATOM      2  C   UNL     1      -9.837  14.437  68.705  0.00  0.00    +0.007 C 
ENDROOT
BRANCH   1   3
ATOM      3  C   UNL     1      -9.972  16.708  67.860  0.00  0.00    +0.214 C 
BRANCH   3   4
ATOM      4  O   UNL     1     -10.754  17.900  67.844  0.00  0.00    -0.433 OA
BRANCH   4   5
ATOM      5  C   UNL     1     -10.219  19.077  67.366  0.00  0.00    +0.421 C 
ATOM      6  N   UNL     1      -8.915  19.552  67.717  0.00  0.00    -0.170 NA
ATOM      7  O   UNL     1     -10.805  19.757  66.470  0.00  0.00    -0.225 OA
BRANCH   6   8
ATOM      8  C   UNL     1      -7.989  20.073  66.714  0.00  0.00    +0.099 C 
ATOM      9  C   UNL     1      -6.893  20.780  67.506  0.00  0.00    +0.024 C 
ATOM     10  C   UNL     1      -7.297  18.909  66.015  0.00  0.00    +0.024 C 
ENDBRANCH   6   8
ENDBRANCH   4   5
ENDBRANCH   3   4
ENDBRANCH   1   3
BRANCH   1  11
ATOM     11  C   UNL     1     -11.470  14.943  66.965  0.00  0.00    +0.214 C 
BRANCH  11  12
ATOM     12  O   UNL     1     -10.735  15.187  65.790  0.00  0.00    -0.432 OA
BRANCH  12  13
ATOM     13  C   UNL     1     -11.369  15.596  64.639  0.00  0.00    +0.441 C 
ATOM     14  O   UNL     1     -11.293  16.816  64.301  0.00  0.00    -0.223 OA
ATOM     15  N   UNL     1     -12.471  14.856  64.144  0.00  0.00    -0.048 NA
ENDBRANCH  12  13
ENDBRANCH  11  12
ENDBRANCH   1  11
BRANCH   1  16
ATOM     16  C   UNL     1     -11.851  15.816  69.219  0.00  0.00    +0.007 C 
BRANCH  16  18
ATOM     17  C   UNL     1     -11.908  16.062  71.531  0.00  0.00    +0.000 C 
ATOM     18  C   UNL     1     -11.384  15.673  70.632  0.00  0.00    +0.000 C 
ENDBRANCH  16  18
ENDBRANCH   1  16
TORSDOF 9
ENDMDL
MODEL 7
REMARK VINA RESULT:      -5.1      2.858      6.516
REMARK  Name = 
REMARK  9 active torsions:
REMARK  status: ('A' for Active; 'I' for Inactive)
REMARK    1  A    between atoms: C_2  and  C_3
REMARK    2  A    between atoms: C_3  and  C_4
REMARK    3  A    between atoms: C_4  and  C_6
REMARK    4  A    between atoms: C_4  and  C_11
REMARK    5  A    between atoms: C_6  and  O_7
REMARK    6  A    between atoms: O_7  and  C_8
REMARK    7  A    between atoms: C_11  and  O_12
REMARK    8  A    between atoms: O_12  and  C_13
REMARK    9  A    between atoms: N_15  and  C_16
REMARK                            x       y       z     vdW  Elec       q    Type
REMARK                         _______ _______ _______ _____ _____    ______ ____
ROOT
ATOM      1  C   UNL     1     -10.989  13.117  67.380  0.00  0.00    +0.081 C 
ATOM      2  C   UNL     1      -9.732  13.817  66.882  0.00  0.00    +0.007 C 
ENDROOT
BRANCH   1   3
ATOM      3  C   UNL     1     -11.914  14.184  67.879  0.00  0.00    +0.214 C 
BRANCH   3   4
ATOM      4  O   UNL     1     -11.241  15.128  68.710  0.00  0.00    -0.433 OA
BRANCH   4   5
ATOM      5  C   UNL     1     -11.813  15.547  69.892  0.00  0.00    +0.421 C 
ATOM      6  N   UNL     1     -12.919  14.885  70.514  0.00  0.00    -0.170 NA
ATOM      7  O   UNL     1     -11.304  16.483  70.580  0.00  0.00    -0.225 OA
BRANCH   6   8
ATOM      8  C   UNL     1     -12.941  14.601  71.947  0.00  0.00    +0.099 C 
ATOM      9  C   UNL     1     -13.937  15.594  72.538  0.00  0.00    +0.024 C 
ATOM     10  C   UNL     1     -13.554  13.225  72.178  0.00  0.00    +0.024 C 
ENDBRANCH   6   8
ENDBRANCH   4   5
ENDBRANCH   3   4
ENDBRANCH   1   3
BRANCH   1  11
ATOM     11  C   UNL     1     -11.585  12.382  66.205  0.00  0.00    +0.214 C 
BRANCH  11  12
ATOM     12  O   UNL     1     -11.189  12.929  64.971  0.00  0.00    -0.432 OA
BRANCH  12  13
ATOM     13  C   UNL     1     -12.115  13.161  63.978  0.00  0.00    +0.441 C 
ATOM     14  O   UNL     1     -12.538  14.343  63.802  0.00  0.00    -0.223 OA
ATOM     15  N   UNL     1     -12.946  12.103  63.534  0.00  0.00    -0.048 NA
ENDBRANCH  12  13
ENDBRANCH  11  12
ENDBRANCH   1  11
BRANCH   1  16
ATOM     16  C   UNL     1     -10.661  12.118  68.455  0.00  0.00    +0.007 C 
BRANCH  16  18
ATOM     17  C   UNL     1     -11.982  10.673  69.712  0.00  0.00    +0.000 C 
ATOM     18  C   UNL     1     -11.845  11.676  69.253  0.00  0.00    +0.000 C 
ENDBRANCH  16  18
ENDBRANCH   1  16
TORSDOF 9
ENDMDL
MODEL 8
REMARK VINA RESULT:      -5.1      2.921      5.007
REMARK  Name = 
REMARK  9 active torsions:
REMARK  status: ('A' for Active; 'I' for Inactive)
REMARK    1  A    between atoms: C_2  and  C_3
REMARK    2  A    between atoms: C_3  and  C_4
REMARK    3  A    between atoms: C_4  and  C_6
REMARK    4  A    between atoms: C_4  and  C_11
REMARK    5  A    between atoms: C_6  and  O_7
REMARK    6  A    between atoms: O_7  and  C_8
REMARK    7  A    between atoms: C_11  and  O_12
REMARK    8  A    between atoms: O_12  and  C_13
REMARK    9  A    between atoms: N_15  and  C_16
REMARK                            x       y       z     vdW  Elec       q    Type
REMARK                         _______ _______ _______ _____ _____    ______ ____
ROOT
ATOM      1  C   UNL     1     -11.277  13.792  67.115  0.00  0.00    +0.081 C 
ATOM      2  C   UNL     1     -11.910  14.557  68.268  0.00  0.00    +0.007 C 
ENDROOT
BRANCH   1   3
ATOM      3  C   UNL     1     -12.384  13.431  66.172  0.00  0.00    +0.214 C 
BRANCH   3   4
ATOM      4  O   UNL     1     -12.065  13.764  64.822  0.00  0.00    -0.433 OA
BRANCH   4   5
ATOM      5  C   UNL     1     -11.905  12.772  63.879  0.00  0.00    +0.421 C 
ATOM      6  N   UNL     1     -10.628  12.310  63.427  0.00  0.00    -0.170 NA
ATOM      7  O   UNL     1     -12.892  12.106  63.442  0.00  0.00    -0.225 OA
BRANCH   6   8
ATOM      8  C   UNL     1     -10.328  10.886  63.292  0.00  0.00    +0.099 C 
ATOM      9  C   UNL     1      -9.025  10.823  62.500  0.00  0.00    +0.024 C 
ATOM     10  C   UNL     1      -9.997  10.309  64.664  0.00  0.00    +0.024 C 
ENDBRANCH   6   8
ENDBRANCH   4   5
ENDBRANCH   3   4
ENDBRANCH   1   3
BRANCH   1  11
ATOM     11  C   UNL     1     -10.280  14.714  66.460  0.00  0.00    +0.214 C 
BRANCH  11  12
ATOM     12  O   UNL     1     -10.610  16.072  66.631  0.00  0.00    -0.432 OA
BRANCH  12  13
ATOM     13  C   UNL     1     -10.394  16.978  65.618  0.00  0.00    +0.441 C 
ATOM     14  O   UNL     1      -9.844  18.086  65.898  0.00  0.00    -0.223 OA
ATOM     15  N   UNL     1     -11.197  16.931  64.451  0.00  0.00    -0.048 NA
ENDBRANCH  12  13
ENDBRANCH  11  12
ENDBRANCH   1  11
BRANCH   1  16
ATOM     16  C   UNL     1     -10.550  12.572  67.610  0.00  0.00    +0.007 C 
BRANCH  16  18
ATOM     17  C   UNL     1     -11.127  10.447  68.362  0.00  0.00    +0.000 C 
ATOM     18  C   UNL     1     -11.448  11.420  67.930  0.00  0.00    +0.000 C 
ENDBRANCH  16  18
ENDBRANCH   1  16
TORSDOF 9
ENDMDL
MODEL 9
REMARK VINA RESULT:      -5.1      1.826      5.482
REMARK  Name = 
REMARK  9 active torsions:
REMARK  status: ('A' for Active; 'I' for Inactive)
REMARK    1  A    between atoms: C_2  and  C_3
REMARK    2  A    between atoms: C_3  and  C_4
REMARK    3  A    between atoms: C_4  and  C_6
REMARK    4  A    between atoms: C_4  and  C_11
REMARK    5  A    between atoms: C_6  and  O_7
REMARK    6  A    between atoms: O_7  and  C_8
REMARK    7  A    between atoms: C_11  and  O_12
REMARK    8  A    between atoms: O_12  and  C_13
REMARK    9  A    between atoms: N_15  and  C_16
REMARK                            x       y       z     vdW  Elec       q    Type
REMARK                         _______ _______ _______ _____ _____    ______ ____
ROOT
ATOM      1  C   UNL     1     -10.264  16.162  66.837  0.00  0.00    +0.081 C 
ATOM      2  C   UNL     1     -10.528  17.637  67.106  0.00  0.00    +0.007 C 
ENDROOT
BRANCH   1   3
ATOM      3  C   UNL     1     -11.138  15.385  67.774  0.00  0.00    +0.214 C 
BRANCH   3   4
ATOM      4  O   UNL     1     -11.761  16.226  68.743  0.00  0.00    -0.433 OA
BRANCH   4   5
ATOM      5  C   UNL     1     -11.732  15.889  70.079  0.00  0.00    +0.421 C 
ATOM      6  N   UNL     1     -12.851  16.045  70.957  0.00  0.00    -0.170 NA
ATOM      7  O   UNL     1     -10.740  15.287  70.591  0.00  0.00    -0.225 OA
BRANCH   6   8
ATOM      8  C   UNL     1     -13.253  14.994  71.889  0.00  0.00    +0.099 C 
ATOM      9  C   UNL     1     -13.098  15.605  73.278  0.00  0.00    +0.024 C 
ATOM     10  C   UNL     1     -14.745  14.723  71.729  0.00  0.00    +0.024 C 
ENDBRANCH   6   8
ENDBRANCH   4   5
ENDBRANCH   3   4
ENDBRANCH   1   3
BRANCH   1  11
ATOM     11  C   UNL     1     -10.634  15.898  65.399  0.00  0.00    +0.214 C 
BRANCH  11  12
ATOM     12  O   UNL     1     -10.959  14.549  65.166  0.00  0.00    -0.432 OA
BRANCH  12  13
ATOM     13  C   UNL     1     -12.116  14.212  64.501  0.00  0.00    +0.441 C 
ATOM     14  O   UNL     1     -12.735  15.113  63.859  0.00  0.00    -0.223 OA
ATOM     15  N   UNL     1     -12.867  13.088  64.925  0.00  0.00    -0.048 NA
ENDBRANCH  12  13
ENDBRANCH  11  12
ENDBRANCH   1  11
BRANCH   1  16
ATOM     16  C   UNL     1      -8.810  15.830  67.029  0.00  0.00    +0.007 C 
BRANCH  16  18
ATOM     17  C   UNL     1      -6.856  16.975  66.497  0.00  0.00    +0.000 C 
ATOM     18  C   UNL     1      -7.896  17.005  66.888  0.00  0.00    +0.000 C 
ENDBRANCH  16  18
ENDBRANCH   1  16
TORSDOF 9
ENDMDL
