MODEL 1
REMARK VINA RESULT:      -5.6      0.000      0.000
REMARK  Name = 
REMARK  10 active torsions:
REMARK  status: ('A' for Active; 'I' for Inactive)
REMARK    1  A    between atoms: O_2  and  C_3
REMARK    2  A    between atoms: C_3  and  C_5
REMARK    3  A    between atoms: C_5  and  C_6
REMARK    4  A    between atoms: C_6  and  C_7
REMARK    5  A    between atoms: C_10  and  O_11
REMARK    6  A    between atoms: O_11  and  C_12
REMARK    7  A    between atoms: C_12  and  C_13
REMARK    8  A    between atoms: C_13  and  C_15
REMARK    9  A    between atoms: C_15  and  N_16
REMARK   10  A    between atoms: N_16  and  C_17
REMARK                            x       y       z     vdW  Elec       q    Type
REMARK                         _______ _______ _______ _____ _____    ______ ____
ROOT
ATOM      1  C   UNL     1     -10.127  11.077  65.950  0.00  0.00    -0.021 A 
ATOM      2  C   UNL     1      -9.280  12.065  66.401  0.00  0.00    -0.001 A 
ATOM      3  C   UNL     1      -9.569  12.770  67.563  0.00  0.00    +0.037 A 
ATOM      4  C   UNL     1     -10.666  12.443  68.333  0.00  0.00    +0.139 A 
ATOM      5  C   UNL     1     -11.288  11.231  68.070  0.00  0.00    +0.037 A 
ATOM      6  C   UNL     1     -10.976  10.536  66.907  0.00  0.00    -0.001 A 
ENDROOT
BRANCH   1   7
ATOM      7  C   UNL     1     -10.395  10.786  64.530  0.00  0.00    +0.038 C 
BRANCH   7   8
ATOM      8  C   UNL     1     -10.581  12.020  63.696  0.00  0.00    +0.114 C 
BRANCH   8   9
ATOM      9  C   UNL     1     -11.961  12.537  63.946  0.00  0.00    +0.317 C 
ATOM     10  O   UNL     1     -12.958  12.059  63.326  0.00  0.00    -0.250 OA
BRANCH   9  12
ATOM     11  C   UNL     1     -12.634  14.021  65.606  0.00  0.00    +0.256 C 
ATOM     12  O   UNL     1     -12.128  13.823  64.469  0.00  0.00    -0.444 OA
ENDBRANCH   9  12
ENDBRANCH   8   9
ENDBRANCH   7   8
ENDBRANCH   1   7
BRANCH   4  13
ATOM     13  O   UNL     1     -11.383  13.373  69.072  0.00  0.00    -0.473 OA
BRANCH  13  14
ATOM     14  C   UNL     1     -10.803  14.614  69.414  0.00  0.00    +0.240 C 
BRANCH  14  15
ATOM     15  C   UNL     1     -12.120  15.661  69.379  0.00  0.00    +0.213 C 
ATOM     16  O   UNL     1     -11.179  16.887  69.265  0.00  0.00    -0.218 OA
BRANCH  15  17
ATOM     17  C   UNL     1     -12.125  15.756  71.057  0.00  0.00    +0.125 C 
BRANCH  17  18
ATOM     18  N   UNL     1     -13.522  15.682  71.409  0.00  0.00    -0.217 NA
BRANCH  18  19
ATOM     19  C   UNL     1     -13.592  14.800  72.572  0.00  0.00    +0.073 C 
ATOM     20  C   UNL     1     -12.497  15.218  73.515  0.00  0.00    +0.019 C 
ATOM     21  C   UNL     1     -13.551  13.348  72.200  0.00  0.00    +0.019 C 
ENDBRANCH  18  19
ENDBRANCH  17  18
ENDBRANCH  15  17
ENDBRANCH  14  15
ENDBRANCH  13  14
ENDBRANCH   4  13
TORSDOF 10
ENDMDL
MODEL 2
REMARK VINA RESULT:      -5.4      2.984      7.723
REMARK  Name = 
REMARK  10 active torsions:
REMARK  status: ('A' for Active; 'I' for Inactive)
REMARK    1  A    between atoms: O_2  and  C_3
REMARK    2  A    between atoms: C_3  and  C_5
REMARK    3  A    between atoms: C_5  and  C_6
REMARK    4  A    between atoms: C_6  and  C_7
REMARK    5  A    between atoms: C_10  and  O_11
REMARK    6  A    between atoms: O_11  and  C_12
REMARK    7  A    between atoms: C_12  and  C_13
REMARK    8  A    between atoms: C_13  and  C_15
REMARK    9  A    between atoms: C_15  and  N_16
REMARK   10  A    between atoms: N_16  and  C_17
REMARK                            x       y       z     vdW  Elec       q    Type
REMARK                         _______ _______ _______ _____ _____    ______ ____
ROOT
ATOM      1  C   UNL     1     -11.812  14.581  69.517  0.00  0.00    -0.021 A 
ATOM      2  C   UNL     1     -11.830  13.208  69.415  0.00  0.00    -0.001 A 
ATOM      3  C   UNL     1     -11.662  12.587  68.184  0.00  0.00    +0.037 A 
ATOM      4  C   UNL     1     -11.395  13.325  67.050  0.00  0.00    +0.139 A 
ATOM      5  C   UNL     1     -11.020  14.650  67.229  0.00  0.00    +0.037 A 
ATOM      6  C   UNL     1     -11.185  15.248  68.473  0.00  0.00    -0.001 A 
ENDROOT
BRANCH   1   7
ATOM      7  C   UNL     1     -12.639  15.363  70.454  0.00  0.00    +0.038 C 
BRANCH   7   8
ATOM      8  C   UNL     1     -12.418  14.993  71.891  0.00  0.00    +0.114 C 
BRANCH   8   9
ATOM      9  C   UNL     1     -13.536  15.581  72.692  0.00  0.00    +0.317 C 
ATOM     10  O   UNL     1     -14.649  15.858  72.152  0.00  0.00    -0.250 OA
BRANCH   9  12
ATOM     11  C   UNL     1     -12.432  15.814  74.726  0.00  0.00    +0.256 C 
ATOM     12  O   UNL     1     -13.245  16.266  73.876  0.00  0.00    -0.444 OA
ENDBRANCH   9  12
ENDBRANCH   8   9
ENDBRANCH   7   8
ENDBRANCH   1   7
BRANCH   4  13
ATOM     13  O   UNL     1     -11.818  12.955  65.782  0.00  0.00    -0.473 OA
BRANCH  13  14
ATOM     14  C   UNL     1     -11.353  13.648  64.643  0.00  0.00    +0.240 C 
BRANCH  14  15
ATOM     15  C   UNL     1     -11.986  12.742  63.374  0.00  0.00    +0.213 C 
ATOM     16  O   UNL     1     -13.251  12.409  64.204  0.00  0.00    -0.218 OA
BRANCH  15  17
ATOM     17  C   UNL     1     -11.197  11.364  63.926  0.00  0.00    +0.125 C 
BRANCH  17  18
ATOM     18  N   UNL     1     -10.037  11.259  63.075  0.00  0.00    -0.217 NA
BRANCH  18  19
ATOM     19  C   UNL     1      -9.327  10.061  63.519  0.00  0.00    +0.073 C 
ATOM     20  C   UNL     1      -9.701   9.828  64.957  0.00  0.00    +0.019 C 
ATOM     21  C   UNL     1      -7.848  10.147  63.283  0.00  0.00    +0.019 C 
ENDBRANCH  18  19
ENDBRANCH  17  18
ENDBRANCH  15  17
ENDBRANCH  14  15
ENDBRANCH  13  14
ENDBRANCH   4  13
TORSDOF 10
ENDMDL
MODEL 3
REMARK VINA RESULT:      -5.4      3.794      5.380
REMARK  Name = 
REMARK  10 active torsions:
REMARK  status: ('A' for Active; 'I' for Inactive)
REMARK    1  A    between atoms: O_2  and  C_3
REMARK    2  A    between atoms: C_3  and  C_5
REMARK    3  A    between atoms: C_5  and  C_6
REMARK    4  A    between atoms: C_6  and  C_7
REMARK    5  A    between atoms: C_10  and  O_11
REMARK    6  A    between atoms: O_11  and  C_12
REMARK    7  A    between atoms: C_12  and  C_13
REMARK    8  A    between atoms: C_13  and  C_15
REMARK    9  A    between atoms: C_15  and  N_16
REMARK   10  A    between atoms: N_16  and  C_17
REMARK                            x       y       z     vdW  Elec       q    Type
REMARK                         _______ _______ _______ _____ _____    ______ ____
ROOT
ATOM      1  C   UNL     1     -11.132  13.418  68.045  0.00  0.00    -0.021 A 
ATOM      2  C   UNL     1      -9.934  14.031  67.752  0.00  0.00    -0.001 A 
ATOM      3  C   UNL     1      -9.790  15.406  67.884  0.00  0.00    +0.037 A 
ATOM      4  C   UNL     1     -10.816  16.179  68.387  0.00  0.00    +0.139 A 
ATOM      5  C   UNL     1     -11.862  15.515  69.014  0.00  0.00    +0.037 A 
ATOM      6  C   UNL     1     -11.980  14.136  68.879  0.00  0.00    -0.001 A 
ENDROOT
BRANCH   1   7
ATOM      7  C   UNL     1     -11.675  12.252  67.327  0.00  0.00    +0.038 C 
BRANCH   7   8
ATOM      8  C   UNL     1     -11.399  12.281  65.853  0.00  0.00    +0.114 C 
BRANCH   8   9
ATOM      9  C   UNL     1     -12.603  12.851  65.173  0.00  0.00    +0.317 C 
ATOM     10  O   UNL     1     -13.236  12.184  64.300  0.00  0.00    -0.250 OA
BRANCH   9  12
ATOM     11  C   UNL     1     -11.883  14.994  64.625  0.00  0.00    +0.256 C 
ATOM     12  O   UNL     1     -12.765  14.239  65.114  0.00  0.00    -0.444 OA
ENDBRANCH   9  12
ENDBRANCH   8   9
ENDBRANCH   7   8
ENDBRANCH   1   7
BRANCH   4  13
ATOM     13  O   UNL     1     -11.044  17.491  67.999  0.00  0.00    -0.473 OA
BRANCH  13  14
ATOM     14  C   UNL     1      -9.980  18.417  67.952  0.00  0.00    +0.240 C 
BRANCH  14  15
ATOM     15  C   UNL     1     -10.371  19.364  66.617  0.00  0.00    +0.213 C 
ATOM     16  O   UNL     1     -10.435  18.110  65.709  0.00  0.00    -0.218 OA
BRANCH  15  17
ATOM     17  C   UNL     1      -8.742  19.596  66.269  0.00  0.00    +0.125 C 
BRANCH  17  18
ATOM     18  N   UNL     1      -8.275  18.288  65.886  0.00  0.00    -0.217 NA
BRANCH  18  19
ATOM     19  C   UNL     1      -6.844  18.274  66.183  0.00  0.00    +0.073 C 
ATOM     20  C   UNL     1      -6.129  18.781  64.960  0.00  0.00    +0.019 C 
ATOM     21  C   UNL     1      -6.364  16.934  66.653  0.00  0.00    +0.019 C 
ENDBRANCH  18  19
ENDBRANCH  17  18
ENDBRANCH  15  17
ENDBRANCH  14  15
ENDBRANCH  13  14
ENDBRANCH   4  13
TORSDOF 10
ENDMDL
MODEL 4
REMARK VINA RESULT:      -5.4      5.651      8.972
REMARK  Name = 
REMARK  10 active torsions:
REMARK  status: ('A' for Active; 'I' for Inactive)
REMARK    1  A    between atoms: O_2  and  C_3
REMARK    2  A    between atoms: C_3  and  C_5
REMARK    3  A    between atoms: C_5  and  C_6
REMARK    4  A    between atoms: C_6  and  C_7
REMARK    5  A    between atoms: C_10  and  O_11
REMARK    6  A    between atoms: O_11  and  C_12
REMARK    7  A    between atoms: C_12  and  C_13
REMARK    8  A    between atoms: C_13  and  C_15
REMARK    9  A    between atoms: C_15  and  N_16
REMARK   10  A    between atoms: N_16  and  C_17
REMARK                            x       y       z     vdW  Elec       q    Type
REMARK                         _______ _______ _______ _____ _____    ______ ____
ROOT
ATOM      1  C   UNL     1      -7.276  19.669  68.424  0.00  0.00    -0.021 A 
ATOM      2  C   UNL     1      -7.184  19.986  67.087  0.00  0.00    -0.001 A 
ATOM      3  C   UNL     1      -8.169  19.583  66.194  0.00  0.00    +0.037 A 
ATOM      4  C   UNL     1      -9.299  18.927  66.637  0.00  0.00    +0.139 A 
ATOM      5  C   UNL     1      -9.548  18.943  68.003  0.00  0.00    +0.037 A 
ATOM      6  C   UNL     1      -8.552  19.362  68.878  0.00  0.00    -0.001 A 
ENDROOT
BRANCH   1   7
ATOM      7  C   UNL     1      -6.127  19.352  69.291  0.00  0.00    +0.038 C 
BRANCH   7   8
ATOM      8  C   UNL     1      -6.171  20.055  70.616  0.00  0.00    +0.114 C 
BRANCH   8   9
ATOM      9  C   UNL     1      -5.108  19.463  71.484  0.00  0.00    +0.317 C 
ATOM     10  O   UNL     1      -5.217  18.283  71.937  0.00  0.00    -0.250 OA
BRANCH   9  12
ATOM     11  C   UNL     1      -3.081  20.562  71.793  0.00  0.00    +0.256 C 
ATOM     12  O   UNL     1      -4.249  20.310  72.193  0.00  0.00    -0.444 OA
ENDBRANCH   9  12
ENDBRANCH   8   9
ENDBRANCH   7   8
ENDBRANCH   1   7
BRANCH   4  13
ATOM     13  O   UNL     1      -9.974  17.979  65.884  0.00  0.00    -0.473 OA
BRANCH  13  14
ATOM     14  C   UNL     1     -10.267  16.709  66.428  0.00  0.00    +0.240 C 
BRANCH  14  15
ATOM     15  C   UNL     1     -10.394  15.739  65.060  0.00  0.00    +0.213 C 
ATOM     16  O   UNL     1     -11.290  16.791  64.360  0.00  0.00    -0.218 OA
BRANCH  15  17
ATOM     17  C   UNL     1     -11.732  14.953  65.707  0.00  0.00    +0.125 C 
BRANCH  17  18
ATOM     18  N   UNL     1     -12.429  14.438  64.554  0.00  0.00    -0.217 NA
BRANCH  18  19
ATOM     19  C   UNL     1     -12.409  12.984  64.694  0.00  0.00    +0.073 C 
ATOM     20  C   UNL     1     -11.823  12.674  66.045  0.00  0.00    +0.019 C 
ATOM     21  C   UNL     1     -11.707  12.303  63.558  0.00  0.00    +0.019 C 
ENDBRANCH  18  19
ENDBRANCH  17  18
ENDBRANCH  15  17
ENDBRANCH  14  15
ENDBRANCH  13  14
ENDBRANCH   4  13
TORSDOF 10
ENDMDL
MODEL 5
REMARK VINA RESULT:      -5.3      2.569      7.302
REMARK  Name = 
REMARK  10 active torsions:
REMARK  status: ('A' for Active; 'I' for Inactive)
REMARK    1  A    between atoms: O_2  and  C_3
REMARK    2  A    between atoms: C_3  and  C_5
REMARK    3  A    between atoms: C_5  and  C_6
REMARK    4  A    between atoms: C_6  and  C_7
REMARK    5  A    between atoms: C_10  and  O_11
REMARK    6  A    between atoms: O_11  and  C_12
REMARK    7  A    between atoms: C_12  and  C_13
REMARK    8  A    between atoms: C_13  and  C_15
REMARK    9  A    between atoms: C_15  and  N_16
REMARK   10  A    between atoms: N_16  and  C_17
REMARK                            x       y       z     vdW  Elec       q    Type
REMARK                         _______ _______ _______ _____ _____    ______ ____
ROOT
ATOM      1  C   UNL     1     -11.267  15.359  69.825  0.00  0.00    -0.021 A 
ATOM      2  C   UNL     1     -11.452  14.010  69.625  0.00  0.00    -0.001 A 
ATOM      3  C   UNL     1     -11.691  13.509  68.351  0.00  0.00    +0.037 A 
ATOM      4  C   UNL     1     -11.668  14.338  67.249  0.00  0.00    +0.139 A 
ATOM      5  C   UNL     1     -11.124  15.604  67.419  0.00  0.00    +0.037 A 
ATOM      6  C   UNL     1     -10.882  16.081  68.702  0.00  0.00    -0.001 A 
ENDROOT
BRANCH   1   7
ATOM      7  C   UNL     1     -11.722  16.101  71.014  0.00  0.00    +0.038 C 
BRANCH   7   8
ATOM      8  C   UNL     1     -11.754  15.264  72.259  0.00  0.00    +0.114 C 
BRANCH   8   9
ATOM      9  C   UNL     1     -13.099  15.433  72.889  0.00  0.00    +0.317 C 
ATOM     10  O   UNL     1     -13.259  16.190  73.894  0.00  0.00    -0.250 OA
BRANCH   9  12
ATOM     11  C   UNL     1     -13.767  13.270  72.354  0.00  0.00    +0.256 C 
ATOM     12  O   UNL     1     -14.068  14.438  72.716  0.00  0.00    -0.444 OA
ENDBRANCH   9  12
ENDBRANCH   8   9
ENDBRANCH   7   8
ENDBRANCH   1   7
BRANCH   4  13
ATOM     13  O   UNL     1     -12.455  14.135  66.126  0.00  0.00    -0.473 OA
BRANCH  13  14
ATOM     14  C   UNL     1     -12.442  12.892  65.458  0.00  0.00    +0.240 C 
BRANCH  14  15
ATOM     15  C   UNL     1     -11.586  13.234  64.051  0.00  0.00    +0.213 C 
ATOM     16  O   UNL     1     -12.695  12.585  63.184  0.00  0.00    -0.218 OA
BRANCH  15  17
ATOM     17  C   UNL     1     -10.754  11.778  64.168  0.00  0.00    +0.125 C 
BRANCH  17  18
ATOM     18  N   UNL     1      -9.892  11.958  65.311  0.00  0.00    -0.217 NA
BRANCH  18  19
ATOM     19  C   UNL     1      -9.482  10.614  65.714  0.00  0.00    +0.073 C 
ATOM     20  C   UNL     1      -9.454   9.765  64.472  0.00  0.00    +0.019 C 
ATOM     21  C   UNL     1     -10.336  10.055  66.812  0.00  0.00    +0.019 C 
ENDBRANCH  18  19
ENDBRANCH  17  18
ENDBRANCH  15  17
ENDBRANCH  14  15
ENDBRANCH  13  14
ENDBRANCH   4  13
TORSDOF 10
ENDMDL
MODEL 6
REMARK VINA RESULT:      -5.3      2.345      6.480
REMARK  Name = 
REMARK  10 active torsions:
REMARK  status: ('A' for Active; 'I' for Inactive)
REMARK    1  A    between atoms: O_2  and  C_3
REMARK    2  A    between atoms: C_3  and  C_5
REMARK    3  A    between atoms: C_5  and  C_6
REMARK    4  A    between atoms: C_6  and  C_7
REMARK    5  A    between atoms: C_10  and  O_11
REMARK    6  A    between atoms: O_11  and  C_12
REMARK    7  A    between atoms: C_12  and  C_13
REMARK    8  A    between atoms: C_13  and  C_15
REMARK    9  A    between atoms: C_15  and  N_16
REMARK   10  A    between atoms: N_16  and  C_17
REMARK                            x       y       z     vdW  Elec       q    Type
REMARK                         _______ _______ _______ _____ _____    ______ ____
ROOT
ATOM      1  C   UNL     1     -10.623  15.723  69.902  0.00  0.00    -0.021 A 
ATOM      2  C   UNL     1      -9.494  15.057  69.479  0.00  0.00    -0.001 A 
ATOM      3  C   UNL     1      -9.305  14.768  68.133  0.00  0.00    +0.037 A 
ATOM      4  C   UNL     1     -10.202  15.211  67.182  0.00  0.00    +0.139 A 
ATOM      5  C   UNL     1     -11.118  16.177  67.575  0.00  0.00    +0.037 A 
ATOM      6  C   UNL     1     -11.283  16.458  68.926  0.00  0.00    -0.001 A 
ENDROOT
BRANCH   1   7
ATOM      7  C   UNL     1     -11.314  15.472  71.180  0.00  0.00    +0.038 C 
BRANCH   7   8
ATOM      8  C   UNL     1     -12.807  15.415  71.046  0.00  0.00    +0.114 C 
BRANCH   8   9
ATOM      9  C   UNL     1     -13.385  15.263  72.416  0.00  0.00    +0.317 C 
ATOM     10  O   UNL     1     -13.290  16.194  73.271  0.00  0.00    -0.250 OA
BRANCH   9  12
ATOM     11  C   UNL     1     -13.644  12.962  72.193  0.00  0.00    +0.256 C 
ATOM     12  O   UNL     1     -13.595  13.981  72.934  0.00  0.00    -0.444 OA
ENDBRANCH   9  12
ENDBRANCH   8   9
ENDBRANCH   7   8
ENDBRANCH   1   7
BRANCH   4  13
ATOM     13  O   UNL     1     -10.478  14.517  66.014  0.00  0.00    -0.473 OA
BRANCH  13  14
ATOM     14  C   UNL     1     -11.805  14.162  65.690  0.00  0.00    +0.240 C 
BRANCH  14  15
ATOM     15  C   UNL     1     -11.597  12.989  64.502  0.00  0.00    +0.213 C 
ATOM     16  O   UNL     1     -13.049  12.485  64.704  0.00  0.00    -0.218 OA
BRANCH  15  17
ATOM     17  C   UNL     1     -11.005  11.901  65.639  0.00  0.00    +0.125 C 
BRANCH  17  18
ATOM     18  N   UNL     1     -11.994  11.917  66.688  0.00  0.00    -0.217 NA
BRANCH  18  19
ATOM     19  C   UNL     1     -11.351  11.303  67.848  0.00  0.00    +0.073 C 
ATOM     20  C   UNL     1     -11.749  12.106  69.056  0.00  0.00    +0.019 C 
ATOM     21  C   UNL     1      -9.869  11.158  67.678  0.00  0.00    +0.019 C 
ENDBRANCH  18  19
ENDBRANCH  17  18
ENDBRANCH  15  17
ENDBRANCH  14  15
ENDBRANCH  13  14
ENDBRANCH   4  13
TORSDOF 10
ENDMDL
MODEL 7
REMARK VINA RESULT:      -5.2      3.493      6.383
REMARK  Name = 
REMARK  10 active torsions:
REMARK  status: ('A' for Active; 'I' for Inactive)
REMARK    1  A    between atoms: O_2  and  C_3
REMARK    2  A    between atoms: C_3  and  C_5
REMARK    3  A    between atoms: C_5  and  C_6
REMARK    4  A    between atoms: C_6  and  C_7
REMARK    5  A    between atoms: C_10  and  O_11
REMARK    6  A    between atoms: O_11  and  C_12
REMARK    7  A    between atoms: C_12  and  C_13
REMARK    8  A    between atoms: C_13  and  C_15
REMARK    9  A    between atoms: C_15  and  N_16
REMARK   10  A    between atoms: N_16  and  C_17
REMARK                            x       y       z     vdW  Elec       q    Type
REMARK                         _______ _______ _______ _____ _____    ______ ____
ROOT
ATOM      1  C   UNL     1     -11.136  10.689  69.882  0.00  0.00    -0.021 A 
ATOM      2  C   UNL     1     -10.545  10.164  68.755  0.00  0.00    -0.001 A 
ATOM      3  C   UNL     1     -10.772  10.729  67.507  0.00  0.00    +0.037 A 
ATOM      4  C   UNL     1     -11.529  11.876  67.377  0.00  0.00    +0.139 A 
ATOM      5  C   UNL     1     -11.803  12.589  68.536  0.00  0.00    +0.037 A 
ATOM      6  C   UNL     1     -11.557  12.008  69.774  0.00  0.00    -0.001 A 
ENDROOT
BRANCH   1   7
ATOM      7  C   UNL     1     -11.605   9.894  71.031  0.00  0.00    +0.038 C 
BRANCH   7   8
ATOM      8  C   UNL     1     -13.051  10.121  71.360  0.00  0.00    +0.114 C 
BRANCH   8   9
ATOM      9  C   UNL     1     -13.469   9.068  72.335  0.00  0.00    +0.317 C 
ATOM     10  O   UNL     1     -12.616   8.298  72.869  0.00  0.00    -0.250 OA
BRANCH   9  12
ATOM     11  C   UNL     1     -15.067   7.417  71.973  0.00  0.00    +0.256 C 
ATOM     12  O   UNL     1     -14.786   8.597  72.313  0.00  0.00    -0.444 OA
ENDBRANCH   9  12
ENDBRANCH   8   9
ENDBRANCH   7   8
ENDBRANCH   1   7
BRANCH   4  13
ATOM     13  O   UNL     1     -12.312  12.151  66.266  0.00  0.00    -0.473 OA
BRANCH  13  14
ATOM     14  C   UNL     1     -11.725  12.645  65.081  0.00  0.00    +0.240 C 
BRANCH  14  15
ATOM     15  C   UNL     1     -12.200  14.259  65.076  0.00  0.00    +0.213 C 
ATOM     16  O   UNL     1     -12.562  14.178  63.572  0.00  0.00    -0.218 OA
BRANCH  15  17
ATOM     17  C   UNL     1     -10.630  14.750  64.726  0.00  0.00    +0.125 C 
BRANCH  17  18
ATOM     18  N   UNL     1     -10.496  16.013  65.409  0.00  0.00    -0.217 NA
BRANCH  18  19
ATOM     19  C   UNL     1     -10.369  15.686  66.827  0.00  0.00    +0.073 C 
ATOM     20  C   UNL     1     -10.483  16.975  67.594  0.00  0.00    +0.019 C 
ATOM     21  C   UNL     1      -9.125  14.907  67.131  0.00  0.00    +0.019 C 
ENDBRANCH  18  19
ENDBRANCH  17  18
ENDBRANCH  15  17
ENDBRANCH  14  15
ENDBRANCH  13  14
ENDBRANCH   4  13
TORSDOF 10
ENDMDL
MODEL 8
REMARK VINA RESULT:      -5.1      4.174      6.393
REMARK  Name = 
REMARK  10 active torsions:
REMARK  status: ('A' for Active; 'I' for Inactive)
REMARK    1  A    between atoms: O_2  and  C_3
REMARK    2  A    between atoms: C_3  and  C_5
REMARK    3  A    between atoms: C_5  and  C_6
REMARK    4  A    between atoms: C_6  and  C_7
REMARK    5  A    between atoms: C_10  and  O_11
REMARK    6  A    between atoms: O_11  and  C_12
REMARK    7  A    between atoms: C_12  and  C_13
REMARK    8  A    between atoms: C_13  and  C_15
REMARK    9  A    between atoms: C_15  and  N_16
REMARK   10  A    between atoms: N_16  and  C_17
REMARK                            x       y       z     vdW  Elec       q    Type
REMARK                         _______ _______ _______ _____ _____    ______ ____
ROOT
ATOM      1  C   UNL     1     -10.825  14.529  67.480  0.00  0.00    -0.021 A 
ATOM      2  C   UNL     1     -11.074  14.918  66.183  0.00  0.00    -0.001 A 
ATOM      3  C   UNL     1     -10.146  15.676  65.479  0.00  0.00    +0.037 A 
ATOM      4  C   UNL     1      -8.923  15.990  66.034  0.00  0.00    +0.139 A 
ATOM      5  C   UNL     1      -8.546  15.292  67.174  0.00  0.00    +0.037 A 
ATOM      6  C   UNL     1      -9.488  14.530  67.856  0.00  0.00    -0.001 A 
ENDROOT
BRANCH   1   7
ATOM      7  C   UNL     1     -11.850  14.416  68.533  0.00  0.00    +0.038 C 
BRANCH   7   8
ATOM      8  C   UNL     1     -12.039  15.681  69.316  0.00  0.00    +0.114 C 
BRANCH   8   9
ATOM      9  C   UNL     1     -12.382  15.302  70.721  0.00  0.00    +0.317 C 
ATOM     10  O   UNL     1     -11.908  14.251  71.247  0.00  0.00    -0.250 OA
BRANCH   9  12
ATOM     11  C   UNL     1     -14.505  15.037  71.635  0.00  0.00    +0.256 C 
ATOM     12  O   UNL     1     -13.557  15.796  71.298  0.00  0.00    -0.444 OA
ENDBRANCH   9  12
ENDBRANCH   8   9
ENDBRANCH   7   8
ENDBRANCH   1   7
BRANCH   4  13
ATOM     13  O   UNL     1      -8.238  17.163  65.757  0.00  0.00    -0.473 OA
BRANCH  13  14
ATOM     14  C   UNL     1      -6.921  17.351  66.230  0.00  0.00    +0.240 C 
BRANCH  14  15
ATOM     15  C   UNL     1      -6.753  19.025  66.207  0.00  0.00    +0.213 C 
ATOM     16  O   UNL     1      -5.446  18.934  67.035  0.00  0.00    -0.218 OA
BRANCH  15  17
ATOM     17  C   UNL     1      -7.686  19.165  67.599  0.00  0.00    +0.125 C 
BRANCH  17  18
ATOM     18  N   UNL     1      -8.513  20.321  67.353  0.00  0.00    -0.217 NA
BRANCH  18  19
ATOM     19  C   UNL     1      -9.892  19.864  67.509  0.00  0.00    +0.073 C 
ATOM     20  C   UNL     1      -9.868  18.682  68.439  0.00  0.00    +0.019 C 
ATOM     21  C   UNL     1     -10.561  19.588  66.196  0.00  0.00    +0.019 C 
ENDBRANCH  18  19
ENDBRANCH  17  18
ENDBRANCH  15  17
ENDBRANCH  14  15
ENDBRANCH  13  14
ENDBRANCH   4  13
TORSDOF 10
ENDMDL
MODEL 9
REMARK VINA RESULT:      -5.1      4.836      7.443
REMARK  Name = 
REMARK  10 active torsions:
REMARK  status: ('A' for Active; 'I' for Inactive)
REMARK    1  A    between atoms: O_2  and  C_3
REMARK    2  A    between atoms: C_3  and  C_5
REMARK    3  A    between atoms: C_5  and  C_6
REMARK    4  A    between atoms: C_6  and  C_7
REMARK    5  A    between atoms: C_10  and  O_11
REMARK    6  A    between atoms: O_11  and  C_12
REMARK    7  A    between atoms: C_12  and  C_13
REMARK    8  A    between atoms: C_13  and  C_15
REMARK    9  A    between atoms: C_15  and  N_16
REMARK   10  A    between atoms: N_16  and  C_17
REMARK                            x       y       z     vdW  Elec       q    Type
REMARK                         _______ _______ _______ _____ _____    ______ ____
ROOT
ATOM      1  C   UNL     1      -8.246  19.896  66.977  0.00  0.00    -0.021 A 
ATOM      2  C   UNL     1      -8.212  18.589  66.546  0.00  0.00    -0.001 A 
ATOM      3  C   UNL     1      -9.230  17.705  66.883  0.00  0.00    +0.037 A 
ATOM      4  C   UNL     1     -10.336  18.135  67.587  0.00  0.00    +0.139 A 
ATOM      5  C   UNL     1     -10.528  19.506  67.690  0.00  0.00    +0.037 A 
ATOM      6  C   UNL     1      -9.500  20.373  67.336  0.00  0.00    -0.001 A 
ENDROOT
BRANCH   1   7
ATOM      7  C   UNL     1      -7.060  20.685  67.354  0.00  0.00    +0.038 C 
BRANCH   7   8
ATOM      8  C   UNL     1      -5.975  19.862  67.985  0.00  0.00    +0.114 C 
BRANCH   8   9
ATOM      9  C   UNL     1      -5.634  20.486  69.301  0.00  0.00    +0.317 C 
ATOM     10  O   UNL     1      -4.535  21.095  69.468  0.00  0.00    -0.250 OA
BRANCH   9  12
ATOM     11  C   UNL     1      -5.706  20.108  71.595  0.00  0.00    +0.256 C 
ATOM     12  O   UNL     1      -6.254  20.018  70.464  0.00  0.00    -0.444 OA
ENDBRANCH   9  12
ENDBRANCH   8   9
ENDBRANCH   7   8
ENDBRANCH   1   7
BRANCH   4  13
ATOM     13  O   UNL     1     -11.034  17.331  68.475  0.00  0.00    -0.473 OA
BRANCH  13  14
ATOM     14  C   UNL     1     -11.235  15.963  68.194  0.00  0.00    +0.240 C 
BRANCH  14  15
ATOM     15  C   UNL     1     -10.548  15.205  69.529  0.00  0.00    +0.213 C 
ATOM     16  O   UNL     1     -11.539  14.020  69.404  0.00  0.00    -0.218 OA
BRANCH  15  17
ATOM     17  C   UNL     1     -11.583  16.029  70.567  0.00  0.00    +0.125 C 
BRANCH  17  18
ATOM     18  N   UNL     1     -11.843  15.086  71.626  0.00  0.00    -0.217 NA
BRANCH  18  19
ATOM     19  C   UNL     1     -12.823  15.730  72.499  0.00  0.00    +0.073 C 
ATOM     20  C   UNL     1     -12.421  15.432  73.917  0.00  0.00    +0.019 C 
ATOM     21  C   UNL     1     -14.233  15.338  72.172  0.00  0.00    +0.019 C 
ENDBRANCH  18  19
ENDBRANCH  17  18
ENDBRANCH  15  17
ENDBRANCH  14  15
ENDBRANCH  13  14
ENDBRANCH   4  13
TORSDOF 10
ENDMDL
