MODEL 1
REMARK VINA RESULT:      -7.3      0.000      0.000
REMARK  Name = 
REMARK  6 active torsions:
REMARK  status: ('A' for Active; 'I' for Inactive)
REMARK    1  A    between atoms: C_6  and  C_7
REMARK    2  A    between atoms: C_7  and  C_8
REMARK    3  A    between atoms: C_8  and  O_9
REMARK    4  A    between atoms: O_9  and  C_10
REMARK    5  A    between atoms: C_10  and  C_12
REMARK    6  A    between atoms: C_10  and  C_18
REMARK                            x       y       z     vdW  Elec       q    Type
REMARK                         _______ _______ _______ _____ _____    ______ ____
ROOT
ATOM      1  C   UNL     1     -10.562  16.322  68.178  0.00  0.00    +0.130 C 
ATOM      2  C   UNL     1      -9.512  15.573  68.989  0.00  0.00    +0.039 C 
ENDROOT
BRANCH   1   3
ATOM      3  C   UNL     1     -10.918  15.509  66.998  0.00  0.00    +0.006 A 
ATOM      4  C   UNL     1     -11.917  14.552  67.123  0.00  0.00    -0.001 A 
ATOM      5  C   UNL     1     -12.077  13.557  66.167  0.00  0.00    +0.011 A 
ATOM      6  C   UNL     1     -11.294  13.594  65.021  0.00  0.00    +0.058 A 
ATOM      7 CL   UNL     1     -11.848  12.813  63.542  0.00  0.00    -0.082 Cl
ATOM      8  C   UNL     1     -10.244  14.497  64.951  0.00  0.00    +0.011 A 
ATOM      9  C   UNL     1      -9.979  15.336  66.003  0.00  0.00    -0.001 A 
ENDBRANCH   1   3
BRANCH   1  10
ATOM     10  C   UNL     1      -9.963  17.629  67.805  0.00  0.00    +0.006 A 
ATOM     11  C   UNL     1     -10.709  18.668  67.264  0.00  0.00    -0.002 A 
ATOM     12  C   UNL     1     -10.017  19.820  66.924  0.00  0.00    -0.000 A 
ATOM     13  C   UNL     1      -8.632  19.875  66.986  0.00  0.00    -0.000 A 
ATOM     14  C   UNL     1      -8.023  19.030  67.904  0.00  0.00    -0.000 A 
ATOM     15  C   UNL     1      -8.729  17.928  68.367  0.00  0.00    -0.002 A 
ENDBRANCH   1  10
BRANCH   1  16
ATOM     16  O   UNL     1     -11.681  16.578  68.974  0.00  0.00    -0.350 OA
BRANCH  16  17
ATOM     17  C   UNL     1     -11.415  16.068  70.248  0.00  0.00    +0.144 C 
BRANCH  17  18
ATOM     18  C   UNL     1     -12.644  15.446  70.859  0.00  0.00    +0.048 C 
BRANCH  18  21
ATOM     19  C   UNL     1     -12.746  12.836  71.238  0.00  0.00    +0.090 C 
ATOM     20  N   UNL     1     -13.163  13.682  72.347  0.00  0.00    -0.273 NA
ATOM     21  C   UNL     1     -12.042  14.819  72.285  0.00  0.00    +0.060 C 
ATOM     22  C   UNL     1     -12.954  15.860  73.216  0.00  0.00    +0.017 C 
ATOM     23  C   UNL     1     -14.264  15.781  72.528  0.00  0.00    +0.019 C 
ATOM     24  C   UNL     1     -14.318  14.406  71.964  0.00  0.00    +0.072 C 
ENDBRANCH  18  21
ENDBRANCH  17  18
ENDBRANCH  16  17
ENDBRANCH   1  16
TORSDOF 6
ENDMDL
MODEL 2
REMARK VINA RESULT:      -6.7      2.911      6.305
REMARK  Name = 
REMARK  6 active torsions:
REMARK  status: ('A' for Active; 'I' for Inactive)
REMARK    1  A    between atoms: C_6  and  C_7
REMARK    2  A    between atoms: C_7  and  C_8
REMARK    3  A    between atoms: C_8  and  O_9
REMARK    4  A    between atoms: O_9  and  C_10
REMARK    5  A    between atoms: C_10  and  C_12
REMARK    6  A    between atoms: C_10  and  C_18
REMARK                            x       y       z     vdW  Elec       q    Type
REMARK                         _______ _______ _______ _____ _____    ______ ____
ROOT
ATOM      1  C   UNL     1     -10.655  14.519  67.325  0.00  0.00    +0.130 C 
ATOM      2  C   UNL     1      -9.202  14.274  67.712  0.00  0.00    +0.039 C 
ENDROOT
BRANCH   1   3
ATOM      3  C   UNL     1     -11.507  14.285  68.508  0.00  0.00    +0.006 A 
ATOM      4  C   UNL     1     -11.967  15.382  69.226  0.00  0.00    -0.001 A 
ATOM      5  C   UNL     1     -12.492  15.232  70.503  0.00  0.00    +0.011 A 
ATOM      6  C   UNL     1     -12.655  13.952  71.016  0.00  0.00    +0.058 A 
ATOM      7 CL   UNL     1     -13.851  13.646  72.272  0.00  0.00    -0.082 Cl
ATOM      8  C   UNL     1     -12.111  12.877  70.330  0.00  0.00    +0.011 A 
ATOM      9  C   UNL     1     -11.414  13.077  69.166  0.00  0.00    -0.001 A 
ENDBRANCH   1   3
BRANCH   1  10
ATOM     10  C   UNL     1     -10.964  13.583  66.212  0.00  0.00    +0.006 A 
ATOM     11  C   UNL     1     -10.119  12.543  65.851  0.00  0.00    -0.002 A 
ATOM     12  C   UNL     1     -10.509  11.770  64.768  0.00  0.00    -0.000 A 
ATOM     13  C   UNL     1     -11.613  12.111  63.999  0.00  0.00    -0.000 A 
ATOM     14  C   UNL     1     -12.608  12.836  64.638  0.00  0.00    -0.000 A 
ATOM     15  C   UNL     1     -12.289  13.529  65.799  0.00  0.00    -0.002 A 
ENDBRANCH   1  10
BRANCH   1  16
ATOM     16  O   UNL     1     -10.804  15.820  66.840  0.00  0.00    -0.350 OA
BRANCH  16  17
ATOM     17  C   UNL     1      -9.601  16.179  66.226  0.00  0.00    +0.144 C 
BRANCH  17  18
ATOM     18  C   UNL     1      -9.223  17.602  66.548  0.00  0.00    +0.048 C 
BRANCH  18  21
ATOM     19  C   UNL     1     -10.609  19.672  65.674  0.00  0.00    +0.090 C 
ATOM     20  N   UNL     1     -10.267  19.654  67.089  0.00  0.00    -0.273 NA
ATOM     21  C   UNL     1     -10.539  18.118  67.437  0.00  0.00    +0.060 C 
ATOM     22  C   UNL     1      -9.648  18.211  68.843  0.00  0.00    +0.017 C 
ATOM     23  C   UNL     1      -8.414  18.869  68.354  0.00  0.00    +0.019 C 
ATOM     24  C   UNL     1      -8.860  19.728  67.224  0.00  0.00    +0.072 C 
ENDBRANCH  18  21
ENDBRANCH  17  18
ENDBRANCH  16  17
ENDBRANCH   1  16
TORSDOF 6
ENDMDL
MODEL 3
REMARK VINA RESULT:      -6.5      3.012      6.412
REMARK  Name = 
REMARK  6 active torsions:
REMARK  status: ('A' for Active; 'I' for Inactive)
REMARK    1  A    between atoms: C_6  and  C_7
REMARK    2  A    between atoms: C_7  and  C_8
REMARK    3  A    between atoms: C_8  and  O_9
REMARK    4  A    between atoms: O_9  and  C_10
REMARK    5  A    between atoms: C_10  and  C_12
REMARK    6  A    between atoms: C_10  and  C_18
REMARK                            x       y       z     vdW  Elec       q    Type
REMARK                         _______ _______ _______ _____ _____    ______ ____
ROOT
ATOM      1  C   UNL     1     -10.591  14.426  67.235  0.00  0.00    +0.130 C 
ATOM      2  C   UNL     1      -9.163  14.097  67.651  0.00  0.00    +0.039 C 
ENDROOT
BRANCH   1   3
ATOM      3  C   UNL     1     -11.471  14.291  68.413  0.00  0.00    +0.006 A 
ATOM      4  C   UNL     1     -11.920  15.444  69.045  0.00  0.00    -0.001 A 
ATOM      5  C   UNL     1     -12.475  15.392  70.317  0.00  0.00    +0.011 A 
ATOM      6  C   UNL     1     -12.676  14.154  70.912  0.00  0.00    +0.058 A 
ATOM      7 CL   UNL     1     -13.904  13.958  72.160  0.00  0.00    -0.082 Cl
ATOM      8  C   UNL     1     -12.142  13.023  70.312  0.00  0.00    +0.011 A 
ATOM      9  C   UNL     1     -11.419  13.129  69.153  0.00  0.00    -0.001 A 
ENDBRANCH   1   3
BRANCH   1  10
ATOM     10  C   UNL     1     -10.949  13.476  66.150  0.00  0.00    +0.006 A 
ATOM     11  C   UNL     1     -10.149  12.394  65.806  0.00  0.00    -0.002 A 
ATOM     12  C   UNL     1     -10.582  11.611  64.747  0.00  0.00    -0.000 A 
ATOM     13  C   UNL     1     -11.680  11.976  63.982  0.00  0.00    -0.000 A 
ATOM     14  C   UNL     1     -12.638  12.756  64.612  0.00  0.00    -0.000 A 
ATOM     15  C   UNL     1     -12.279  13.463  65.752  0.00  0.00    -0.002 A 
ENDBRANCH   1  10
BRANCH   1  16
ATOM     16  O   UNL     1     -10.645  15.717  66.705  0.00  0.00    -0.350 OA
BRANCH  16  17
ATOM     17  C   UNL     1      -9.360  16.259  66.793  0.00  0.00    +0.144 C 
BRANCH  17  18
ATOM     18  C   UNL     1      -9.365  17.564  67.548  0.00  0.00    +0.048 C 
BRANCH  18  21
ATOM     19  C   UNL     1      -7.341  19.094  68.277  0.00  0.00    +0.090 C 
ATOM     20  N   UNL     1      -8.418  19.732  67.533  0.00  0.00    -0.273 NA
ATOM     21  C   UNL     1      -8.711  18.615  66.427  0.00  0.00    +0.060 C 
ATOM     22  C   UNL     1     -10.199  19.273  66.063  0.00  0.00    +0.017 C 
ATOM     23  C   UNL     1     -10.774  19.440  67.418  0.00  0.00    +0.019 C 
ATOM     24  C   UNL     1      -9.604  19.680  68.304  0.00  0.00    +0.072 C 
ENDBRANCH  18  21
ENDBRANCH  17  18
ENDBRANCH  16  17
ENDBRANCH   1  16
TORSDOF 6
ENDMDL
MODEL 4
REMARK VINA RESULT:      -6.4      2.930      4.318
REMARK  Name = 
REMARK  6 active torsions:
REMARK  status: ('A' for Active; 'I' for Inactive)
REMARK    1  A    between atoms: C_6  and  C_7
REMARK    2  A    between atoms: C_7  and  C_8
REMARK    3  A    between atoms: C_8  and  O_9
REMARK    4  A    between atoms: O_9  and  C_10
REMARK    5  A    between atoms: C_10  and  C_12
REMARK    6  A    between atoms: C_10  and  C_18
REMARK                            x       y       z     vdW  Elec       q    Type
REMARK                         _______ _______ _______ _____ _____    ______ ____
ROOT
ATOM      1  C   UNL     1     -11.137  13.723  68.451  0.00  0.00    +0.130 C 
ATOM      2  C   UNL     1      -9.921  14.542  68.867  0.00  0.00    +0.039 C 
ENDROOT
BRANCH   1   3
ATOM      3  C   UNL     1     -10.849  12.294  68.687  0.00  0.00    +0.006 A 
ATOM      4  C   UNL     1     -11.651  11.590  69.575  0.00  0.00    -0.001 A 
ATOM      5  C   UNL     1     -11.252  10.357  70.077  0.00  0.00    +0.011 A 
ATOM      6  C   UNL     1     -10.084   9.782  69.593  0.00  0.00    +0.058 A 
ATOM      7 CL   UNL     1      -9.858   8.037  69.669  0.00  0.00    -0.082 Cl
ATOM      8  C   UNL     1      -9.250  10.533  68.779  0.00  0.00    +0.011 A 
ATOM      9  C   UNL     1      -9.571  11.827  68.462  0.00  0.00    -0.001 A 
ENDBRANCH   1   3
BRANCH   1  10
ATOM     10  C   UNL     1     -11.383  14.021  67.016  0.00  0.00    +0.006 A 
ATOM     11  C   UNL     1     -10.577  14.880  66.280  0.00  0.00    -0.002 A 
ATOM     12  C   UNL     1     -10.943  15.102  64.962  0.00  0.00    -0.000 A 
ATOM     13  C   UNL     1     -12.134  14.605  64.451  0.00  0.00    -0.000 A 
ATOM     14  C   UNL     1     -12.630  13.457  65.051  0.00  0.00    -0.000 A 
ATOM     15  C   UNL     1     -12.195  13.129  66.328  0.00  0.00    -0.002 A 
ENDBRANCH   1  10
BRANCH   1  16
ATOM     16  O   UNL     1     -12.258  14.140  69.171  0.00  0.00    -0.350 OA
BRANCH  16  17
ATOM     17  C   UNL     1     -11.988  15.420  69.663  0.00  0.00    +0.144 C 
BRANCH  17  18
ATOM     18  C   UNL     1     -12.793  15.714  70.904  0.00  0.00    +0.048 C 
BRANCH  18  21
ATOM     19  C   UNL     1     -15.062  14.565  71.609  0.00  0.00    +0.090 C 
ATOM     20  N   UNL     1     -14.005  14.611  72.609  0.00  0.00    -0.273 NA
ATOM     21  C   UNL     1     -12.734  14.252  71.708  0.00  0.00    +0.060 C 
ATOM     22  C   UNL     1     -11.674  14.839  72.854  0.00  0.00    +0.017 C 
ATOM     23  C   UNL     1     -12.282  16.156  73.154  0.00  0.00    +0.019 C 
ATOM     24  C   UNL     1     -13.741  15.962  72.939  0.00  0.00    +0.072 C 
ENDBRANCH  18  21
ENDBRANCH  17  18
ENDBRANCH  16  17
ENDBRANCH   1  16
TORSDOF 6
ENDMDL
MODEL 5
REMARK VINA RESULT:      -6.4      3.190      6.251
REMARK  Name = 
REMARK  6 active torsions:
REMARK  status: ('A' for Active; 'I' for Inactive)
REMARK    1  A    between atoms: C_6  and  C_7
REMARK    2  A    between atoms: C_7  and  C_8
REMARK    3  A    between atoms: C_8  and  O_9
REMARK    4  A    between atoms: O_9  and  C_10
REMARK    5  A    between atoms: C_10  and  C_12
REMARK    6  A    between atoms: C_10  and  C_18
REMARK                            x       y       z     vdW  Elec       q    Type
REMARK                         _______ _______ _______ _____ _____    ______ ____
ROOT
ATOM      1  C   UNL     1     -11.062  13.397  68.469  0.00  0.00    +0.130 C 
ATOM      2  C   UNL     1      -9.553  13.241  68.609  0.00  0.00    +0.039 C 
ENDROOT
BRANCH   1   3
ATOM      3  C   UNL     1     -11.724  12.398  69.333  0.00  0.00    +0.006 A 
ATOM      4  C   UNL     1     -12.405  12.839  70.460  0.00  0.00    -0.001 A 
ATOM      5  C   UNL     1     -12.769  11.954  71.467  0.00  0.00    +0.011 A 
ATOM      6  C   UNL     1     -12.539  10.597  71.284  0.00  0.00    +0.058 A 
ATOM      7 CL   UNL     1     -13.506   9.408  72.153  0.00  0.00    -0.082 Cl
ATOM      8  C   UNL     1     -11.779  10.182  70.200  0.00  0.00    +0.011 A 
ATOM      9  C   UNL     1     -11.256  11.101  69.327  0.00  0.00    -0.001 A 
ENDBRANCH   1   3
BRANCH   1  10
ATOM     10  C   UNL     1     -11.381  13.200  67.031  0.00  0.00    +0.006 A 
ATOM     11  C   UNL     1     -12.443  13.839  66.405  0.00  0.00    -0.002 A 
ATOM     12  C   UNL     1     -12.653  13.536  65.069  0.00  0.00    -0.000 A 
ATOM     13  C   UNL     1     -11.930  12.536  64.434  0.00  0.00    -0.000 A 
ATOM     14  C   UNL     1     -10.665  12.275  64.941  0.00  0.00    -0.000 A 
ATOM     15  C   UNL     1     -10.370  12.674  66.238  0.00  0.00    -0.002 A 
ENDBRANCH   1  10
BRANCH   1  16
ATOM     16  O   UNL     1     -11.438  14.696  68.815  0.00  0.00    -0.350 OA
BRANCH  16  17
ATOM     17  C   UNL     1     -10.269  15.450  68.946  0.00  0.00    +0.144 C 
BRANCH  17  18
ATOM     18  C   UNL     1     -10.311  16.685  68.083  0.00  0.00    +0.048 C 
BRANCH  18  21
ATOM     19  C   UNL     1      -9.103  19.028  68.212  0.00  0.00    +0.090 C 
ATOM     20  N   UNL     1      -8.947  18.270  66.979  0.00  0.00    -0.273 NA
ATOM     21  C   UNL     1      -8.728  16.800  67.564  0.00  0.00    +0.060 C 
ATOM     22  C   UNL     1      -9.079  16.092  66.096  0.00  0.00    +0.017 C 
ATOM     23  C   UNL     1     -10.334  16.793  65.736  0.00  0.00    +0.019 C 
ATOM     24  C   UNL     1     -10.212  18.139  66.356  0.00  0.00    +0.072 C 
ENDBRANCH  18  21
ENDBRANCH  17  18
ENDBRANCH  16  17
ENDBRANCH   1  16
TORSDOF 6
ENDMDL
MODEL 6
REMARK VINA RESULT:      -6.4      3.492      6.635
REMARK  Name = 
REMARK  6 active torsions:
REMARK  status: ('A' for Active; 'I' for Inactive)
REMARK    1  A    between atoms: C_6  and  C_7
REMARK    2  A    between atoms: C_7  and  C_8
REMARK    3  A    between atoms: C_8  and  O_9
REMARK    4  A    between atoms: O_9  and  C_10
REMARK    5  A    between atoms: C_10  and  C_12
REMARK    6  A    between atoms: C_10  and  C_18
REMARK                            x       y       z     vdW  Elec       q    Type
REMARK                         _______ _______ _______ _____ _____    ______ ____
ROOT
ATOM      1  C   UNL     1     -10.422  12.680  68.059  0.00  0.00    +0.130 C 
ATOM      2  C   UNL     1      -8.967  12.233  68.121  0.00  0.00    +0.039 C 
ENDROOT
BRANCH   1   3
ATOM      3  C   UNL     1     -11.210  11.864  69.004  0.00  0.00    +0.006 A 
ATOM      4  C   UNL     1     -12.018  12.510  69.931  0.00  0.00    -0.001 A 
ATOM      5  C   UNL     1     -12.526  11.832  71.032  0.00  0.00    +0.011 A 
ATOM      6  C   UNL     1     -12.306  10.466  71.140  0.00  0.00    +0.058 A 
ATOM      7 CL   UNL     1     -13.401   9.463  72.087  0.00  0.00    -0.082 Cl
ATOM      8  C   UNL     1     -11.425   9.853  70.260  0.00  0.00    +0.011 A 
ATOM      9  C   UNL     1     -10.776  10.590  69.304  0.00  0.00    -0.001 A 
ENDBRANCH   1   3
BRANCH   1  10
ATOM     10  C   UNL     1     -10.865  12.502  66.652  0.00  0.00    +0.006 A 
ATOM     11  C   UNL     1     -10.326  11.536  65.813  0.00  0.00    -0.002 A 
ATOM     12  C   UNL     1     -10.802  11.505  64.512  0.00  0.00    -0.000 A 
ATOM     13  C   UNL     1     -11.664  12.483  64.036  0.00  0.00    -0.000 A 
ATOM     14  C   UNL     1     -12.467  13.107  64.978  0.00  0.00    -0.000 A 
ATOM     15  C   UNL     1     -12.092  13.057  66.314  0.00  0.00    -0.002 A 
ENDBRANCH   1  10
BRANCH   1  16
ATOM     16  O   UNL     1     -10.512  14.040  68.365  0.00  0.00    -0.350 OA
BRANCH  16  17
ATOM     17  C   UNL     1      -9.213  14.553  68.384  0.00  0.00    +0.144 C 
BRANCH  17  18
ATOM     18  C   UNL     1      -9.158  15.936  67.786  0.00  0.00    +0.048 C 
BRANCH  18  21
ATOM     19  C   UNL     1      -6.905  16.744  66.674  0.00  0.00    +0.090 C 
ATOM     20  N   UNL     1      -8.134  16.987  65.932  0.00  0.00    -0.273 NA
ATOM     21  C   UNL     1      -8.898  15.604  66.170  0.00  0.00    +0.060 C 
ATOM     22  C   UNL     1     -10.364  16.262  65.722  0.00  0.00    +0.017 C 
ATOM     23  C   UNL     1     -10.376  17.504  66.529  0.00  0.00    +0.019 C 
ATOM     24  C   UNL     1      -8.945  17.887  66.665  0.00  0.00    +0.072 C 
ENDBRANCH  18  21
ENDBRANCH  17  18
ENDBRANCH  16  17
ENDBRANCH   1  16
TORSDOF 6
ENDMDL
MODEL 7
REMARK VINA RESULT:      -6.2      2.876      6.580
REMARK  Name = 
REMARK  6 active torsions:
REMARK  status: ('A' for Active; 'I' for Inactive)
REMARK    1  A    between atoms: C_6  and  C_7
REMARK    2  A    between atoms: C_7  and  C_8
REMARK    3  A    between atoms: C_8  and  O_9
REMARK    4  A    between atoms: O_9  and  C_10
REMARK    5  A    between atoms: C_10  and  C_12
REMARK    6  A    between atoms: C_10  and  C_18
REMARK                            x       y       z     vdW  Elec       q    Type
REMARK                         _______ _______ _______ _____ _____    ______ ____
ROOT
ATOM      1  C   UNL     1     -11.419  14.077  69.024  0.00  0.00    +0.130 C 
ATOM      2  C   UNL     1     -10.475  12.890  69.161  0.00  0.00    +0.039 C 
ENDROOT
BRANCH   1   3
ATOM      3  C   UNL     1     -10.618  15.314  68.938  0.00  0.00    +0.006 A 
ATOM      4  C   UNL     1     -11.108  16.376  68.189  0.00  0.00    -0.001 A 
ATOM      5  C   UNL     1     -10.281  17.425  67.810  0.00  0.00    +0.011 A 
ATOM      6  C   UNL     1      -8.976  17.456  68.281  0.00  0.00    +0.058 A 
ATOM      7 CL   UNL     1      -8.109  18.985  68.394  0.00  0.00    -0.082 Cl
ATOM      8  C   UNL     1      -8.474  16.349  68.949  0.00  0.00    +0.011 A 
ATOM      9  C   UNL     1      -9.255  15.237  69.133  0.00  0.00    -0.001 A 
ENDBRANCH   1   3
BRANCH   1  10
ATOM     10  C   UNL     1     -12.305  14.059  70.217  0.00  0.00    +0.006 A 
ATOM     11  C   UNL     1     -12.524  12.914  70.971  0.00  0.00    -0.002 A 
ATOM     12  C   UNL     1     -13.405  13.026  72.035  0.00  0.00    -0.000 A 
ATOM     13  C   UNL     1     -14.139  14.186  72.244  0.00  0.00    -0.000 A 
ATOM     14  C   UNL     1     -13.576  15.363  71.773  0.00  0.00    -0.000 A 
ATOM     15  C   UNL     1     -12.598  15.290  70.790  0.00  0.00    -0.002 A 
ENDBRANCH   1  10
BRANCH   1  16
ATOM     16  O   UNL     1     -12.225  13.914  67.895  0.00  0.00    -0.350 OA
BRANCH  16  17
ATOM     17  C   UNL     1     -11.919  12.669  67.339  0.00  0.00    +0.144 C 
BRANCH  17  18
ATOM     18  C   UNL     1     -12.001  12.703  65.834  0.00  0.00    +0.048 C 
BRANCH  18  21
ATOM     19  C   UNL     1     -10.605  14.769  64.967  0.00  0.00    +0.090 C 
ATOM     20  N   UNL     1     -10.497  13.532  64.207  0.00  0.00    -0.273 NA
ATOM     21  C   UNL     1     -10.407  12.466  65.394  0.00  0.00    +0.060 C 
ATOM     22  C   UNL     1     -10.797  11.203  64.378  0.00  0.00    +0.017 C 
ATOM     23  C   UNL     1     -11.985  11.754  63.684  0.00  0.00    +0.019 C 
ATOM     24  C   UNL     1     -11.760  13.224  63.648  0.00  0.00    +0.072 C 
ENDBRANCH  18  21
ENDBRANCH  17  18
ENDBRANCH  16  17
ENDBRANCH   1  16
TORSDOF 6
ENDMDL
MODEL 8
REMARK VINA RESULT:      -6.0      2.336      5.938
REMARK  Name = 
REMARK  6 active torsions:
REMARK  status: ('A' for Active; 'I' for Inactive)
REMARK    1  A    between atoms: C_6  and  C_7
REMARK    2  A    between atoms: C_7  and  C_8
REMARK    3  A    between atoms: C_8  and  O_9
REMARK    4  A    between atoms: O_9  and  C_10
REMARK    5  A    between atoms: C_10  and  C_12
REMARK    6  A    between atoms: C_10  and  C_18
REMARK                            x       y       z     vdW  Elec       q    Type
REMARK                         _______ _______ _______ _____ _____    ______ ____
ROOT
ATOM      1  C   UNL     1     -11.296  14.272  68.890  0.00  0.00    +0.130 C 
ATOM      2  C   UNL     1     -11.981  15.629  68.790  0.00  0.00    +0.039 C 
ENDROOT
BRANCH   1   3
ATOM      3  C   UNL     1     -11.421  13.581  67.591  0.00  0.00    +0.006 A 
ATOM      4  C   UNL     1     -10.318  12.903  67.087  0.00  0.00    -0.001 A 
ATOM      5  C   UNL     1     -10.267  12.511  65.756  0.00  0.00    +0.011 A 
ATOM      6  C   UNL     1     -11.383  12.709  64.954  0.00  0.00    +0.058 A 
ATOM      7 CL   UNL     1     -11.639  11.708  63.527  0.00  0.00    -0.082 Cl
ATOM      8  C   UNL     1     -12.438  13.466  65.442  0.00  0.00    +0.011 A 
ATOM      9  C   UNL     1     -12.375  14.016  66.696  0.00  0.00    -0.001 A 
ENDBRANCH   1   3
BRANCH   1  10
ATOM     10  C   UNL     1     -11.966  13.534  69.991  0.00  0.00    +0.006 A 
ATOM     11  C   UNL     1     -11.910  12.151  70.110  0.00  0.00    -0.002 A 
ATOM     12  C   UNL     1     -12.614  11.587  71.161  0.00  0.00    -0.000 A 
ATOM     13  C   UNL     1     -13.449  12.352  71.963  0.00  0.00    -0.000 A 
ATOM     14  C   UNL     1     -13.128  13.697  72.079  0.00  0.00    -0.000 A 
ATOM     15  C   UNL     1     -12.320  14.276  71.110  0.00  0.00    -0.002 A 
ENDBRANCH   1  10
BRANCH   1  16
ATOM     16  O   UNL     1      -9.956  14.444  69.247  0.00  0.00    -0.350 OA
BRANCH  16  17
ATOM     17  C   UNL     1      -9.693  15.816  69.239  0.00  0.00    +0.144 C 
BRANCH  17  18
ATOM     18  C   UNL     1      -8.631  16.167  68.229  0.00  0.00    +0.048 C 
BRANCH  18  21
ATOM     19  C   UNL     1      -9.661  16.354  65.806  0.00  0.00    +0.090 C 
ATOM     20  N   UNL     1      -8.684  17.363  66.189  0.00  0.00    -0.273 NA
ATOM     21  C   UNL     1      -9.145  17.661  67.690  0.00  0.00    +0.060 C 
ATOM     22  C   UNL     1      -7.688  18.381  68.064  0.00  0.00    +0.017 C 
ATOM     23  C   UNL     1      -6.733  17.373  67.547  0.00  0.00    +0.019 C 
ATOM     24  C   UNL     1      -7.432  16.736  66.399  0.00  0.00    +0.072 C 
ENDBRANCH  18  21
ENDBRANCH  17  18
ENDBRANCH  16  17
ENDBRANCH   1  16
TORSDOF 6
ENDMDL
MODEL 9
REMARK VINA RESULT:      -6.0      3.052      5.723
REMARK  Name = 
REMARK  6 active torsions:
REMARK  status: ('A' for Active; 'I' for Inactive)
REMARK    1  A    between atoms: C_6  and  C_7
REMARK    2  A    between atoms: C_7  and  C_8
REMARK    3  A    between atoms: C_8  and  O_9
REMARK    4  A    between atoms: O_9  and  C_10
REMARK    5  A    between atoms: C_10  and  C_12
REMARK    6  A    between atoms: C_10  and  C_18
REMARK                            x       y       z     vdW  Elec       q    Type
REMARK                         _______ _______ _______ _____ _____    ______ ____
ROOT
ATOM      1  C   UNL     1     -10.027  15.409  68.063  0.00  0.00    +0.130 C 
ATOM      2  C   UNL     1     -10.745  16.522  67.311  0.00  0.00    +0.039 C 
ENDROOT
BRANCH   1   3
ATOM      3  C   UNL     1     -10.853  15.010  69.221  0.00  0.00    +0.006 A 
ATOM      4  C   UNL     1     -11.280  13.691  69.312  0.00  0.00    -0.001 A 
ATOM      5  C   UNL     1     -12.301  13.329  70.182  0.00  0.00    +0.011 A 
ATOM      6  C   UNL     1     -12.820  14.286  71.044  0.00  0.00    +0.058 A 
ATOM      7 CL   UNL     1     -13.599  13.797  72.546  0.00  0.00    -0.082 Cl
ATOM      8  C   UNL     1     -12.450  15.613  70.880  0.00  0.00    +0.011 A 
ATOM      9  C   UNL     1     -11.591  15.974  69.874  0.00  0.00    -0.001 A 
ENDBRANCH   1   3
BRANCH   1  10
ATOM     10  C   UNL     1      -8.706  15.951  68.472  0.00  0.00    +0.006 A 
ATOM     11  C   UNL     1      -8.392  17.301  68.390  0.00  0.00    -0.002 A 
ATOM     12  C   UNL     1      -7.109  17.667  68.766  0.00  0.00    -0.000 A 
ATOM     13  C   UNL     1      -6.147  16.714  69.068  0.00  0.00    -0.000 A 
ATOM     14  C   UNL     1      -6.614  15.498  69.546  0.00  0.00    -0.000 A 
ATOM     15  C   UNL     1      -7.933  15.145  69.298  0.00  0.00    -0.002 A 
ENDBRANCH   1  10
BRANCH   1  16
ATOM     16  O   UNL     1      -9.798  14.330  67.207  0.00  0.00    -0.350 OA
BRANCH  16  17
ATOM     17  C   UNL     1      -9.923  14.800  65.897  0.00  0.00    +0.144 C 
BRANCH  17  18
ATOM     18  C   UNL     1     -10.245  13.682  64.939  0.00  0.00    +0.048 C 
BRANCH  18  21
ATOM     19  C   UNL     1      -9.354  11.220  65.273  0.00  0.00    +0.090 C 
ATOM     20  N   UNL     1     -10.773  11.377  64.988  0.00  0.00    -0.273 NA
ATOM     21  C   UNL     1     -11.119  12.638  65.907  0.00  0.00    +0.060 C 
ATOM     22  C   UNL     1     -12.535  12.936  65.079  0.00  0.00    +0.017 C 
ATOM     23  C   UNL     1     -12.060  12.885  63.676  0.00  0.00    +0.019 C 
ATOM     24  C   UNL     1     -10.925  11.925  63.691  0.00  0.00    +0.072 C 
ENDBRANCH  18  21
ENDBRANCH  17  18
ENDBRANCH  16  17
ENDBRANCH   1  16
TORSDOF 6
ENDMDL
