MODEL 1
REMARK VINA RESULT:      -7.8      0.000      0.000
REMARK  Name = 
REMARK  4 active torsions:
REMARK  status: ('A' for Active; 'I' for Inactive)
REMARK    1  A    between atoms: C_5  and  C_6
REMARK    2  A    between atoms: C_12  and  C_13
REMARK    3  A    between atoms: N_15  and  CA_16
REMARK    4  A    between atoms: CA_25  and  C_26
REMARK                            x       y       z     vdW  Elec       q    Type
REMARK                         _______ _______ _______ _____ _____    ______ ____
ROOT
ATOM      1  C   UNL     1      -8.688  17.311  67.982  0.00  0.00    +0.270 C 
ATOM      2  N   UNL     1      -7.545  18.144  67.968  0.00  0.00    -0.191 NA
ATOM      3  O   UNL     1      -9.006  16.965  69.166  0.00  0.00    -0.268 OA
ENDROOT
BRANCH   2   4
ATOM      4  CA  UNL     1      -7.693  19.468  68.873  0.00  0.00    +0.200 C 
ATOM      5  C   UNL     1      -6.319  19.151  69.831  0.00  0.00    +0.153 C 
ATOM      6  S   UNL     1      -5.034  18.657  68.491  0.00  0.00    -0.118 S 
ATOM      7  C   UNL     1      -3.818  19.718  69.150  0.00  0.00    +0.068 C 
ATOM      8  CA  UNL     1      -4.644  20.886  70.025  0.00  0.00    +0.189 C 
ATOM      9  C   UNL     1      -2.797  19.167  70.057  0.00  0.00    +0.013 C 
ATOM     10  C   UNL     1      -3.142  20.651  68.149  0.00  0.00    +0.013 C 
ATOM     11  N   UNL     1      -6.059  20.575  69.346  0.00  0.00    -0.259 N 
ATOM     12  C   UNL     1      -6.615  20.345  68.025  0.00  0.00    +0.249 C 
ATOM     13  O   UNL     1      -6.735  20.834  66.911  0.00  0.00    -0.273 OA
BRANCH   8  14
ATOM     14  C   UNL     1      -4.884  19.923  71.350  0.00  0.00    +0.383 C 
ATOM     15  OXT UNL     1      -6.101  20.271  71.971  0.00  0.00    -0.244 OA
ATOM     16  O   UNL     1      -3.928  20.125  72.166  0.00  0.00    -0.244 OA
ENDBRANCH   8  14
ENDBRANCH   2   4
BRANCH   1  19
ATOM     17  C   UNL     1     -10.539  19.700  67.074  0.00  0.00    +0.076 C 
ATOM     18  C   UNL     1     -10.484  18.374  66.525  0.00  0.00    +0.159 A 
ATOM     19  C   UNL     1      -9.785  17.274  67.027  0.00  0.00    +0.109 A 
ATOM     20  C   UNL     1     -10.085  16.259  66.135  0.00  0.00    +0.127 A 
ATOM     21  N   UNL     1     -10.604  16.868  65.059  0.00  0.00    -0.077 NA
ATOM     22  O   UNL     1     -10.627  18.160  65.225  0.00  0.00    -0.358 OA
BRANCH  20  23
ATOM     23  C   UNL     1     -10.220  14.872  66.590  0.00  0.00    +0.021 A 
ATOM     24  C   UNL     1     -10.057  13.805  65.714  0.00  0.00    +0.002 A 
ATOM     25  C   UNL     1     -10.686  12.587  65.920  0.00  0.00    +0.000 A 
ATOM     26  C   UNL     1     -11.562  12.423  66.978  0.00  0.00    +0.000 A 
ATOM     27  C   UNL     1     -11.858  13.502  67.756  0.00  0.00    +0.000 A 
ATOM     28  C   UNL     1     -11.198  14.682  67.563  0.00  0.00    +0.002 A 
ENDBRANCH  20  23
ENDBRANCH   1  19
TORSDOF 4
ENDMDL
MODEL 2
REMARK VINA RESULT:      -7.7      3.458      5.989
REMARK  Name = 
REMARK  4 active torsions:
REMARK  status: ('A' for Active; 'I' for Inactive)
REMARK    1  A    between atoms: C_5  and  C_6
REMARK    2  A    between atoms: C_12  and  C_13
REMARK    3  A    between atoms: N_15  and  CA_16
REMARK    4  A    between atoms: CA_25  and  C_26
REMARK                            x       y       z     vdW  Elec       q    Type
REMARK                         _______ _______ _______ _____ _____    ______ ____
ROOT
ATOM      1  C   UNL     1     -11.952  15.649  70.559  0.00  0.00    +0.270 C 
ATOM      2  N   UNL     1     -10.694  16.144  70.142  0.00  0.00    -0.191 NA
ATOM      3  O   UNL     1     -12.872  15.938  69.727  0.00  0.00    -0.268 OA
ENDROOT
BRANCH   2   4
ATOM      4  CA  UNL     1     -10.248  15.639  68.679  0.00  0.00    +0.200 C 
ATOM      5  C   UNL     1     -10.602  17.111  67.896  0.00  0.00    +0.153 C 
ATOM      6  S   UNL     1      -9.813  18.378  69.106  0.00  0.00    -0.118 S 
ATOM      7  C   UNL     1      -8.999  19.224  67.817  0.00  0.00    +0.068 C 
ATOM      8  CA  UNL     1      -8.867  18.131  66.553  0.00  0.00    +0.189 C 
ATOM      9  C   UNL     1      -9.613  20.438  67.252  0.00  0.00    +0.013 C 
ATOM     10  C   UNL     1      -7.509  19.474  68.028  0.00  0.00    +0.013 C 
ATOM     11  N   UNL     1      -9.162  16.848  67.464  0.00  0.00    -0.259 N 
ATOM     12  C   UNL     1      -8.760  16.297  68.746  0.00  0.00    +0.249 C 
ATOM     13  O   UNL     1      -7.793  15.937  69.400  0.00  0.00    -0.273 OA
BRANCH   8  14
ATOM     14  C   UNL     1     -10.428  18.326  66.037  0.00  0.00    +0.383 C 
ATOM     15  OXT UNL     1     -10.775  17.266  65.174  0.00  0.00    -0.244 OA
ATOM     16  O   UNL     1     -10.500  19.424  65.397  0.00  0.00    -0.244 OA
ENDBRANCH   8  14
ENDBRANCH   2   4
BRANCH   1  19
ATOM     17  C   UNL     1     -12.438  15.573  73.677  0.00  0.00    +0.076 C 
ATOM     18  C   UNL     1     -12.596  14.499  72.736  0.00  0.00    +0.159 A 
ATOM     19  C   UNL     1     -12.230  14.486  71.389  0.00  0.00    +0.109 A 
ATOM     20  C   UNL     1     -12.587  13.220  70.962  0.00  0.00    +0.127 A 
ATOM     21  N   UNL     1     -13.401  12.738  71.912  0.00  0.00    -0.077 NA
ATOM     22  O   UNL     1     -13.572  13.611  72.862  0.00  0.00    -0.358 OA
BRANCH  20  23
ATOM     23  C   UNL     1     -11.793  12.513  69.952  0.00  0.00    +0.021 A 
ATOM     24  C   UNL     1     -11.934  12.791  68.598  0.00  0.00    +0.002 A 
ATOM     25  C   UNL     1     -11.664  11.841  67.625  0.00  0.00    +0.000 A 
ATOM     26  C   UNL     1     -11.312  10.552  67.984  0.00  0.00    +0.000 A 
ATOM     27  C   UNL     1     -11.322  10.216  69.304  0.00  0.00    +0.000 A 
ATOM     28  C   UNL     1     -11.551  11.174  70.250  0.00  0.00    +0.002 A 
ENDBRANCH  20  23
ENDBRANCH   1  19
TORSDOF 4
ENDMDL
MODEL 3
REMARK VINA RESULT:      -7.6      3.988      7.095
REMARK  Name = 
REMARK  4 active torsions:
REMARK  status: ('A' for Active; 'I' for Inactive)
REMARK    1  A    between atoms: C_5  and  C_6
REMARK    2  A    between atoms: C_12  and  C_13
REMARK    3  A    between atoms: N_15  and  CA_16
REMARK    4  A    between atoms: CA_25  and  C_26
REMARK                            x       y       z     vdW  Elec       q    Type
REMARK                         _______ _______ _______ _____ _____    ______ ____
ROOT
ATOM      1  C   UNL     1     -11.240  12.082  67.581  0.00  0.00    +0.270 C 
ATOM      2  N   UNL     1     -10.916  13.459  67.600  0.00  0.00    -0.191 NA
ATOM      3  O   UNL     1     -12.068  11.805  66.653  0.00  0.00    -0.268 OA
ENDROOT
BRANCH   2   4
ATOM      4  CA  UNL     1     -10.334  14.011  66.203  0.00  0.00    +0.200 C 
ATOM      5  C   UNL     1     -10.775  15.633  66.485  0.00  0.00    +0.153 C 
ATOM      6  S   UNL     1     -10.184  15.872  68.298  0.00  0.00    -0.118 S 
ATOM      7  C   UNL     1      -9.375  17.369  67.923  0.00  0.00    +0.068 C 
ATOM      8  CA  UNL     1      -9.063  17.330  66.276  0.00  0.00    +0.189 C 
ATOM      9  C   UNL     1     -10.063  18.645  68.183  0.00  0.00    +0.013 C 
ATOM     10  C   UNL     1      -7.930  17.477  68.403  0.00  0.00    +0.013 C 
ATOM     11  N   UNL     1      -9.292  15.752  66.141  0.00  0.00    -0.259 N 
ATOM     12  C   UNL     1      -8.922  14.527  66.827  0.00  0.00    +0.249 C 
ATOM     13  O   UNL     1      -7.968  13.865  67.209  0.00  0.00    -0.273 OA
BRANCH   8  14
ATOM     14  C   UNL     1     -10.599  17.756  65.833  0.00  0.00    +0.383 C 
ATOM     15  OXT UNL     1     -10.950  17.087  64.642  0.00  0.00    -0.244 OA
ATOM     16  O   UNL     1     -10.619  19.012  65.626  0.00  0.00    -0.244 OA
ENDBRANCH   8  14
ENDBRANCH   2   4
BRANCH   1  19
ATOM     17  C   UNL     1      -8.854  10.715  66.031  0.00  0.00    +0.076 C 
ATOM     18  C   UNL     1      -9.274  10.477  67.384  0.00  0.00    +0.159 A 
ATOM     19  C   UNL     1     -10.422  10.960  68.016  0.00  0.00    +0.109 A 
ATOM     20  C   UNL     1     -10.347  10.424  69.290  0.00  0.00    +0.127 A 
ATOM     21  N   UNL     1      -9.084   9.993  69.424  0.00  0.00    -0.077 NA
ATOM     22  O   UNL     1      -8.395  10.238  68.346  0.00  0.00    -0.358 OA
BRANCH  20  23
ATOM     23  C   UNL     1     -11.560  10.031  70.014  0.00  0.00    +0.021 A 
ATOM     24  C   UNL     1     -12.335  10.970  70.687  0.00  0.00    +0.002 A 
ATOM     25  C   UNL     1     -13.108  10.626  71.785  0.00  0.00    +0.000 A 
ATOM     26  C   UNL     1     -13.071   9.339  72.291  0.00  0.00    +0.000 A 
ATOM     27  C   UNL     1     -12.199   8.446  71.746  0.00  0.00    +0.000 A 
ATOM     28  C   UNL     1     -11.475   8.790  70.640  0.00  0.00    +0.002 A 
ENDBRANCH  20  23
ENDBRANCH   1  19
TORSDOF 4
ENDMDL
MODEL 4
REMARK VINA RESULT:      -7.6      3.584      5.873
REMARK  Name = 
REMARK  4 active torsions:
REMARK  status: ('A' for Active; 'I' for Inactive)
REMARK    1  A    between atoms: C_5  and  C_6
REMARK    2  A    between atoms: C_12  and  C_13
REMARK    3  A    between atoms: N_15  and  CA_16
REMARK    4  A    between atoms: CA_25  and  C_26
REMARK                            x       y       z     vdW  Elec       q    Type
REMARK                         _______ _______ _______ _____ _____    ______ ____
ROOT
ATOM      1  C   UNL     1     -11.299  13.522  68.749  0.00  0.00    +0.270 C 
ATOM      2  N   UNL     1     -10.425  14.575  68.392  0.00  0.00    -0.191 NA
ATOM      3  O   UNL     1     -12.389  13.959  69.242  0.00  0.00    -0.268 OA
ENDROOT
BRANCH   2   4
ATOM      4  CA  UNL     1     -11.068  15.636  67.367  0.00  0.00    +0.200 C 
ATOM      5  C   UNL     1     -10.249  16.985  68.011  0.00  0.00    +0.153 C 
ATOM      6  S   UNL     1      -8.465  16.294  68.182  0.00  0.00    -0.118 S 
ATOM      7  C   UNL     1      -7.762  17.692  67.414  0.00  0.00    +0.068 C 
ATOM      8  CA  UNL     1      -8.983  18.380  66.492  0.00  0.00    +0.189 C 
ATOM      9  C   UNL     1      -7.216  18.775  68.249  0.00  0.00    +0.013 C 
ATOM     10  C   UNL     1      -6.787  17.402  66.277  0.00  0.00    +0.013 C 
ATOM     11  N   UNL     1      -9.914  17.078  66.525  0.00  0.00    -0.259 N 
ATOM     12  C   UNL     1      -9.798  15.642  66.348  0.00  0.00    +0.249 C 
ATOM     13  O   UNL     1      -9.444  14.775  65.563  0.00  0.00    -0.273 OA
BRANCH   8  14
ATOM     14  C   UNL     1      -9.714  19.135  67.771  0.00  0.00    +0.383 C 
ATOM     15  OXT UNL     1     -11.097  19.257  67.519  0.00  0.00    -0.244 OA
ATOM     16  O   UNL     1      -9.209  20.297  67.889  0.00  0.00    -0.244 OA
ENDBRANCH   8  14
ENDBRANCH   2   4
BRANCH   1  19
ATOM     17  C   UNL     1     -12.166  12.761  65.811  0.00  0.00    +0.076 C 
ATOM     18  C   UNL     1     -11.624  11.894  66.820  0.00  0.00    +0.159 A 
ATOM     19  C   UNL     1     -11.391  12.192  68.163  0.00  0.00    +0.109 A 
ATOM     20  C   UNL     1     -10.883  11.014  68.680  0.00  0.00    +0.127 A 
ATOM     21  N   UNL     1     -10.540  10.274  67.615  0.00  0.00    -0.077 NA
ATOM     22  O   UNL     1     -10.787  10.914  66.508  0.00  0.00    -0.358 OA
BRANCH  20  23
ATOM     23  C   UNL     1     -11.178  10.605  70.057  0.00  0.00    +0.021 A 
ATOM     24  C   UNL     1     -10.441   9.610  70.689  0.00  0.00    +0.002 A 
ATOM     25  C   UNL     1     -10.982   8.829  71.698  0.00  0.00    +0.000 A 
ATOM     26  C   UNL     1     -12.311   8.972  72.056  0.00  0.00    +0.000 A 
ATOM     27  C   UNL     1     -13.092   9.829  71.343  0.00  0.00    +0.000 A 
ATOM     28  C   UNL     1     -12.533  10.620  70.379  0.00  0.00    +0.002 A 
ENDBRANCH  20  23
ENDBRANCH   1  19
TORSDOF 4
ENDMDL
MODEL 5
REMARK VINA RESULT:      -7.6      2.790      7.856
REMARK  Name = 
REMARK  4 active torsions:
REMARK  status: ('A' for Active; 'I' for Inactive)
REMARK    1  A    between atoms: C_5  and  C_6
REMARK    2  A    between atoms: C_12  and  C_13
REMARK    3  A    between atoms: N_15  and  CA_16
REMARK    4  A    between atoms: CA_25  and  C_26
REMARK                            x       y       z     vdW  Elec       q    Type
REMARK                         _______ _______ _______ _____ _____    ______ ____
ROOT
ATOM      1  C   UNL     1      -7.036  16.795  66.498  0.00  0.00    +0.270 C 
ATOM      2  N   UNL     1      -8.080  15.840  66.545  0.00  0.00    -0.191 NA
ATOM      3  O   UNL     1      -7.068  17.477  65.423  0.00  0.00    -0.268 OA
ENDROOT
BRANCH   2   4
ATOM      4  CA  UNL     1      -9.550  16.473  66.375  0.00  0.00    +0.200 C 
ATOM      5  C   UNL     1     -10.162  15.189  65.437  0.00  0.00    +0.153 C 
ATOM      6  S   UNL     1      -9.533  13.668  66.429  0.00  0.00    -0.118 S 
ATOM      7  C   UNL     1     -11.098  12.901  66.403  0.00  0.00    +0.068 C 
ATOM      8  CA  UNL     1     -12.214  14.129  66.159  0.00  0.00    +0.189 C 
ATOM      9  C   UNL     1     -11.381  11.877  65.384  0.00  0.00    +0.013 C 
ATOM     10  C   UNL     1     -11.618  12.417  67.753  0.00  0.00    +0.013 C 
ATOM     11  N   UNL     1     -11.198  15.302  66.552  0.00  0.00    -0.259 N 
ATOM     12  C   UNL     1     -10.221  15.609  67.581  0.00  0.00    +0.249 C 
ATOM     13  O   UNL     1     -10.072  15.736  68.787  0.00  0.00    -0.273 OA
BRANCH   8  14
ATOM     14  C   UNL     1     -11.955  14.230  64.527  0.00  0.00    +0.383 C 
ATOM     15  OXT UNL     1     -12.322  15.512  64.069  0.00  0.00    -0.244 OA
ATOM     16  O   UNL     1     -12.686  13.358  63.955  0.00  0.00    -0.244 OA
ENDBRANCH   8  14
ENDBRANCH   2   4
BRANCH   1  19
ATOM     17  C   UNL     1      -4.748  15.637  68.339  0.00  0.00    +0.076 C 
ATOM     18  C   UNL     1      -5.256  16.980  68.308  0.00  0.00    +0.159 A 
ATOM     19  C   UNL     1      -6.371  17.453  67.613  0.00  0.00    +0.109 A 
ATOM     20  C   UNL     1      -6.418  18.797  67.939  0.00  0.00    +0.127 A 
ATOM     21  N   UNL     1      -5.219  19.078  68.471  0.00  0.00    -0.077 NA
ATOM     22  O   UNL     1      -4.456  18.023  68.477  0.00  0.00    -0.358 OA
BRANCH  20  23
ATOM     23  C   UNL     1      -7.700  19.494  68.081  0.00  0.00    +0.021 A 
ATOM     24  C   UNL     1      -8.680  19.032  68.952  0.00  0.00    +0.002 A 
ATOM     25  C   UNL     1     -10.026  19.280  68.734  0.00  0.00    +0.000 A 
ATOM     26  C   UNL     1     -10.440  19.940  67.591  0.00  0.00    +0.000 A 
ATOM     27  C   UNL     1      -9.510  20.261  66.649  0.00  0.00    +0.000 A 
ATOM     28  C   UNL     1      -8.185  20.046  66.898  0.00  0.00    +0.002 A 
ENDBRANCH  20  23
ENDBRANCH   1  19
TORSDOF 4
ENDMDL
MODEL 6
REMARK VINA RESULT:      -7.5      3.012      4.548
REMARK  Name = 
REMARK  4 active torsions:
REMARK  status: ('A' for Active; 'I' for Inactive)
REMARK    1  A    between atoms: C_5  and  C_6
REMARK    2  A    between atoms: C_12  and  C_13
REMARK    3  A    between atoms: N_15  and  CA_16
REMARK    4  A    between atoms: CA_25  and  C_26
REMARK                            x       y       z     vdW  Elec       q    Type
REMARK                         _______ _______ _______ _____ _____    ______ ____
ROOT
ATOM      1  C   UNL     1     -10.382  16.824  68.383  0.00  0.00    +0.270 C 
ATOM      2  N   UNL     1      -8.973  16.874  68.254  0.00  0.00    -0.191 NA
ATOM      3  O   UNL     1     -10.931  17.900  67.981  0.00  0.00    -0.268 OA
ENDROOT
BRANCH   2   4
ATOM      4  CA  UNL     1      -8.467  17.188  66.759  0.00  0.00    +0.200 C 
ATOM      5  C   UNL     1      -7.819  18.719  67.136  0.00  0.00    +0.153 C 
ATOM      6  S   UNL     1      -6.860  18.331  68.754  0.00  0.00    -0.118 S 
ATOM      7  C   UNL     1      -5.424  19.146  68.195  0.00  0.00    +0.068 C 
ATOM      8  CA  UNL     1      -5.522  19.165  66.520  0.00  0.00    +0.189 C 
ATOM      9  C   UNL     1      -5.178  20.537  68.610  0.00  0.00    +0.013 C 
ATOM     10  C   UNL     1      -4.125  18.355  68.315  0.00  0.00    +0.013 C 
ATOM     11  N   UNL     1      -6.646  18.027  66.447  0.00  0.00    -0.259 N 
ATOM     12  C   UNL     1      -6.929  16.726  67.026  0.00  0.00    +0.249 C 
ATOM     13  O   UNL     1      -6.483  15.597  67.169  0.00  0.00    -0.273 OA
BRANCH   8  14
ATOM     14  C   UNL     1      -6.577  20.439  66.458  0.00  0.00    +0.383 C 
ATOM     15  OXT UNL     1      -7.260  20.425  65.224  0.00  0.00    -0.244 OA
ATOM     16  O   UNL     1      -5.905  21.516  66.549  0.00  0.00    -0.244 OA
ENDBRANCH   8  14
ENDBRANCH   2   4
BRANCH   1  19
ATOM     17  C   UNL     1     -11.136  15.056  65.879  0.00  0.00    +0.076 C 
ATOM     18  C   UNL     1     -11.438  14.798  67.260  0.00  0.00    +0.159 A 
ATOM     19  C   UNL     1     -11.246  15.654  68.347  0.00  0.00    +0.109 A 
ATOM     20  C   UNL     1     -11.712  14.924  69.426  0.00  0.00    +0.127 A 
ATOM     21  N   UNL     1     -11.803  13.659  68.991  0.00  0.00    -0.077 NA
ATOM     22  O   UNL     1     -11.419  13.567  67.750  0.00  0.00    -0.358 OA
BRANCH  20  23
ATOM     23  C   UNL     1     -12.382  15.586  70.550  0.00  0.00    +0.021 A 
ATOM     24  C   UNL     1     -11.664  16.048  71.647  0.00  0.00    +0.002 A 
ATOM     25  C   UNL     1     -12.239  16.155  72.904  0.00  0.00    +0.000 A 
ATOM     26  C   UNL     1     -13.538  15.728  73.118  0.00  0.00    +0.000 A 
ATOM     27  C   UNL     1     -14.205  15.126  72.094  0.00  0.00    +0.000 A 
ATOM     28  C   UNL     1     -13.638  15.066  70.853  0.00  0.00    +0.002 A 
ENDBRANCH  20  23
ENDBRANCH   1  19
TORSDOF 4
ENDMDL
MODEL 7
REMARK VINA RESULT:      -7.5      2.813      4.742
REMARK  Name = 
REMARK  4 active torsions:
REMARK  status: ('A' for Active; 'I' for Inactive)
REMARK    1  A    between atoms: C_5  and  C_6
REMARK    2  A    between atoms: C_12  and  C_13
REMARK    3  A    between atoms: N_15  and  CA_16
REMARK    4  A    between atoms: CA_25  and  C_26
REMARK                            x       y       z     vdW  Elec       q    Type
REMARK                         _______ _______ _______ _____ _____    ______ ____
ROOT
ATOM      1  C   UNL     1      -9.219  13.788  67.709  0.00  0.00    +0.270 C 
ATOM      2  N   UNL     1      -8.646  15.067  67.519  0.00  0.00    -0.191 NA
ATOM      3  O   UNL     1      -8.695  13.178  68.696  0.00  0.00    -0.268 OA
ENDROOT
BRANCH   2   4
ATOM      4  CA  UNL     1      -8.727  16.017  68.817  0.00  0.00    +0.200 C 
ATOM      5  C   UNL     1      -7.754  17.253  68.162  0.00  0.00    +0.153 C 
ATOM      6  S   UNL     1      -8.506  17.428  66.403  0.00  0.00    -0.118 S 
ATOM      7  C   UNL     1      -8.605  19.164  66.530  0.00  0.00    +0.068 C 
ATOM      8  CA  UNL     1      -8.624  19.510  68.170  0.00  0.00    +0.189 C 
ATOM      9  C   UNL     1      -7.536  19.992  65.946  0.00  0.00    +0.013 C 
ATOM     10  C   UNL     1      -9.956  19.776  66.175  0.00  0.00    +0.013 C 
ATOM     11  N   UNL     1      -8.997  18.017  68.610  0.00  0.00    -0.259 N 
ATOM     12  C   UNL     1      -9.918  16.960  68.233  0.00  0.00    +0.249 C 
ATOM     13  O   UNL     1     -11.102  16.695  68.089  0.00  0.00    -0.273 OA
BRANCH   8  14
ATOM     14  C   UNL     1      -6.991  19.336  68.369  0.00  0.00    +0.383 C 
ATOM     15  OXT UNL     1      -6.713  18.988  69.707  0.00  0.00    -0.244 OA
ATOM     16  O   UNL     1      -6.437  20.451  68.106  0.00  0.00    -0.244 OA
ENDBRANCH   8  14
ENDBRANCH   2   4
BRANCH   1  19
ATOM     17  C   UNL     1     -10.762  14.210  64.988  0.00  0.00    +0.076 C 
ATOM     18  C   UNL     1     -11.162  13.407  66.110  0.00  0.00    +0.159 A 
ATOM     19  C   UNL     1     -10.564  13.346  67.370  0.00  0.00    +0.109 A 
ATOM     20  C   UNL     1     -11.347  12.440  68.063  0.00  0.00    +0.127 A 
ATOM     21  N   UNL     1     -12.076  11.810  67.132  0.00  0.00    -0.077 NA
ATOM     22  O   UNL     1     -11.786  12.250  65.941  0.00  0.00    -0.358 OA
BRANCH  20  23
ATOM     23  C   UNL     1     -11.585  12.597  69.502  0.00  0.00    +0.021 A 
ATOM     24  C   UNL     1     -12.074  11.547  70.271  0.00  0.00    +0.002 A 
ATOM     25  C   UNL     1     -12.812  11.768  71.423  0.00  0.00    +0.000 A 
ATOM     26  C   UNL     1     -13.148  13.055  71.803  0.00  0.00    +0.000 A 
ATOM     27  C   UNL     1     -12.815  14.088  70.980  0.00  0.00    +0.000 A 
ATOM     28  C   UNL     1     -12.053  13.856  69.870  0.00  0.00    +0.002 A 
ENDBRANCH  20  23
ENDBRANCH   1  19
TORSDOF 4
ENDMDL
MODEL 8
REMARK VINA RESULT:      -7.4      2.499      4.213
REMARK  Name = 
REMARK  4 active torsions:
REMARK  status: ('A' for Active; 'I' for Inactive)
REMARK    1  A    between atoms: C_5  and  C_6
REMARK    2  A    between atoms: C_12  and  C_13
REMARK    3  A    between atoms: N_15  and  CA_16
REMARK    4  A    between atoms: CA_25  and  C_26
REMARK                            x       y       z     vdW  Elec       q    Type
REMARK                         _______ _______ _______ _____ _____    ______ ____
ROOT
ATOM      1  C   UNL     1      -9.267  14.119  66.603  0.00  0.00    +0.270 C 
ATOM      2  N   UNL     1      -8.662  15.389  66.753  0.00  0.00    -0.191 NA
ATOM      3  O   UNL     1      -8.608  13.208  67.201  0.00  0.00    -0.268 OA
ENDROOT
BRANCH   2   4
ATOM      4  CA  UNL     1      -8.444  15.830  68.286  0.00  0.00    +0.200 C 
ATOM      5  C   UNL     1      -7.443  17.160  67.921  0.00  0.00    +0.153 C 
ATOM      6  S   UNL     1      -8.420  17.979  66.484  0.00  0.00    -0.118 S 
ATOM      7  C   UNL     1      -8.301  19.565  67.199  0.00  0.00    +0.068 C 
ATOM      8  CA  UNL     1      -8.041  19.318  68.837  0.00  0.00    +0.189 C 
ATOM      9  C   UNL     1      -7.243  20.482  66.745  0.00  0.00    +0.013 C 
ATOM     10  C   UNL     1      -9.612  20.337  67.314  0.00  0.00    +0.013 C 
ATOM     11  N   UNL     1      -8.512  17.789  68.811  0.00  0.00    -0.259 N 
ATOM     12  C   UNL     1      -9.592  16.983  68.272  0.00  0.00    +0.249 C 
ATOM     13  O   UNL     1     -10.807  16.851  68.259  0.00  0.00    -0.273 OA
BRANCH   8  14
ATOM     14  C   UNL     1      -6.426  18.994  68.673  0.00  0.00    +0.383 C 
ATOM     15  OXT UNL     1      -6.005  18.153  69.724  0.00  0.00    -0.244 OA
ATOM     16  O   UNL     1      -5.791  20.095  68.741  0.00  0.00    -0.244 OA
ENDBRANCH   8  14
ENDBRANCH   2   4
BRANCH   1  19
ATOM     17  C   UNL     1     -11.281  15.508  64.609  0.00  0.00    +0.076 C 
ATOM     18  C   UNL     1     -11.503  14.334  65.405  0.00  0.00    +0.159 A 
ATOM     19  C   UNL     1     -10.676  13.813  66.402  0.00  0.00    +0.109 A 
ATOM     20  C   UNL     1     -11.362  12.697  66.850  0.00  0.00    +0.127 A 
ATOM     21  N   UNL     1     -12.293  12.452  65.918  0.00  0.00    -0.077 NA
ATOM     22  O   UNL     1     -12.215  13.314  64.946  0.00  0.00    -0.358 OA
BRANCH  20  23
ATOM     23  C   UNL     1     -11.307  12.294  68.259  0.00  0.00    +0.021 A 
ATOM     24  C   UNL     1     -11.625  10.999  68.652  0.00  0.00    +0.002 A 
ATOM     25  C   UNL     1     -12.118  10.720  69.917  0.00  0.00    +0.000 A 
ATOM     26  C   UNL     1     -12.377  11.747  70.809  0.00  0.00    +0.000 A 
ATOM     27  C   UNL     1     -12.222  13.033  70.388  0.00  0.00    +0.000 A 
ATOM     28  C   UNL     1     -11.698  13.288  69.153  0.00  0.00    +0.002 A 
ENDBRANCH  20  23
ENDBRANCH   1  19
TORSDOF 4
ENDMDL
MODEL 9
REMARK VINA RESULT:      -7.1      3.906      6.818
REMARK  Name = 
REMARK  4 active torsions:
REMARK  status: ('A' for Active; 'I' for Inactive)
REMARK    1  A    between atoms: C_5  and  C_6
REMARK    2  A    between atoms: C_12  and  C_13
REMARK    3  A    between atoms: N_15  and  CA_16
REMARK    4  A    between atoms: CA_25  and  C_26
REMARK                            x       y       z     vdW  Elec       q    Type
REMARK                         _______ _______ _______ _____ _____    ______ ____
ROOT
ATOM      1  C   UNL     1     -11.478  12.285  67.002  0.00  0.00    +0.270 C 
ATOM      2  N   UNL     1     -11.040  13.610  67.237  0.00  0.00    -0.191 NA
ATOM      3  O   UNL     1     -12.350  12.234  66.076  0.00  0.00    -0.268 OA
ENDROOT
BRANCH   2   4
ATOM      4  CA  UNL     1     -10.452  14.343  65.929  0.00  0.00    +0.200 C 
ATOM      5  C   UNL     1     -10.786  15.922  66.476  0.00  0.00    +0.153 C 
ATOM      6  S   UNL     1     -10.147  15.833  68.286  0.00  0.00    -0.118 S 
ATOM      7  C   UNL     1      -9.254  17.322  68.130  0.00  0.00    +0.068 C 
ATOM      8  CA  UNL     1      -8.976  17.528  66.489  0.00  0.00    +0.189 C 
ATOM      9  C   UNL     1      -9.856  18.577  68.608  0.00  0.00    +0.013 C 
ATOM     10  C   UNL     1      -7.797  17.268  68.579  0.00  0.00    +0.013 C 
ATOM     11  N   UNL     1      -9.306  16.007  66.113  0.00  0.00    -0.259 N 
ATOM     12  C   UNL     1      -8.999  14.669  66.586  0.00  0.00    +0.249 C 
ATOM     13  O   UNL     1      -8.080  13.901  66.830  0.00  0.00    -0.273 OA
BRANCH   8  14
ATOM     14  C   UNL     1     -10.492  18.108  66.163  0.00  0.00    +0.383 C 
ATOM     15  OXT UNL     1     -10.898  17.675  64.884  0.00  0.00    -0.244 OA
ATOM     16  O   UNL     1     -10.442  19.380  66.176  0.00  0.00    -0.244 OA
ENDBRANCH   8  14
ENDBRANCH   2   4
BRANCH   1  19
ATOM     17  C   UNL     1     -11.059  10.723  69.712  0.00  0.00    +0.076 C 
ATOM     18  C   UNL     1     -10.707  10.294  68.387  0.00  0.00    +0.159 A 
ATOM     19  C   UNL     1     -10.744  11.046  67.212  0.00  0.00    +0.109 A 
ATOM     20  C   UNL     1     -10.296  10.165  66.243  0.00  0.00    +0.127 A 
ATOM     21  N   UNL     1     -10.363   8.950  66.805  0.00  0.00    -0.077 NA
ATOM     22  O   UNL     1     -10.825   9.026  68.019  0.00  0.00    -0.358 OA
BRANCH  20  23
ATOM     23  C   UNL     1      -9.497  10.637  65.107  0.00  0.00    +0.021 A 
ATOM     24  C   UNL     1     -10.062  10.812  63.850  0.00  0.00    +0.002 A 
ATOM     25  C   UNL     1      -9.310  10.708  62.690  0.00  0.00    +0.000 A 
ATOM     26  C   UNL     1      -7.975  10.349  62.751  0.00  0.00    +0.000 A 
ATOM     27  C   UNL     1      -7.442  10.020  63.960  0.00  0.00    +0.000 A 
ATOM     28  C   UNL     1      -8.186  10.167  65.097  0.00  0.00    +0.002 A 
ENDBRANCH  20  23
ENDBRANCH   1  19
TORSDOF 4
ENDMDL
