MODEL 1
REMARK VINA RESULT:      -7.4      0.000      0.000
REMARK  Name = 
REMARK  2 active torsions:
REMARK  status: ('A' for Active; 'I' for Inactive)
REMARK    1  A    between atoms: C_23  and  C_25
REMARK    2  A    between atoms: C_25  and  C_27
REMARK                            x       y       z     vdW  Elec       q    Type
REMARK                         _______ _______ _______ _____ _____    ______ ____
ROOT
ATOM      1  C   UNL     1      -9.929  12.750  68.412  0.00  0.00    +0.003 C 
ATOM      2  C   UNL     1     -10.223  12.715  66.805  0.00  0.00    +0.035 C 
ATOM      3  C   UNL     1     -11.332  13.903  66.843  0.00  0.00    +0.178 C 
ATOM      4  O   UNL     1     -12.042  13.828  67.998  0.00  0.00    -0.218 OA
ATOM      5  C   UNL     1     -10.644  15.117  66.481  0.00  0.00    +0.035 C 
ATOM      6  C   UNL     1      -9.391  14.869  67.460  0.00  0.00    +0.004 C 
ATOM      7  C   UNL     1      -8.591  16.090  66.602  0.00  0.00    +0.017 C 
ATOM      8  C   UNL     1      -9.156  17.197  67.614  0.00  0.00    +0.102 C 
ATOM      9  C   UNL     1     -10.548  17.717  66.900  0.00  0.00    +0.166 C 
ATOM     10  O   UNL     1      -9.882  17.837  65.532  0.00  0.00    -0.222 OA
ATOM     11 CL   UNL     1      -9.500  16.665  69.190  0.00  0.00    -0.113 Cl
ATOM     12  C   UNL     1      -8.247  18.358  67.592  0.00  0.00    +0.049 C 
ATOM     13  C   UNL     1      -7.102  18.237  66.630  0.00  0.00    -0.037 C 
ATOM     14  C   UNL     1      -6.451  19.400  66.499  0.00  0.00    +0.034 C 
ATOM     15  C   UNL     1      -6.541  20.436  67.545  0.00  0.00    +0.195 C 
ATOM     16  C   UNL     1      -6.927  19.873  68.850  0.00  0.00    +0.038 C 
ATOM     17  O   UNL     1      -6.118  21.600  67.389  0.00  0.00    -0.287 OA
ATOM     18  C   UNL     1      -6.370  16.928  66.622  0.00  0.00    +0.022 C 
ATOM     19  C   UNL     1      -9.000  19.633  67.220  0.00  0.00    +0.010 C 
ATOM     20  C   UNL     1      -7.562  18.693  68.874  0.00  0.00    -0.018 C 
ATOM     21  C   UNL     1      -7.202  15.920  67.417  0.00  0.00    +0.006 C 
ATOM     22  C   UNL     1     -10.165  14.896  65.042  0.00  0.00    +0.003 C 
ATOM     23  C   UNL     1     -11.268  16.303  66.543  0.00  0.00    +0.037 C 
ATOM     24  C   UNL     1      -8.919  13.656  66.504  0.00  0.00    +0.003 C 
ENDROOT
BRANCH   3  25
ATOM     25  C   UNL     1     -12.312  13.550  65.758  0.00  0.00    +0.194 C 
ATOM     26  O   UNL     1     -13.369  14.123  65.627  0.00  0.00    -0.292 OA
BRANCH  25  27
ATOM     27  C   UNL     1     -12.140  12.253  65.052  0.00  0.00    +0.161 C 
ATOM     28 CL   UNL     1     -12.421  12.383  63.310  0.00  0.00    -0.105 Cl
ENDBRANCH  25  27
ENDBRANCH   3  25
TORSDOF 2
ENDMDL
MODEL 2
REMARK VINA RESULT:      -7.1      2.282      6.794
REMARK  Name = 
REMARK  2 active torsions:
REMARK  status: ('A' for Active; 'I' for Inactive)
REMARK    1  A    between atoms: C_23  and  C_25
REMARK    2  A    between atoms: C_25  and  C_27
REMARK                            x       y       z     vdW  Elec       q    Type
REMARK                         _______ _______ _______ _____ _____    ______ ____
ROOT
ATOM      1  C   UNL     1     -10.923  19.656  67.255  0.00  0.00    +0.003 C 
ATOM      2  C   UNL     1      -9.368  19.727  66.758  0.00  0.00    +0.035 C 
ATOM      3  C   UNL     1      -8.765  19.030  68.097  0.00  0.00    +0.178 C 
ATOM      4  O   UNL     1      -9.494  19.409  69.177  0.00  0.00    -0.218 OA
ATOM      5  C   UNL     1      -8.583  17.634  67.785  0.00  0.00    +0.035 C 
ATOM      6  C   UNL     1     -10.033  17.448  67.112  0.00  0.00    +0.004 C 
ATOM      7  C   UNL     1      -9.458  15.984  66.485  0.00  0.00    +0.017 C 
ATOM      8  C   UNL     1      -9.969  15.204  67.790  0.00  0.00    +0.102 C 
ATOM      9  C   UNL     1      -8.659  15.199  68.791  0.00  0.00    +0.166 C 
ATOM     10  O   UNL     1      -7.715  14.786  67.666  0.00  0.00    -0.222 OA
ATOM     11 CL   UNL     1     -11.293  15.892  68.603  0.00  0.00    -0.113 Cl
ATOM     12  C   UNL     1     -10.194  13.791  67.432  0.00  0.00    +0.049 C 
ATOM     13  C   UNL     1      -9.851  13.444  66.013  0.00  0.00    -0.037 C 
ATOM     14  C   UNL     1      -9.866  12.119  65.819  0.00  0.00    +0.034 C 
ATOM     15  C   UNL     1     -10.624  11.234  66.723  0.00  0.00    +0.195 C 
ATOM     16  C   UNL     1     -11.692  11.954  67.437  0.00  0.00    +0.038 C 
ATOM     17  O   UNL     1     -10.517   9.990  66.705  0.00  0.00    -0.287 OA
ATOM     18  C   UNL     1     -10.333  14.394  64.956  0.00  0.00    +0.022 C 
ATOM     19  C   UNL     1      -9.368  12.865  68.322  0.00  0.00    +0.010 C 
ATOM     20  C   UNL     1     -11.590  13.284  67.563  0.00  0.00    -0.018 C 
ATOM     21  C   UNL     1     -10.811  15.669  65.654  0.00  0.00    +0.006 C 
ATOM     22  C   UNL     1      -7.539  17.603  66.664  0.00  0.00    +0.003 C 
ATOM     23  C   UNL     1      -8.212  16.762  68.734  0.00  0.00    +0.037 C 
ATOM     24  C   UNL     1      -9.545  18.362  65.874  0.00  0.00    +0.003 C 
ENDROOT
BRANCH   3  25
ATOM     25  C   UNL     1      -7.417  19.671  68.291  0.00  0.00    +0.194 C 
ATOM     26  O   UNL     1      -6.763  19.513  69.296  0.00  0.00    -0.292 OA
BRANCH  25  27
ATOM     27  C   UNL     1      -7.036  20.789  67.388  0.00  0.00    +0.161 C 
ATOM     28 CL   UNL     1      -5.312  21.177  67.477  0.00  0.00    -0.105 Cl
ENDBRANCH  25  27
ENDBRANCH   3  25
TORSDOF 2
ENDMDL
MODEL 3
REMARK VINA RESULT:      -7.1      4.431      7.010
REMARK  Name = 
REMARK  2 active torsions:
REMARK  status: ('A' for Active; 'I' for Inactive)
REMARK    1  A    between atoms: C_23  and  C_25
REMARK    2  A    between atoms: C_25  and  C_27
REMARK                            x       y       z     vdW  Elec       q    Type
REMARK                         _______ _______ _______ _____ _____    ______ ____
ROOT
ATOM      1  C   UNL     1      -6.619   9.267  68.660  0.00  0.00    +0.003 C 
ATOM      2  C   UNL     1      -7.818   8.175  68.855  0.00  0.00    +0.035 C 
ATOM      3  C   UNL     1      -8.703   9.118  69.840  0.00  0.00    +0.178 C 
ATOM      4  O   UNL     1      -7.878   9.857  70.625  0.00  0.00    -0.218 OA
ATOM      5  C   UNL     1      -9.698   9.754  69.014  0.00  0.00    +0.035 C 
ATOM      6  C   UNL     1      -8.667  10.186  67.855  0.00  0.00    +0.004 C 
ATOM      7  C   UNL     1     -10.021  10.492  66.886  0.00  0.00    +0.017 C 
ATOM      8  C   UNL     1     -10.071  12.009  67.401  0.00  0.00    +0.102 C 
ATOM      9  C   UNL     1     -11.101  11.962  68.687  0.00  0.00    +0.166 C 
ATOM     10  O   UNL     1     -12.117  11.114  67.928  0.00  0.00    -0.222 OA
ATOM     11 CL   UNL     1      -8.590  12.681  67.894  0.00  0.00    -0.113 Cl
ATOM     12  C   UNL     1     -10.753  12.828  66.382  0.00  0.00    +0.049 C 
ATOM     13  C   UNL     1     -11.256  12.057  65.196  0.00  0.00    -0.037 C 
ATOM     14  C   UNL     1     -12.051  12.812  64.426  0.00  0.00    +0.034 C 
ATOM     15  C   UNL     1     -11.973  14.284  64.479  0.00  0.00    +0.195 C 
ATOM     16  C   UNL     1     -10.677  14.752  65.000  0.00  0.00    +0.038 C 
ATOM     17  O   UNL     1     -12.812  15.030  63.933  0.00  0.00    -0.287 OA
ATOM     18  C   UNL     1     -10.312  11.056  64.599  0.00  0.00    +0.022 C 
ATOM     19  C   UNL     1     -11.959  13.548  66.980  0.00  0.00    +0.010 C 
ATOM     20  C   UNL     1      -9.949  13.912  65.748  0.00  0.00    -0.018 C 
ATOM     21  C   UNL     1      -9.148  10.867  65.575  0.00  0.00    +0.006 C 
ATOM     22  C   UNL     1     -10.563   8.612  68.470  0.00  0.00    +0.003 C 
ATOM     23  C   UNL     1     -10.509  10.696  69.520  0.00  0.00    +0.037 C 
ATOM     24  C   UNL     1      -8.518   8.631  67.448  0.00  0.00    +0.003 C 
ENDROOT
BRANCH   3  25
ATOM     25  C   UNL     1      -9.382   8.160  70.781  0.00  0.00    +0.194 C 
ATOM     26  O   UNL     1      -9.965   8.531  71.774  0.00  0.00    -0.292 OA
BRANCH  25  27
ATOM     27  C   UNL     1      -9.041   6.717  70.681  0.00  0.00    +0.161 C 
ATOM     28 CL   UNL     1     -10.471   5.688  70.519  0.00  0.00    -0.105 Cl
ENDBRANCH  25  27
ENDBRANCH   3  25
TORSDOF 2
ENDMDL
MODEL 4
REMARK VINA RESULT:      -6.7      1.690      2.117
REMARK  Name = 
REMARK  2 active torsions:
REMARK  status: ('A' for Active; 'I' for Inactive)
REMARK    1  A    between atoms: C_23  and  C_25
REMARK    2  A    between atoms: C_25  and  C_27
REMARK                            x       y       z     vdW  Elec       q    Type
REMARK                         _______ _______ _______ _____ _____    ______ ____
ROOT
ATOM      1  C   UNL     1     -10.690  15.571  70.304  0.00  0.00    +0.003 C 
ATOM      2  C   UNL     1     -10.375  14.487  69.123  0.00  0.00    +0.035 C 
ATOM      3  C   UNL     1     -10.966  15.413  67.925  0.00  0.00    +0.178 C 
ATOM      4  O   UNL     1     -12.029  16.124  68.381  0.00  0.00    -0.218 OA
ATOM      5  C   UNL     1      -9.836  16.081  67.328  0.00  0.00    +0.035 C 
ATOM      6  C   UNL     1      -9.180  16.531  68.727  0.00  0.00    +0.004 C 
ATOM      7  C   UNL     1      -7.770  16.874  67.854  0.00  0.00    +0.017 C 
ATOM      8  C   UNL     1      -8.267  18.379  67.609  0.00  0.00    +0.102 C 
ATOM      9  C   UNL     1      -9.052  18.310  66.161  0.00  0.00    +0.166 C 
ATOM     10  O   UNL     1      -7.936  17.492  65.518  0.00  0.00    -0.222 OA
ATOM     11 CL   UNL     1      -9.314  19.023  68.783  0.00  0.00    -0.113 Cl
ATOM     12  C   UNL     1      -7.086  19.230  67.375  0.00  0.00    +0.049 C 
ATOM     13  C   UNL     1      -5.777  18.494  67.371  0.00  0.00    -0.037 C 
ATOM     14  C   UNL     1      -4.780  19.276  66.937  0.00  0.00    +0.034 C 
ATOM     15  C   UNL     1      -4.899  20.746  66.988  0.00  0.00    +0.195 C 
ATOM     16  C   UNL     1      -5.894  21.188  67.980  0.00  0.00    +0.038 C 
ATOM     17  O   UNL     1      -4.092  21.514  66.425  0.00  0.00    -0.287 OA
ATOM     18  C   UNL     1      -5.566  17.499  68.473  0.00  0.00    +0.022 C 
ATOM     19  C   UNL     1      -7.189  19.948  66.031  0.00  0.00    +0.010 C 
ATOM     20  C   UNL     1      -6.843  20.322  68.361  0.00  0.00    -0.018 C 
ATOM     21  C   UNL     1      -6.911  17.274  69.167  0.00  0.00    +0.006 C 
ATOM     22  C   UNL     1      -8.969  14.961  66.742  0.00  0.00    +0.003 C 
ATOM     23  C   UNL     1     -10.014  17.017  66.384  0.00  0.00    +0.037 C 
ATOM     24  C   UNL     1      -8.820  14.985  69.023  0.00  0.00    +0.003 C 
ENDROOT
BRANCH   3  25
ATOM     25  C   UNL     1     -11.543  14.439  66.934  0.00  0.00    +0.194 C 
ATOM     26  O   UNL     1     -12.140  14.798  65.945  0.00  0.00    -0.292 OA
BRANCH  25  27
ATOM     27  C   UNL     1     -11.688  13.019  67.349  0.00  0.00    +0.161 C 
ATOM     28 CL   UNL     1     -11.285  11.887  66.050  0.00  0.00    -0.105 Cl
ENDBRANCH  25  27
ENDBRANCH   3  25
TORSDOF 2
ENDMDL
MODEL 5
REMARK VINA RESULT:      -6.4      1.831      2.333
REMARK  Name = 
REMARK  2 active torsions:
REMARK  status: ('A' for Active; 'I' for Inactive)
REMARK    1  A    between atoms: C_23  and  C_25
REMARK    2  A    between atoms: C_25  and  C_27
REMARK                            x       y       z     vdW  Elec       q    Type
REMARK                         _______ _______ _______ _____ _____    ______ ____
ROOT
ATOM      1  C   UNL     1     -11.348  12.095  69.160  0.00  0.00    +0.003 C 
ATOM      2  C   UNL     1     -10.266  11.509  68.085  0.00  0.00    +0.035 C 
ATOM      3  C   UNL     1     -10.938  12.245  66.801  0.00  0.00    +0.178 C 
ATOM      4  O   UNL     1     -12.286  12.285  66.951  0.00  0.00    -0.218 OA
ATOM      5  C   UNL     1     -10.186  13.456  66.583  0.00  0.00    +0.035 C 
ATOM      6  C   UNL     1     -10.193  13.909  68.128  0.00  0.00    +0.004 C 
ATOM      7  C   UNL     1      -8.982  15.018  67.717  0.00  0.00    +0.017 C 
ATOM      8  C   UNL     1     -10.088  16.132  67.391  0.00  0.00    +0.102 C 
ATOM      9  C   UNL     1     -10.366  15.958  65.775  0.00  0.00    +0.166 C 
ATOM     10  O   UNL     1      -8.875  15.884  65.458  0.00  0.00    -0.222 OA
ATOM     11 CL   UNL     1     -11.559  15.996  68.230  0.00  0.00    -0.113 Cl
ATOM     12  C   UNL     1      -9.470  17.463  67.541  0.00  0.00    +0.049 C 
ATOM     13  C   UNL     1      -8.011  17.438  67.894  0.00  0.00    -0.037 C 
ATOM     14  C   UNL     1      -7.466  18.658  67.797  0.00  0.00    +0.034 C 
ATOM     15  C   UNL     1      -8.309  19.866  67.863  0.00  0.00    +0.195 C 
ATOM     16  C   UNL     1      -9.593  19.611  68.537  0.00  0.00    +0.038 C 
ATOM     17  O   UNL     1      -7.884  21.008  67.588  0.00  0.00    -0.287 OA
ATOM     18  C   UNL     1      -7.600  16.482  68.974  0.00  0.00    +0.022 C 
ATOM     19  C   UNL     1      -9.596  18.272  66.252  0.00  0.00    +0.010 C 
ATOM     20  C   UNL     1     -10.044  18.350  68.594  0.00  0.00    -0.018 C 
ATOM     21  C   UNL     1      -8.774  15.537  69.237  0.00  0.00    +0.006 C 
ATOM     22  C   UNL     1      -8.767  12.994  66.236  0.00  0.00    +0.003 C 
ATOM     23  C   UNL     1     -10.577  14.350  65.662  0.00  0.00    +0.037 C 
ATOM     24  C   UNL     1      -9.193  12.686  68.461  0.00  0.00    +0.003 C 
ENDROOT
BRANCH   3  25
ATOM     25  C   UNL     1     -10.700  11.305  65.651  0.00  0.00    +0.194 C 
ATOM     26  O   UNL     1     -11.209  11.466  64.565  0.00  0.00    -0.292 OA
BRANCH  25  27
ATOM     27  C   UNL     1     -10.114   9.971  65.945  0.00  0.00    +0.161 C 
ATOM     28 CL   UNL     1      -9.012   9.416  64.676  0.00  0.00    -0.105 Cl
ENDBRANCH  25  27
ENDBRANCH   3  25
TORSDOF 2
ENDMDL
MODEL 6
REMARK VINA RESULT:      -6.4      2.135      3.395
REMARK  Name = 
REMARK  2 active torsions:
REMARK  status: ('A' for Active; 'I' for Inactive)
REMARK    1  A    between atoms: C_23  and  C_25
REMARK    2  A    between atoms: C_25  and  C_27
REMARK                            x       y       z     vdW  Elec       q    Type
REMARK                         _______ _______ _______ _____ _____    ______ ____
ROOT
ATOM      1  C   UNL     1     -12.020  14.400  65.948  0.00  0.00    +0.003 C 
ATOM      2  C   UNL     1     -12.052  13.865  67.491  0.00  0.00    +0.035 C 
ATOM      3  C   UNL     1     -10.515  13.336  67.484  0.00  0.00    +0.178 C 
ATOM      4  O   UNL     1     -10.207  12.846  66.256  0.00  0.00    -0.218 OA
ATOM      5  C   UNL     1      -9.719  14.380  68.081  0.00  0.00    +0.035 C 
ATOM      6  C   UNL     1     -10.384  15.572  67.228  0.00  0.00    +0.004 C 
ATOM      7  C   UNL     1      -9.666  16.641  68.326  0.00  0.00    +0.017 C 
ATOM      8  C   UNL     1      -8.351  16.726  67.412  0.00  0.00    +0.102 C 
ATOM      9  C   UNL     1      -7.363  15.557  68.024  0.00  0.00    +0.166 C 
ATOM     10  O   UNL     1      -7.629  15.991  69.463  0.00  0.00    -0.222 OA
ATOM     11 CL   UNL     1      -8.576  16.455  65.750  0.00  0.00    -0.113 Cl
ATOM     12  C   UNL     1      -7.669  18.003  67.691  0.00  0.00    +0.049 C 
ATOM     13  C   UNL     1      -8.320  18.840  68.754  0.00  0.00    -0.037 C 
ATOM     14  C   UNL     1      -7.538  19.867  69.112  0.00  0.00    +0.034 C 
ATOM     15  C   UNL     1      -6.481  20.359  68.209  0.00  0.00    +0.195 C 
ATOM     16  C   UNL     1      -6.737  19.994  66.805  0.00  0.00    +0.038 C 
ATOM     17  O   UNL     1      -5.607  21.176  68.566  0.00  0.00    -0.287 OA
ATOM     18  C   UNL     1      -9.811  18.984  68.672  0.00  0.00    +0.022 C 
ATOM     19  C   UNL     1      -6.229  17.765  68.141  0.00  0.00    +0.010 C 
ATOM     20  C   UNL     1      -7.549  18.959  66.553  0.00  0.00    -0.018 C 
ATOM     21  C   UNL     1     -10.327  17.960  67.660  0.00  0.00    +0.006 C 
ATOM     22  C   UNL     1     -10.224  14.498  69.523  0.00  0.00    +0.003 C 
ATOM     23  C   UNL     1      -8.381  14.292  68.106  0.00  0.00    +0.037 C 
ATOM     24  C   UNL     1     -11.752  15.369  68.061  0.00  0.00    +0.003 C 
ENDROOT
BRANCH   3  25
ATOM     25  C   UNL     1     -10.517  12.137  68.394  0.00  0.00    +0.194 C 
ATOM     26  O   UNL     1      -9.526  11.472  68.592  0.00  0.00    -0.292 OA
BRANCH  25  27
ATOM     27  C   UNL     1     -11.827  11.553  68.782  0.00  0.00    +0.161 C 
ATOM     28 CL   UNL     1     -12.063  11.514  70.535  0.00  0.00    -0.105 Cl
ENDBRANCH  25  27
ENDBRANCH   3  25
TORSDOF 2
ENDMDL
MODEL 7
REMARK VINA RESULT:      -6.3      2.227      3.311
REMARK  Name = 
REMARK  2 active torsions:
REMARK  status: ('A' for Active; 'I' for Inactive)
REMARK    1  A    between atoms: C_23  and  C_25
REMARK    2  A    between atoms: C_25  and  C_27
REMARK                            x       y       z     vdW  Elec       q    Type
REMARK                         _______ _______ _______ _____ _____    ______ ____
ROOT
ATOM      1  C   UNL     1     -10.371  16.197  69.470  0.00  0.00    +0.003 C 
ATOM      2  C   UNL     1      -9.893  15.402  68.126  0.00  0.00    +0.035 C 
ATOM      3  C   UNL     1     -10.013  16.697  67.151  0.00  0.00    +0.178 C 
ATOM      4  O   UNL     1     -11.057  17.470  67.545  0.00  0.00    -0.218 OA
ATOM      5  C   UNL     1      -8.686  17.252  67.043  0.00  0.00    +0.035 C 
ATOM      6  C   UNL     1      -8.379  17.198  68.622  0.00  0.00    +0.004 C 
ATOM      7  C   UNL     1      -6.754  17.459  68.226  0.00  0.00    +0.017 C 
ATOM      8  C   UNL     1      -6.965  19.045  68.326  0.00  0.00    +0.102 C 
ATOM      9  C   UNL     1      -7.332  19.498  66.784  0.00  0.00    +0.166 C 
ATOM     10  O   UNL     1      -6.200  18.660  66.197  0.00  0.00    -0.222 OA
ATOM     11 CL   UNL     1      -8.197  19.571  69.372  0.00  0.00    -0.113 Cl
ATOM     12  C   UNL     1      -5.664  19.673  68.621  0.00  0.00    +0.049 C 
ATOM     13  C   UNL     1      -4.511  18.715  68.694  0.00  0.00    -0.037 C 
ATOM     14  C   UNL     1      -3.340  19.365  68.742  0.00  0.00    +0.034 C 
ATOM     15  C   UNL     1      -3.276  20.768  69.192  0.00  0.00    +0.195 C 
ATOM     16  C   UNL     1      -4.435  21.138  70.022  0.00  0.00    +0.038 C 
ATOM     17  O   UNL     1      -2.253  21.474  69.074  0.00  0.00    -0.287 OA
ATOM     18  C   UNL     1      -4.737  17.455  69.476  0.00  0.00    +0.022 C 
ATOM     19  C   UNL     1      -5.306  20.709  67.558  0.00  0.00    +0.010 C 
ATOM     20  C   UNL     1      -5.556  20.412  69.911  0.00  0.00    -0.018 C 
ATOM     21  C   UNL     1      -6.237  17.337  69.755  0.00  0.00    +0.006 C 
ATOM     22  C   UNL     1      -7.847  16.164  66.364  0.00  0.00    +0.003 C 
ATOM     23  C   UNL     1      -8.479  18.411  66.399  0.00  0.00    +0.037 C 
ATOM     24  C   UNL     1      -8.318  15.587  68.526  0.00  0.00    +0.003 C 
ENDROOT
BRANCH   3  25
ATOM     25  C   UNL     1     -10.423  16.137  65.816  0.00  0.00    +0.194 C 
ATOM     26  O   UNL     1     -10.766  16.843  64.895  0.00  0.00    -0.292 OA
BRANCH  25  27
ATOM     27  C   UNL     1     -10.746  14.689  65.732  0.00  0.00    +0.161 C 
ATOM     28 CL   UNL     1     -12.455  14.391  65.384  0.00  0.00    -0.105 Cl
ENDBRANCH  25  27
ENDBRANCH   3  25
TORSDOF 2
ENDMDL
MODEL 8
REMARK VINA RESULT:      -6.2      2.586      7.188
REMARK  Name = 
REMARK  2 active torsions:
REMARK  status: ('A' for Active; 'I' for Inactive)
REMARK    1  A    between atoms: C_23  and  C_25
REMARK    2  A    between atoms: C_25  and  C_27
REMARK                            x       y       z     vdW  Elec       q    Type
REMARK                         _______ _______ _______ _____ _____    ______ ____
ROOT
ATOM      1  C   UNL     1      -5.293  20.847  69.237  0.00  0.00    +0.003 C 
ATOM      2  C   UNL     1      -5.387  21.225  67.650  0.00  0.00    +0.035 C 
ATOM      3  C   UNL     1      -4.777  19.809  67.136  0.00  0.00    +0.178 C 
ATOM      4  O   UNL     1      -3.836  19.373  68.012  0.00  0.00    -0.218 OA
ATOM      5  C   UNL     1      -5.904  18.978  66.792  0.00  0.00    +0.035 C 
ATOM      6  C   UNL     1      -6.731  19.296  68.135  0.00  0.00    +0.004 C 
ATOM      7  C   UNL     1      -8.078  18.623  67.361  0.00  0.00    +0.017 C 
ATOM      8  C   UNL     1      -7.708  17.173  67.938  0.00  0.00    +0.102 C 
ATOM      9  C   UNL     1      -6.785  16.494  66.752  0.00  0.00    +0.166 C 
ATOM     10  O   UNL     1      -7.751  16.934  65.655  0.00  0.00    -0.222 OA
ATOM     11 CL   UNL     1      -6.845  17.148  69.402  0.00  0.00    -0.113 Cl
ATOM     12  C   UNL     1      -8.938  16.362  67.990  0.00  0.00    +0.049 C 
ATOM     13  C   UNL     1     -10.163  17.050  67.462  0.00  0.00    -0.037 C 
ATOM     14  C   UNL     1     -11.185  16.194  67.333  0.00  0.00    +0.034 C 
ATOM     15  C   UNL     1     -11.214  14.935  68.100  0.00  0.00    +0.195 C 
ATOM     16  C   UNL     1     -10.366  14.998  69.302  0.00  0.00    +0.038 C 
ATOM     17  O   UNL     1     -12.035  14.021  67.877  0.00  0.00    -0.287 OA
ATOM     18  C   UNL     1     -10.381  18.465  67.910  0.00  0.00    +0.022 C 
ATOM     19  C   UNL     1      -8.777  15.075  67.185  0.00  0.00    +0.010 C 
ATOM     20  C   UNL     1      -9.378  15.903  69.339  0.00  0.00    -0.018 C 
ATOM     21  C   UNL     1      -9.093  18.950  68.579  0.00  0.00    +0.006 C 
ATOM     22  C   UNL     1      -6.599  19.699  65.632  0.00  0.00    +0.003 C 
ATOM     23  C   UNL     1      -5.729  17.693  66.448  0.00  0.00    +0.037 C 
ATOM     24  C   UNL     1      -6.967  20.801  67.601  0.00  0.00    +0.003 C 
ENDROOT
BRANCH   3  25
ATOM     25  C   UNL     1      -4.016  20.150  65.883  0.00  0.00    +0.194 C 
ATOM     26  O   UNL     1      -3.331  19.341  65.300  0.00  0.00    -0.292 OA
BRANCH  25  27
ATOM     27  C   UNL     1      -3.822  21.585  65.549  0.00  0.00    +0.161 C 
ATOM     28 CL   UNL     1      -3.761  21.876  63.804  0.00  0.00    -0.105 Cl
ENDBRANCH  25  27
ENDBRANCH   3  25
TORSDOF 2
ENDMDL
MODEL 9
REMARK VINA RESULT:      -6.2      2.032      2.778
REMARK  Name = 
REMARK  2 active torsions:
REMARK  status: ('A' for Active; 'I' for Inactive)
REMARK    1  A    between atoms: C_23  and  C_25
REMARK    2  A    between atoms: C_25  and  C_27
REMARK                            x       y       z     vdW  Elec       q    Type
REMARK                         _______ _______ _______ _____ _____    ______ ____
ROOT
ATOM      1  C   UNL     1      -7.949  14.046  68.823  0.00  0.00    +0.003 C 
ATOM      2  C   UNL     1      -9.159  14.332  67.763  0.00  0.00    +0.035 C 
ATOM      3  C   UNL     1      -9.739  15.624  68.563  0.00  0.00    +0.178 C 
ATOM      4  O   UNL     1      -9.596  15.434  69.900  0.00  0.00    -0.218 OA
ATOM      5  C   UNL     1      -9.180  16.788  67.921  0.00  0.00    +0.035 C 
ATOM      6  C   UNL     1      -7.676  16.217  67.874  0.00  0.00    +0.004 C 
ATOM      7  C   UNL     1      -7.332  17.461  66.779  0.00  0.00    +0.017 C 
ATOM      8  C   UNL     1      -6.920  18.434  67.985  0.00  0.00    +0.102 C 
ATOM      9  C   UNL     1      -8.313  19.240  68.342  0.00  0.00    +0.166 C 
ATOM     10  O   UNL     1      -8.609  19.516  66.870  0.00  0.00    -0.222 OA
ATOM     11 CL   UNL     1      -6.335  17.678  69.390  0.00  0.00    -0.113 Cl
ATOM     12  C   UNL     1      -5.996  19.458  67.465  0.00  0.00    +0.049 C 
ATOM     13  C   UNL     1      -5.729  19.368  65.991  0.00  0.00    -0.037 C 
ATOM     14  C   UNL     1      -5.068  20.446  65.548  0.00  0.00    +0.034 C 
ATOM     15  C   UNL     1      -4.286  21.284  66.477  0.00  0.00    +0.195 C 
ATOM     16  C   UNL     1      -3.905  20.551  67.697  0.00  0.00    +0.038 C 
ATOM     17  O   UNL     1      -3.815  22.395  66.159  0.00  0.00    -0.287 OA
ATOM     18  C   UNL     1      -5.445  18.000  65.444  0.00  0.00    +0.022 C 
ATOM     19  C   UNL     1      -6.534  20.863  67.728  0.00  0.00    +0.010 C 
ATOM     20  C   UNL     1      -4.622  19.474  68.044  0.00  0.00    -0.018 C 
ATOM     21  C   UNL     1      -5.807  16.979  66.524  0.00  0.00    +0.006 C 
ATOM     22  C   UNL     1      -9.734  16.767  66.493  0.00  0.00    +0.003 C 
ATOM     23  C   UNL     1      -9.375  18.012  68.434  0.00  0.00    +0.037 C 
ATOM     24  C   UNL     1      -8.148  15.143  66.765  0.00  0.00    +0.003 C 
ENDROOT
BRANCH   3  25
ATOM     25  C   UNL     1     -11.224  15.592  68.320  0.00  0.00    +0.194 C 
ATOM     26  O   UNL     1     -11.965  16.459  68.722  0.00  0.00    -0.292 OA
BRANCH  25  27
ATOM     27  C   UNL     1     -11.836  14.309  67.885  0.00  0.00    +0.161 C 
ATOM     28 CL   UNL     1     -12.343  14.337  66.190  0.00  0.00    -0.105 Cl
ENDBRANCH  25  27
ENDBRANCH   3  25
TORSDOF 2
ENDMDL
