MODEL 1
REMARK VINA RESULT:      -6.2      0.000      0.000
REMARK  Name = 
REMARK  20 active torsions:
REMARK  status: ('A' for Active; 'I' for Inactive)
REMARK    1  A    between atoms: C_2  and  C_4
REMARK    2  A    between atoms: C_4  and  N_5
REMARK    3  A    between atoms: N_5  and  C_6
REMARK    4  A    between atoms: N_5  and  C_17
REMARK    5  A    between atoms: C_6  and  C_7
REMARK    6  A    between atoms: C_7  and  N_8
REMARK    7  A    between atoms: N_8  and  C_9
REMARK    8  A    between atoms: N_8  and  C_13
REMARK    9  A    between atoms: C_9  and  C_10
REMARK   10  A    between atoms: C_13  and  C_14
REMARK   11  A    between atoms: C_17  and  C_18
REMARK   12  A    between atoms: C_18  and  N_19
REMARK   13  A    between atoms: N_19  and  C_20
REMARK   14  A    between atoms: N_19  and  C_24
REMARK   15  A    between atoms: C_20  and  C_21
REMARK   16  A    between atoms: C_24  and  C_25
REMARK   17  A    between atoms: C_24  and  C_34
REMARK   18  A    between atoms: C_25  and  O_26
REMARK   19  A    between atoms: O_26  and  C_27
REMARK   20  A    between atoms: C_27  and  C_28
REMARK                            x       y       z     vdW  Elec       q    Type
REMARK                         _______ _______ _______ _____ _____    ______ ____
ROOT
ATOM      1  C   UNL     1      -9.055  16.098  66.569  0.00  0.00    +0.091 C 
ENDROOT
BRANCH   1   2
ATOM      2  N   UNL     1     -10.416  15.718  66.702  0.00  0.00    -0.252 NA
BRANCH   2   3
ATOM      3  C   UNL     1     -10.274  14.561  67.770  0.00  0.00    +0.192 C 
BRANCH   3   4
ATOM      4  C   UNL     1     -10.834  15.477  68.970  0.00  0.00    +0.381 C 
ATOM      5  O   UNL     1     -11.883  16.281  68.602  0.00  0.00    -0.244 OA
ATOM      6  O   UNL     1     -10.225  15.501  70.028  0.00  0.00    -0.244 OA
ENDBRANCH   3   4
BRANCH   3   7
ATOM      7  C   UNL     1     -11.758  13.940  67.424  0.00  0.00    +0.170 C 
BRANCH   7   8
ATOM      8  O   UNL     1     -11.925  13.113  68.544  0.00  0.00    -0.347 OA
BRANCH   8   9
ATOM      9  C   UNL     1     -11.529  11.841  68.168  0.00  0.00    +0.169 C 
BRANCH   9  10
ATOM     10  C   UNL     1     -11.503  10.875  69.284  0.00  0.00    +0.007 A 
ATOM     11  C   UNL     1     -10.333  10.147  69.453  0.00  0.00    -0.002 A 
ATOM     12  C   UNL     1     -10.185   9.339  70.555  0.00  0.00    -0.000 A 
ATOM     13  C   UNL     1     -11.139   9.260  71.541  0.00  0.00    -0.000 A 
ATOM     14  C   UNL     1     -12.288  10.001  71.403  0.00  0.00    -0.000 A 
ATOM     15  C   UNL     1     -12.409  10.855  70.317  0.00  0.00    -0.002 A 
ENDBRANCH   9  10
ENDBRANCH   8   9
ENDBRANCH   7   8
ENDBRANCH   3   7
ENDBRANCH   2   3
BRANCH   2  16
ATOM     16  C   UNL     1     -10.681  14.925  65.496  0.00  0.00    +0.188 C 
BRANCH  16  17
ATOM     17  C   UNL     1     -11.509  15.645  64.520  0.00  0.00    +0.381 C 
ATOM     18  O   UNL     1     -12.610  15.074  63.880  0.00  0.00    -0.244 OA
ATOM     19  O   UNL     1     -11.306  16.860  64.292  0.00  0.00    -0.244 OA
ENDBRANCH  16  17
ENDBRANCH   2  16
ENDBRANCH   1   2
BRANCH   1  20
ATOM     20  C   UNL     1      -8.562  17.403  66.746  0.00  0.00    +0.090 C 
BRANCH  20  21
ATOM     21  N   UNL     1      -8.309  18.066  67.926  0.00  0.00    -0.261 NA
BRANCH  21  22
ATOM     22  C   UNL     1      -9.338  18.737  68.622  0.00  0.00    +0.188 C 
BRANCH  22  24
ATOM     23  O   UNL     1     -11.145  19.282  67.431  0.00  0.00    -0.244 OA
ATOM     24  C   UNL     1     -10.170  19.626  67.752  0.00  0.00    +0.381 C 
ATOM     25  O   UNL     1      -9.680  20.843  67.261  0.00  0.00    -0.244 OA
ENDBRANCH  22  24
ENDBRANCH  21  22
BRANCH  21  26
ATOM     26  C   UNL     1      -7.393  17.325  68.751  0.00  0.00    +0.090 C 
BRANCH  26  27
ATOM     27  C   UNL     1      -5.966  17.558  68.340  0.00  0.00    +0.091 C 
BRANCH  27  28
ATOM     28  N   UNL     1      -5.659  18.943  68.550  0.00  0.00    -0.252 NA
BRANCH  28  29
ATOM     29  C   UNL     1      -5.159  19.625  67.394  0.00  0.00    +0.188 C 
BRANCH  29  30
ATOM     30  C   UNL     1      -6.114  20.562  66.778  0.00  0.00    +0.381 C 
ATOM     31  O   UNL     1      -6.182  21.873  67.230  0.00  0.00    -0.244 OA
ATOM     32  O   UNL     1      -6.655  20.219  65.695  0.00  0.00    -0.244 OA
ENDBRANCH  29  30
ENDBRANCH  28  29
BRANCH  28  33
ATOM     33  C   UNL     1      -4.855  19.096  69.731  0.00  0.00    +0.188 C 
BRANCH  33  34
ATOM     34  C   UNL     1      -5.469  20.212  70.517  0.00  0.00    +0.381 C 
ATOM     35  O   UNL     1      -4.797  21.435  70.433  0.00  0.00    -0.244 OA
ATOM     36  O   UNL     1      -6.734  20.302  70.506  0.00  0.00    -0.244 OA
ENDBRANCH  33  34
ENDBRANCH  28  33
ENDBRANCH  27  28
ENDBRANCH  26  27
ENDBRANCH  21  26
ENDBRANCH  20  21
ENDBRANCH   1  20
TORSDOF 20
ENDMDL
MODEL 2
REMARK VINA RESULT:      -6.1      1.634      2.597
REMARK  Name = 
REMARK  20 active torsions:
REMARK  status: ('A' for Active; 'I' for Inactive)
REMARK    1  A    between atoms: C_2  and  C_4
REMARK    2  A    between atoms: C_4  and  N_5
REMARK    3  A    between atoms: N_5  and  C_6
REMARK    4  A    between atoms: N_5  and  C_17
REMARK    5  A    between atoms: C_6  and  C_7
REMARK    6  A    between atoms: C_7  and  N_8
REMARK    7  A    between atoms: N_8  and  C_9
REMARK    8  A    between atoms: N_8  and  C_13
REMARK    9  A    between atoms: C_9  and  C_10
REMARK   10  A    between atoms: C_13  and  C_14
REMARK   11  A    between atoms: C_17  and  C_18
REMARK   12  A    between atoms: C_18  and  N_19
REMARK   13  A    between atoms: N_19  and  C_20
REMARK   14  A    between atoms: N_19  and  C_24
REMARK   15  A    between atoms: C_20  and  C_21
REMARK   16  A    between atoms: C_24  and  C_25
REMARK   17  A    between atoms: C_24  and  C_34
REMARK   18  A    between atoms: C_25  and  O_26
REMARK   19  A    between atoms: O_26  and  C_27
REMARK   20  A    between atoms: C_27  and  C_28
REMARK                            x       y       z     vdW  Elec       q    Type
REMARK                         _______ _______ _______ _____ _____    ______ ____
ROOT
ATOM      1  C   UNL     1      -8.661  16.291  68.774  0.00  0.00    +0.091 C 
ENDROOT
BRANCH   1   2
ATOM      2  N   UNL     1      -9.809  15.770  68.121  0.00  0.00    -0.252 NA
BRANCH   2   3
ATOM      3  C   UNL     1     -10.233  14.656  69.160  0.00  0.00    +0.192 C 
BRANCH   3   4
ATOM      4  C   UNL     1     -11.295  15.619  69.895  0.00  0.00    +0.381 C 
ATOM      5  O   UNL     1     -12.011  16.406  69.029  0.00  0.00    -0.244 OA
ATOM      6  O   UNL     1     -11.286  15.688  71.114  0.00  0.00    -0.244 OA
ENDBRANCH   3   4
BRANCH   3   7
ATOM      7  C   UNL     1     -11.366  14.021  68.149  0.00  0.00    +0.170 C 
BRANCH   7   8
ATOM      8  O   UNL     1     -11.959  13.099  69.024  0.00  0.00    -0.347 OA
BRANCH   8   9
ATOM      9  C   UNL     1     -11.300  11.895  68.846  0.00  0.00    +0.169 C 
BRANCH   9  10
ATOM     10  C   UNL     1     -11.459  10.962  69.978  0.00  0.00    +0.007 A 
ATOM     11  C   UNL     1     -12.615  11.091  70.737  0.00  0.00    -0.002 A 
ATOM     12  C   UNL     1     -12.898  10.165  71.713  0.00  0.00    -0.000 A 
ATOM     13  C   UNL     1     -12.101   9.068  71.938  0.00  0.00    -0.000 A 
ATOM     14  C   UNL     1     -10.971   8.910  71.171  0.00  0.00    -0.000 A 
ATOM     15  C   UNL     1     -10.719   9.817  70.153  0.00  0.00    -0.002 A 
ENDBRANCH   9  10
ENDBRANCH   8   9
ENDBRANCH   7   8
ENDBRANCH   3   7
ENDBRANCH   2   3
BRANCH   2  16
ATOM     16  C   UNL     1      -9.256  14.929  67.053  0.00  0.00    +0.188 C 
BRANCH  16  17
ATOM     17  C   UNL     1      -9.722  15.333  65.720  0.00  0.00    +0.381 C 
ATOM     18  O   UNL     1     -10.255  14.438  64.791  0.00  0.00    -0.244 OA
ATOM     19  O   UNL     1      -9.745  16.543  65.398  0.00  0.00    -0.244 OA
ENDBRANCH  16  17
ENDBRANCH   2  16
ENDBRANCH   1   2
BRANCH   1  20
ATOM     20  C   UNL     1      -7.774  17.229  68.217  0.00  0.00    +0.090 C 
BRANCH  20  21
ATOM     21  N   UNL     1      -7.967  18.578  68.028  0.00  0.00    -0.261 NA
BRANCH  21  22
ATOM     22  C   UNL     1      -9.155  19.213  68.451  0.00  0.00    +0.188 C 
BRANCH  22  24
ATOM     23  O   UNL     1     -11.177  19.172  67.506  0.00  0.00    -0.244 OA
ATOM     24  C   UNL     1     -10.140  19.439  67.346  0.00  0.00    +0.381 C 
ATOM     25  O   UNL     1      -9.737  19.889  66.083  0.00  0.00    -0.244 OA
ENDBRANCH  22  24
ENDBRANCH  21  22
BRANCH  21  26
ATOM     26  C   UNL     1      -6.756  19.315  68.277  0.00  0.00    +0.090 C 
BRANCH  26  27
ATOM     27  C   UNL     1      -6.610  19.662  69.733  0.00  0.00    +0.091 C 
BRANCH  27  28
ATOM     28  N   UNL     1      -5.215  19.625  70.066  0.00  0.00    -0.252 NA
BRANCH  28  29
ATOM     29  C   UNL     1      -4.631  20.905  70.330  0.00  0.00    +0.188 C 
BRANCH  29  30
ATOM     30  C   UNL     1      -4.245  21.122  71.735  0.00  0.00    +0.381 C 
ATOM     31  O   UNL     1      -4.520  22.339  72.345  0.00  0.00    -0.244 OA
ATOM     32  O   UNL     1      -3.912  20.116  72.413  0.00  0.00    -0.244 OA
ENDBRANCH  29  30
ENDBRANCH  28  29
BRANCH  28  33
ATOM     33  C   UNL     1      -4.502  18.827  69.108  0.00  0.00    +0.188 C 
BRANCH  33  34
ATOM     34  C   UNL     1      -3.826  17.740  69.885  0.00  0.00    +0.381 C 
ATOM     35  O   UNL     1      -2.494  17.997  70.226  0.00  0.00    -0.244 OA
ATOM     36  O   UNL     1      -4.503  17.169  70.793  0.00  0.00    -0.244 OA
ENDBRANCH  33  34
ENDBRANCH  28  33
ENDBRANCH  27  28
ENDBRANCH  26  27
ENDBRANCH  21  26
ENDBRANCH  20  21
ENDBRANCH   1  20
TORSDOF 20
ENDMDL
MODEL 3
REMARK VINA RESULT:      -6.0      1.466      2.515
REMARK  Name = 
REMARK  20 active torsions:
REMARK  status: ('A' for Active; 'I' for Inactive)
REMARK    1  A    between atoms: C_2  and  C_4
REMARK    2  A    between atoms: C_4  and  N_5
REMARK    3  A    between atoms: N_5  and  C_6
REMARK    4  A    between atoms: N_5  and  C_17
REMARK    5  A    between atoms: C_6  and  C_7
REMARK    6  A    between atoms: C_7  and  N_8
REMARK    7  A    between atoms: N_8  and  C_9
REMARK    8  A    between atoms: N_8  and  C_13
REMARK    9  A    between atoms: C_9  and  C_10
REMARK   10  A    between atoms: C_13  and  C_14
REMARK   11  A    between atoms: C_17  and  C_18
REMARK   12  A    between atoms: C_18  and  N_19
REMARK   13  A    between atoms: N_19  and  C_20
REMARK   14  A    between atoms: N_19  and  C_24
REMARK   15  A    between atoms: C_20  and  C_21
REMARK   16  A    between atoms: C_24  and  C_25
REMARK   17  A    between atoms: C_24  and  C_34
REMARK   18  A    between atoms: C_25  and  O_26
REMARK   19  A    between atoms: O_26  and  C_27
REMARK   20  A    between atoms: C_27  and  C_28
REMARK                            x       y       z     vdW  Elec       q    Type
REMARK                         _______ _______ _______ _____ _____    ______ ____
ROOT
ATOM      1  C   UNL     1      -9.108  16.119  66.878  0.00  0.00    +0.091 C 
ENDROOT
BRANCH   1   2
ATOM      2  N   UNL     1     -10.480  15.757  66.891  0.00  0.00    -0.252 NA
BRANCH   2   3
ATOM      3  C   UNL     1     -10.464  14.663  68.032  0.00  0.00    +0.192 C 
BRANCH   3   4
ATOM      4  C   UNL     1     -11.040  15.681  69.140  0.00  0.00    +0.381 C 
ATOM      5  O   UNL     1     -10.509  15.488  70.390  0.00  0.00    -0.244 OA
ATOM      6  O   UNL     1     -11.968  16.416  68.841  0.00  0.00    -0.244 OA
ENDBRANCH   3   4
BRANCH   3   7
ATOM      7  C   UNL     1     -11.959  14.100  67.634  0.00  0.00    +0.170 C 
BRANCH   7   8
ATOM      8  O   UNL     1     -12.180  13.252  68.729  0.00  0.00    -0.347 OA
BRANCH   8   9
ATOM      9  C   UNL     1     -11.390  12.133  68.536  0.00  0.00    +0.169 C 
BRANCH   9  10
ATOM     10  C   UNL     1     -11.471  11.155  69.640  0.00  0.00    +0.007 A 
ATOM     11  C   UNL     1     -12.448  11.377  70.601  0.00  0.00    -0.002 A 
ATOM     12  C   UNL     1     -12.676  10.433  71.574  0.00  0.00    -0.000 A 
ATOM     13  C   UNL     1     -12.006   9.234  71.605  0.00  0.00    -0.000 A 
ATOM     14  C   UNL     1     -11.060   8.986  70.639  0.00  0.00    -0.000 A 
ATOM     15  C   UNL     1     -10.871   9.919  69.630  0.00  0.00    -0.002 A 
ENDBRANCH   9  10
ENDBRANCH   8   9
ENDBRANCH   7   8
ENDBRANCH   3   7
ENDBRANCH   2   3
BRANCH   2  16
ATOM     16  C   UNL     1     -10.629  14.897  65.711  0.00  0.00    +0.188 C 
BRANCH  16  17
ATOM     17  C   UNL     1     -11.489  15.497  64.682  0.00  0.00    +0.381 C 
ATOM     18  O   UNL     1     -11.280  16.773  64.158  0.00  0.00    -0.244 OA
ATOM     19  O   UNL     1     -12.409  14.827  64.158  0.00  0.00    -0.244 OA
ENDBRANCH  16  17
ENDBRANCH   2  16
ENDBRANCH   1   2
BRANCH   1  20
ATOM     20  C   UNL     1      -8.577  17.242  66.218  0.00  0.00    +0.090 C 
BRANCH  20  21
ATOM     21  N   UNL     1      -8.143  18.427  66.767  0.00  0.00    -0.261 NA
BRANCH  21  22
ATOM     22  C   UNL     1      -8.783  19.649  66.468  0.00  0.00    +0.188 C 
BRANCH  22  24
ATOM     23  O   UNL     1     -10.771  19.797  65.462  0.00  0.00    -0.244 OA
ATOM     24  C   UNL     1     -10.274  19.542  66.390  0.00  0.00    +0.381 C 
ATOM     25  O   UNL     1     -11.047  19.218  67.511  0.00  0.00    -0.244 OA
ENDBRANCH  22  24
ENDBRANCH  21  22
BRANCH  21  26
ATOM     26  C   UNL     1      -7.767  18.253  68.145  0.00  0.00    +0.090 C 
BRANCH  26  27
ATOM     27  C   UNL     1      -7.575  19.574  68.837  0.00  0.00    +0.091 C 
BRANCH  27  28
ATOM     28  N   UNL     1      -6.247  19.609  69.378  0.00  0.00    -0.252 NA
BRANCH  28  29
ATOM     29  C   UNL     1      -6.175  19.988  70.757  0.00  0.00    +0.188 C 
BRANCH  29  30
ATOM     30  C   UNL     1      -5.206  19.214  71.552  0.00  0.00    +0.381 C 
ATOM     31  O   UNL     1      -5.172  17.830  71.440  0.00  0.00    -0.244 OA
ATOM     32  O   UNL     1      -4.272  19.844  72.111  0.00  0.00    -0.244 OA
ENDBRANCH  29  30
ENDBRANCH  28  29
BRANCH  28  33
ATOM     33  C   UNL     1      -5.379  20.351  68.506  0.00  0.00    +0.188 C 
BRANCH  33  34
ATOM     34  C   UNL     1      -4.210  19.462  68.219  0.00  0.00    +0.381 C 
ATOM     35  O   UNL     1      -3.006  19.859  68.808  0.00  0.00    -0.244 OA
ATOM     36  O   UNL     1      -4.416  18.211  68.229  0.00  0.00    -0.244 OA
ENDBRANCH  33  34
ENDBRANCH  28  33
ENDBRANCH  27  28
ENDBRANCH  26  27
ENDBRANCH  21  26
ENDBRANCH  20  21
ENDBRANCH   1  20
TORSDOF 20
ENDMDL
MODEL 4
REMARK VINA RESULT:      -6.0      2.279      3.436
REMARK  Name = 
REMARK  20 active torsions:
REMARK  status: ('A' for Active; 'I' for Inactive)
REMARK    1  A    between atoms: C_2  and  C_4
REMARK    2  A    between atoms: C_4  and  N_5
REMARK    3  A    between atoms: N_5  and  C_6
REMARK    4  A    between atoms: N_5  and  C_17
REMARK    5  A    between atoms: C_6  and  C_7
REMARK    6  A    between atoms: C_7  and  N_8
REMARK    7  A    between atoms: N_8  and  C_9
REMARK    8  A    between atoms: N_8  and  C_13
REMARK    9  A    between atoms: C_9  and  C_10
REMARK   10  A    between atoms: C_13  and  C_14
REMARK   11  A    between atoms: C_17  and  C_18
REMARK   12  A    between atoms: C_18  and  N_19
REMARK   13  A    between atoms: N_19  and  C_20
REMARK   14  A    between atoms: N_19  and  C_24
REMARK   15  A    between atoms: C_20  and  C_21
REMARK   16  A    between atoms: C_24  and  C_25
REMARK   17  A    between atoms: C_24  and  C_34
REMARK   18  A    between atoms: C_25  and  O_26
REMARK   19  A    between atoms: O_26  and  C_27
REMARK   20  A    between atoms: C_27  and  C_28
REMARK                            x       y       z     vdW  Elec       q    Type
REMARK                         _______ _______ _______ _____ _____    ______ ____
ROOT
ATOM      1  C   UNL     1      -9.245  15.227  66.158  0.00  0.00    +0.091 C 
ENDROOT
BRANCH   1   2
ATOM      2  N   UNL     1      -9.914  13.976  66.160  0.00  0.00    -0.252 NA
BRANCH   2   3
ATOM      3  C   UNL     1     -11.315  14.415  66.747  0.00  0.00    +0.192 C 
BRANCH   3   4
ATOM      4  C   UNL     1     -12.138  13.494  65.713  0.00  0.00    +0.381 C 
ATOM      5  O   UNL     1     -12.789  14.210  64.740  0.00  0.00    -0.244 OA
ATOM      6  O   UNL     1     -12.242  12.299  65.940  0.00  0.00    -0.244 OA
ENDBRANCH   3   4
BRANCH   3   7
ATOM      7  C   UNL     1     -11.290  13.252  67.911  0.00  0.00    +0.170 C 
BRANCH   7   8
ATOM      8  O   UNL     1     -12.269  13.771  68.772  0.00  0.00    -0.347 OA
BRANCH   8   9
ATOM      9  C   UNL     1     -11.707  14.867  69.404  0.00  0.00    +0.169 C 
BRANCH   9  10
ATOM     10  C   UNL     1     -12.218  15.085  70.772  0.00  0.00    +0.007 A 
ATOM     11  C   UNL     1     -12.981  14.065  71.324  0.00  0.00    -0.002 A 
ATOM     12  C   UNL     1     -13.365  14.137  72.642  0.00  0.00    -0.000 A 
ATOM     13  C   UNL     1     -12.975  15.166  73.466  0.00  0.00    -0.000 A 
ATOM     14  C   UNL     1     -12.192  16.166  72.940  0.00  0.00    -0.000 A 
ATOM     15  C   UNL     1     -11.763  16.061  71.625  0.00  0.00    -0.002 A 
ENDBRANCH   9  10
ENDBRANCH   8   9
ENDBRANCH   7   8
ENDBRANCH   3   7
ENDBRANCH   2   3
BRANCH   2  16
ATOM     16  C   UNL     1      -9.354  13.279  67.324  0.00  0.00    +0.188 C 
BRANCH  16  17
ATOM     17  C   UNL     1      -8.269  12.358  66.960  0.00  0.00    +0.381 C 
ATOM     18  O   UNL     1      -8.477  11.164  66.269  0.00  0.00    -0.244 OA
ATOM     19  O   UNL     1      -7.075  12.668  67.182  0.00  0.00    -0.244 OA
ENDBRANCH  16  17
ENDBRANCH   2  16
ENDBRANCH   1   2
BRANCH   1  20
ATOM     20  C   UNL     1      -8.886  15.951  67.310  0.00  0.00    +0.090 C 
BRANCH  20  21
ATOM     21  N   UNL     1      -9.058  17.293  67.562  0.00  0.00    -0.261 NA
BRANCH  21  22
ATOM     22  C   UNL     1     -10.338  17.887  67.514  0.00  0.00    +0.188 C 
BRANCH  22  24
ATOM     23  O   UNL     1     -10.662  18.817  65.511  0.00  0.00    -0.244 OA
ATOM     24  C   UNL     1     -10.434  19.027  66.548  0.00  0.00    +0.381 C 
ATOM     25  O   UNL     1     -10.138  20.341  66.931  0.00  0.00    -0.244 OA
ENDBRANCH  22  24
ENDBRANCH  21  22
BRANCH  21  26
ATOM     26  C   UNL     1      -8.220  17.728  68.648  0.00  0.00    +0.090 C 
BRANCH  26  27
ATOM     27  C   UNL     1      -6.763  17.516  68.342  0.00  0.00    +0.091 C 
BRANCH  27  28
ATOM     28  N   UNL     1      -6.085  18.770  68.493  0.00  0.00    -0.252 NA
BRANCH  28  29
ATOM     29  C   UNL     1      -5.619  19.349  67.269  0.00  0.00    +0.188 C 
BRANCH  29  30
ATOM     30  C   UNL     1      -6.539  20.330  66.668  0.00  0.00    +0.381 C 
ATOM     31  O   UNL     1      -6.571  21.630  67.154  0.00  0.00    -0.244 OA
ATOM     32  O   UNL     1      -7.079  20.031  65.572  0.00  0.00    -0.244 OA
ENDBRANCH  29  30
ENDBRANCH  28  29
BRANCH  28  33
ATOM     33  C   UNL     1      -5.091  18.671  69.526  0.00  0.00    +0.188 C 
BRANCH  33  34
ATOM     34  C   UNL     1      -5.630  19.423  70.703  0.00  0.00    +0.381 C 
ATOM     35  O   UNL     1      -5.131  19.015  71.944  0.00  0.00    -0.244 OA
ATOM     36  O   UNL     1      -5.771  20.676  70.576  0.00  0.00    -0.244 OA
ENDBRANCH  33  34
ENDBRANCH  28  33
ENDBRANCH  27  28
ENDBRANCH  26  27
ENDBRANCH  21  26
ENDBRANCH  20  21
ENDBRANCH   1  20
TORSDOF 20
ENDMDL
MODEL 5
REMARK VINA RESULT:      -6.0      2.482      3.942
REMARK  Name = 
REMARK  20 active torsions:
REMARK  status: ('A' for Active; 'I' for Inactive)
REMARK    1  A    between atoms: C_2  and  C_4
REMARK    2  A    between atoms: C_4  and  N_5
REMARK    3  A    between atoms: N_5  and  C_6
REMARK    4  A    between atoms: N_5  and  C_17
REMARK    5  A    between atoms: C_6  and  C_7
REMARK    6  A    between atoms: C_7  and  N_8
REMARK    7  A    between atoms: N_8  and  C_9
REMARK    8  A    between atoms: N_8  and  C_13
REMARK    9  A    between atoms: C_9  and  C_10
REMARK   10  A    between atoms: C_13  and  C_14
REMARK   11  A    between atoms: C_17  and  C_18
REMARK   12  A    between atoms: C_18  and  N_19
REMARK   13  A    between atoms: N_19  and  C_20
REMARK   14  A    between atoms: N_19  and  C_24
REMARK   15  A    between atoms: C_20  and  C_21
REMARK   16  A    between atoms: C_24  and  C_25
REMARK   17  A    between atoms: C_24  and  C_34
REMARK   18  A    between atoms: C_25  and  O_26
REMARK   19  A    between atoms: O_26  and  C_27
REMARK   20  A    between atoms: C_27  and  C_28
REMARK                            x       y       z     vdW  Elec       q    Type
REMARK                         _______ _______ _______ _____ _____    ______ ____
ROOT
ATOM      1  C   UNL     1      -7.876  16.495  66.558  0.00  0.00    +0.091 C 
ENDROOT
BRANCH   1   2
ATOM      2  N   UNL     1      -8.737  15.376  66.422  0.00  0.00    -0.252 NA
BRANCH   2   3
ATOM      3  C   UNL     1     -10.132  16.069  66.694  0.00  0.00    +0.192 C 
BRANCH   3   4
ATOM      4  C   UNL     1     -10.661  15.796  65.198  0.00  0.00    +0.381 C 
ATOM      5  O   UNL     1     -11.143  16.919  64.574  0.00  0.00    -0.244 OA
ATOM      6  O   UNL     1     -10.731  14.646  64.796  0.00  0.00    -0.244 OA
ENDBRANCH   3   4
BRANCH   3   7
ATOM      7  C   UNL     1     -10.802  14.687  67.285  0.00  0.00    +0.170 C 
BRANCH   7   8
ATOM      8  O   UNL     1     -11.690  15.246  68.217  0.00  0.00    -0.347 OA
BRANCH   8   9
ATOM      9  C   UNL     1     -11.958  14.266  69.156  0.00  0.00    +0.169 C 
BRANCH   9  10
ATOM     10  C   UNL     1     -12.332  14.801  70.479  0.00  0.00    +0.007 A 
ATOM     11  C   UNL     1     -13.200  14.031  71.243  0.00  0.00    -0.002 A 
ATOM     12  C   UNL     1     -13.475  14.395  72.539  0.00  0.00    -0.000 A 
ATOM     13  C   UNL     1     -12.878  15.477  73.141  0.00  0.00    -0.000 A 
ATOM     14  C   UNL     1     -11.992  16.229  72.408  0.00  0.00    -0.000 A 
ATOM     15  C   UNL     1     -11.676  15.826  71.118  0.00  0.00    -0.002 A 
ENDBRANCH   9  10
ENDBRANCH   8   9
ENDBRANCH   7   8
ENDBRANCH   3   7
ENDBRANCH   2   3
BRANCH   2  16
ATOM     16  C   UNL     1      -8.564  14.643  67.682  0.00  0.00    +0.188 C 
BRANCH  16  17
ATOM     17  C   UNL     1      -7.633  13.514  67.552  0.00  0.00    +0.381 C 
ATOM     18  O   UNL     1      -8.021  12.181  67.697  0.00  0.00    -0.244 OA
ATOM     19  O   UNL     1      -6.446  13.709  67.205  0.00  0.00    -0.244 OA
ENDBRANCH  16  17
ENDBRANCH   2  16
ENDBRANCH   1   2
BRANCH   1  20
ATOM     20  C   UNL     1      -8.252  17.832  66.336  0.00  0.00    +0.090 C 
BRANCH  20  21
ATOM     21  N   UNL     1      -7.803  18.962  66.982  0.00  0.00    -0.261 NA
BRANCH  21  22
ATOM     22  C   UNL     1      -8.693  19.808  67.678  0.00  0.00    +0.188 C 
BRANCH  22  24
ATOM     23  O   UNL     1     -10.878  19.366  67.793  0.00  0.00    -0.244 OA
ATOM     24  C   UNL     1     -10.096  19.761  67.157  0.00  0.00    +0.381 C 
ATOM     25  O   UNL     1     -10.403  20.119  65.839  0.00  0.00    -0.244 OA
ENDBRANCH  22  24
ENDBRANCH  21  22
BRANCH  21  26
ATOM     26  C   UNL     1      -6.547  18.719  67.640  0.00  0.00    +0.090 C 
BRANCH  26  27
ATOM     27  C   UNL     1      -6.174  19.852  68.555  0.00  0.00    +0.091 C 
BRANCH  27  28
ATOM     28  N   UNL     1      -5.599  19.296  69.746  0.00  0.00    -0.252 NA
BRANCH  28  29
ATOM     29  C   UNL     1      -5.888  17.910  69.958  0.00  0.00    +0.188 C 
BRANCH  29  30
ATOM     30  C   UNL     1      -4.738  17.108  70.408  0.00  0.00    +0.381 C 
ATOM     31  O   UNL     1      -3.516  17.233  69.758  0.00  0.00    -0.244 OA
ATOM     32  O   UNL     1      -4.826  16.529  71.520  0.00  0.00    -0.244 OA
ENDBRANCH  29  30
ENDBRANCH  28  29
BRANCH  28  33
ATOM     33  C   UNL     1      -5.879  20.146  70.871  0.00  0.00    +0.188 C 
BRANCH  33  34
ATOM     34  C   UNL     1      -4.555  20.620  71.382  0.00  0.00    +0.381 C 
ATOM     35  O   UNL     1      -4.420  22.008  71.479  0.00  0.00    -0.244 OA
ATOM     36  O   UNL     1      -4.037  19.970  72.340  0.00  0.00    -0.244 OA
ENDBRANCH  33  34
ENDBRANCH  28  33
ENDBRANCH  27  28
ENDBRANCH  26  27
ENDBRANCH  21  26
ENDBRANCH  20  21
ENDBRANCH   1  20
TORSDOF 20
ENDMDL
MODEL 6
REMARK VINA RESULT:      -5.9      2.435      4.088
REMARK  Name = 
REMARK  20 active torsions:
REMARK  status: ('A' for Active; 'I' for Inactive)
REMARK    1  A    between atoms: C_2  and  C_4
REMARK    2  A    between atoms: C_4  and  N_5
REMARK    3  A    between atoms: N_5  and  C_6
REMARK    4  A    between atoms: N_5  and  C_17
REMARK    5  A    between atoms: C_6  and  C_7
REMARK    6  A    between atoms: C_7  and  N_8
REMARK    7  A    between atoms: N_8  and  C_9
REMARK    8  A    between atoms: N_8  and  C_13
REMARK    9  A    between atoms: C_9  and  C_10
REMARK   10  A    between atoms: C_13  and  C_14
REMARK   11  A    between atoms: C_17  and  C_18
REMARK   12  A    between atoms: C_18  and  N_19
REMARK   13  A    between atoms: N_19  and  C_20
REMARK   14  A    between atoms: N_19  and  C_24
REMARK   15  A    between atoms: C_20  and  C_21
REMARK   16  A    between atoms: C_24  and  C_25
REMARK   17  A    between atoms: C_24  and  C_34
REMARK   18  A    between atoms: C_25  and  O_26
REMARK   19  A    between atoms: O_26  and  C_27
REMARK   20  A    between atoms: C_27  and  C_28
REMARK                            x       y       z     vdW  Elec       q    Type
REMARK                         _______ _______ _______ _____ _____    ______ ____
ROOT
ATOM      1  C   UNL     1      -7.837  16.434  66.679  0.00  0.00    +0.091 C 
ENDROOT
BRANCH   1   2
ATOM      2  N   UNL     1      -8.597  15.244  66.540  0.00  0.00    -0.252 NA
BRANCH   2   3
ATOM      3  C   UNL     1     -10.050  15.818  66.785  0.00  0.00    +0.192 C 
BRANCH   3   4
ATOM      4  C   UNL     1     -10.481  15.633  65.245  0.00  0.00    +0.381 C 
ATOM      5  O   UNL     1     -10.880  16.800  64.643  0.00  0.00    -0.244 OA
ATOM      6  O   UNL     1     -10.560  14.505  64.785  0.00  0.00    -0.244 OA
ENDBRANCH   3   4
BRANCH   3   7
ATOM      7  C   UNL     1     -10.649  14.350  67.228  0.00  0.00    +0.170 C 
BRANCH   7   8
ATOM      8  O   UNL     1     -11.872  14.761  67.779  0.00  0.00    -0.347 OA
BRANCH   8   9
ATOM      9  C   UNL     1     -11.577  15.679  68.771  0.00  0.00    +0.169 C 
BRANCH   9  10
ATOM     10  C   UNL     1     -11.940  15.221  70.127  0.00  0.00    +0.007 A 
ATOM     11  C   UNL     1     -11.759  16.129  71.162  0.00  0.00    -0.002 A 
ATOM     12  C   UNL     1     -12.210  15.824  72.425  0.00  0.00    -0.000 A 
ATOM     13  C   UNL     1     -12.891  14.662  72.700  0.00  0.00    -0.000 A 
ATOM     14  C   UNL     1     -13.106  13.770  71.678  0.00  0.00    -0.000 A 
ATOM     15  C   UNL     1     -12.697  14.106  70.396  0.00  0.00    -0.002 A 
ENDBRANCH   9  10
ENDBRANCH   8   9
ENDBRANCH   7   8
ENDBRANCH   3   7
ENDBRANCH   2   3
BRANCH   2  16
ATOM     16  C   UNL     1      -8.381  14.537  67.808  0.00  0.00    +0.188 C 
BRANCH  16  17
ATOM     17  C   UNL     1      -7.369  13.479  67.697  0.00  0.00    +0.381 C 
ATOM     18  O   UNL     1      -6.056  13.714  67.290  0.00  0.00    -0.244 OA
ATOM     19  O   UNL     1      -7.633  12.311  68.065  0.00  0.00    -0.244 OA
ENDBRANCH  16  17
ENDBRANCH   2  16
ENDBRANCH   1   2
BRANCH   1  20
ATOM     20  C   UNL     1      -7.711  17.175  67.868  0.00  0.00    +0.090 C 
BRANCH  20  21
ATOM     21  N   UNL     1      -7.980  18.509  68.074  0.00  0.00    -0.261 NA
BRANCH  21  22
ATOM     22  C   UNL     1      -9.261  18.942  68.479  0.00  0.00    +0.188 C 
BRANCH  22  24
ATOM     23  O   UNL     1     -11.218  19.280  67.459  0.00  0.00    -0.244 OA
ATOM     24  C   UNL     1     -10.144  19.349  67.340  0.00  0.00    +0.381 C 
ATOM     25  O   UNL     1      -9.617  19.718  66.097  0.00  0.00    -0.244 OA
ENDBRANCH  22  24
ENDBRANCH  21  22
BRANCH  21  26
ATOM     26  C   UNL     1      -6.877  19.166  68.723  0.00  0.00    +0.090 C 
BRANCH  26  27
ATOM     27  C   UNL     1      -6.002  18.186  69.454  0.00  0.00    +0.091 C 
BRANCH  27  28
ATOM     28  N   UNL     1      -5.024  18.926  70.198  0.00  0.00    -0.252 NA
BRANCH  28  29
ATOM     29  C   UNL     1      -5.533  20.086  70.865  0.00  0.00    +0.188 C 
BRANCH  29  30
ATOM     30  C   UNL     1      -4.542  20.801  71.688  0.00  0.00    +0.381 C 
ATOM     31  O   UNL     1      -3.681  20.083  72.508  0.00  0.00    -0.244 OA
ATOM     32  O   UNL     1      -4.336  22.015  71.432  0.00  0.00    -0.244 OA
ENDBRANCH  29  30
ENDBRANCH  28  29
BRANCH  28  33
ATOM     33  C   UNL     1      -3.863  19.163  69.386  0.00  0.00    +0.188 C 
BRANCH  33  34
ATOM     34  C   UNL     1      -3.148  17.852  69.280  0.00  0.00    +0.381 C 
ATOM     35  O   UNL     1      -2.654  17.549  68.007  0.00  0.00    -0.244 OA
ATOM     36  O   UNL     1      -2.378  17.531  70.235  0.00  0.00    -0.244 OA
ENDBRANCH  33  34
ENDBRANCH  28  33
ENDBRANCH  27  28
ENDBRANCH  26  27
ENDBRANCH  21  26
ENDBRANCH  20  21
ENDBRANCH   1  20
TORSDOF 20
ENDMDL
MODEL 7
REMARK VINA RESULT:      -5.9      1.405      2.062
REMARK  Name = 
REMARK  20 active torsions:
REMARK  status: ('A' for Active; 'I' for Inactive)
REMARK    1  A    between atoms: C_2  and  C_4
REMARK    2  A    between atoms: C_4  and  N_5
REMARK    3  A    between atoms: N_5  and  C_6
REMARK    4  A    between atoms: N_5  and  C_17
REMARK    5  A    between atoms: C_6  and  C_7
REMARK    6  A    between atoms: C_7  and  N_8
REMARK    7  A    between atoms: N_8  and  C_9
REMARK    8  A    between atoms: N_8  and  C_13
REMARK    9  A    between atoms: C_9  and  C_10
REMARK   10  A    between atoms: C_13  and  C_14
REMARK   11  A    between atoms: C_17  and  C_18
REMARK   12  A    between atoms: C_18  and  N_19
REMARK   13  A    between atoms: N_19  and  C_20
REMARK   14  A    between atoms: N_19  and  C_24
REMARK   15  A    between atoms: C_20  and  C_21
REMARK   16  A    between atoms: C_24  and  C_25
REMARK   17  A    between atoms: C_24  and  C_34
REMARK   18  A    between atoms: C_25  and  O_26
REMARK   19  A    between atoms: O_26  and  C_27
REMARK   20  A    between atoms: C_27  and  C_28
REMARK                            x       y       z     vdW  Elec       q    Type
REMARK                         _______ _______ _______ _____ _____    ______ ____
ROOT
ATOM      1  C   UNL     1      -9.098  15.880  66.536  0.00  0.00    +0.091 C 
ENDROOT
BRANCH   1   2
ATOM      2  N   UNL     1     -10.482  15.631  66.724  0.00  0.00    -0.252 NA
BRANCH   2   3
ATOM      3  C   UNL     1     -10.413  14.579  67.903  0.00  0.00    +0.192 C 
BRANCH   3   4
ATOM      4  C   UNL     1     -10.904  15.647  69.004  0.00  0.00    +0.381 C 
ATOM      5  O   UNL     1     -10.343  15.454  70.242  0.00  0.00    -0.244 OA
ATOM      6  O   UNL     1     -11.803  16.421  68.717  0.00  0.00    -0.244 OA
ENDBRANCH   3   4
BRANCH   3   7
ATOM      7  C   UNL     1     -11.938  14.029  67.618  0.00  0.00    +0.170 C 
BRANCH   7   8
ATOM      8  O   UNL     1     -12.075  13.165  68.714  0.00  0.00    -0.347 OA
BRANCH   8   9
ATOM      9  C   UNL     1     -11.202  12.111  68.506  0.00  0.00    +0.169 C 
BRANCH   9  10
ATOM     10  C   UNL     1     -11.335  11.029  69.502  0.00  0.00    +0.007 A 
ATOM     11  C   UNL     1     -10.233  10.202  69.676  0.00  0.00    -0.002 A 
ATOM     12  C   UNL     1     -10.232   9.269  70.686  0.00  0.00    -0.000 A 
ATOM     13  C   UNL     1     -11.270   9.153  71.579  0.00  0.00    -0.000 A 
ATOM     14  C   UNL     1     -12.353   9.988  71.439  0.00  0.00    -0.000 A 
ATOM     15  C   UNL     1     -12.325  10.963  70.452  0.00  0.00    -0.002 A 
ENDBRANCH   9  10
ENDBRANCH   8   9
ENDBRANCH   7   8
ENDBRANCH   3   7
ENDBRANCH   2   3
BRANCH   2  16
ATOM     16  C   UNL     1     -10.835  14.745  65.608  0.00  0.00    +0.188 C 
BRANCH  16  17
ATOM     17  C   UNL     1     -11.633  15.426  64.580  0.00  0.00    +0.381 C 
ATOM     18  O   UNL     1     -11.363  16.720  64.132  0.00  0.00    -0.244 OA
ATOM     19  O   UNL     1     -12.552  14.816  63.986  0.00  0.00    -0.244 OA
ENDBRANCH  16  17
ENDBRANCH   2  16
ENDBRANCH   1   2
BRANCH   1  20
ATOM     20  C   UNL     1      -8.549  17.110  66.129  0.00  0.00    +0.090 C 
BRANCH  20  21
ATOM     21  N   UNL     1      -8.154  18.169  66.914  0.00  0.00    -0.261 NA
BRANCH  21  22
ATOM     22  C   UNL     1      -8.685  19.463  66.717  0.00  0.00    +0.188 C 
BRANCH  22  24
ATOM     23  O   UNL     1     -10.583  19.750  65.578  0.00  0.00    -0.244 OA
ATOM     24  C   UNL     1     -10.172  19.481  66.543  0.00  0.00    +0.381 C 
ATOM     25  O   UNL     1     -11.040  19.257  67.618  0.00  0.00    -0.244 OA
ENDBRANCH  22  24
ENDBRANCH  21  22
BRANCH  21  26
ATOM     26  C   UNL     1      -8.008  17.770  68.289  0.00  0.00    +0.090 C 
BRANCH  26  27
ATOM     27  C   UNL     1      -6.949  18.575  68.989  0.00  0.00    +0.091 C 
BRANCH  27  28
ATOM     28  N   UNL     1      -5.685  18.283  68.377  0.00  0.00    -0.252 NA
BRANCH  28  29
ATOM     29  C   UNL     1      -5.164  16.983  68.676  0.00  0.00    +0.188 C 
BRANCH  29  30
ATOM     30  C   UNL     1      -5.024  16.098  67.506  0.00  0.00    +0.381 C 
ATOM     31  O   UNL     1      -5.818  14.964  67.402  0.00  0.00    -0.244 OA
ATOM     32  O   UNL     1      -4.375  16.531  66.519  0.00  0.00    -0.244 OA
ENDBRANCH  29  30
ENDBRANCH  28  29
BRANCH  28  33
ATOM     33  C   UNL     1      -4.767  19.364  68.605  0.00  0.00    +0.188 C 
BRANCH  33  34
ATOM     34  C   UNL     1      -5.602  20.582  68.849  0.00  0.00    +0.381 C 
ATOM     35  O   UNL     1      -5.353  21.237  70.059  0.00  0.00    -0.244 OA
ATOM     36  O   UNL     1      -5.805  21.353  67.863  0.00  0.00    -0.244 OA
ENDBRANCH  33  34
ENDBRANCH  28  33
ENDBRANCH  27  28
ENDBRANCH  26  27
ENDBRANCH  21  26
ENDBRANCH  20  21
ENDBRANCH   1  20
TORSDOF 20
ENDMDL
MODEL 8
REMARK VINA RESULT:      -5.9      2.509      4.017
REMARK  Name = 
REMARK  20 active torsions:
REMARK  status: ('A' for Active; 'I' for Inactive)
REMARK    1  A    between atoms: C_2  and  C_4
REMARK    2  A    between atoms: C_4  and  N_5
REMARK    3  A    between atoms: N_5  and  C_6
REMARK    4  A    between atoms: N_5  and  C_17
REMARK    5  A    between atoms: C_6  and  C_7
REMARK    6  A    between atoms: C_7  and  N_8
REMARK    7  A    between atoms: N_8  and  C_9
REMARK    8  A    between atoms: N_8  and  C_13
REMARK    9  A    between atoms: C_9  and  C_10
REMARK   10  A    between atoms: C_13  and  C_14
REMARK   11  A    between atoms: C_17  and  C_18
REMARK   12  A    between atoms: C_18  and  N_19
REMARK   13  A    between atoms: N_19  and  C_20
REMARK   14  A    between atoms: N_19  and  C_24
REMARK   15  A    between atoms: C_20  and  C_21
REMARK   16  A    between atoms: C_24  and  C_25
REMARK   17  A    between atoms: C_24  and  C_34
REMARK   18  A    between atoms: C_25  and  O_26
REMARK   19  A    between atoms: O_26  and  C_27
REMARK   20  A    between atoms: C_27  and  C_28
REMARK                            x       y       z     vdW  Elec       q    Type
REMARK                         _______ _______ _______ _____ _____    ______ ____
ROOT
ATOM      1  C   UNL     1      -9.558  15.122  65.666  0.00  0.00    +0.091 C 
ENDROOT
BRANCH   1   2
ATOM      2  N   UNL     1      -9.881  13.909  66.327  0.00  0.00    -0.252 NA
BRANCH   2   3
ATOM      3  C   UNL     1     -11.251  14.321  67.001  0.00  0.00    +0.192 C 
BRANCH   3   4
ATOM      4  C   UNL     1     -12.120  13.395  66.010  0.00  0.00    +0.381 C 
ATOM      5  O   UNL     1     -13.061  14.091  65.294  0.00  0.00    -0.244 OA
ATOM      6  O   UNL     1     -11.990  12.182  66.070  0.00  0.00    -0.244 OA
ENDBRANCH   3   4
BRANCH   3   7
ATOM      7  C   UNL     1     -11.138  13.150  68.152  0.00  0.00    +0.170 C 
BRANCH   7   8
ATOM      8  O   UNL     1     -12.226  13.518  68.957  0.00  0.00    -0.347 OA
BRANCH   8   9
ATOM      9  C   UNL     1     -11.994  14.816  69.376  0.00  0.00    +0.169 C 
BRANCH   9  10
ATOM     10  C   UNL     1     -12.366  15.058  70.785  0.00  0.00    +0.007 A 
ATOM     11  C   UNL     1     -13.063  14.045  71.430  0.00  0.00    -0.002 A 
ATOM     12  C   UNL     1     -13.313  14.140  72.778  0.00  0.00    -0.000 A 
ATOM     13  C   UNL     1     -12.850  15.186  73.539  0.00  0.00    -0.000 A 
ATOM     14  C   UNL     1     -12.130  16.179  72.920  0.00  0.00    -0.000 A 
ATOM     15  C   UNL     1     -11.834  16.052  71.571  0.00  0.00    -0.002 A 
ENDBRANCH   9  10
ENDBRANCH   8   9
ENDBRANCH   7   8
ENDBRANCH   3   7
ENDBRANCH   2   3
BRANCH   2  16
ATOM     16  C   UNL     1      -9.006  13.905  67.505  0.00  0.00    +0.188 C 
BRANCH  16  17
ATOM     17  C   UNL     1      -8.019  12.818  67.469  0.00  0.00    +0.381 C 
ATOM     18  O   UNL     1      -6.955  12.719  68.367  0.00  0.00    -0.244 OA
ATOM     19  O   UNL     1      -8.156  11.865  66.668  0.00  0.00    -0.244 OA
ENDBRANCH  16  17
ENDBRANCH   2  16
ENDBRANCH   1   2
BRANCH   1  20
ATOM     20  C   UNL     1      -8.771  16.152  66.213  0.00  0.00    +0.090 C 
BRANCH  20  21
ATOM     21  N   UNL     1      -8.901  17.511  66.033  0.00  0.00    -0.261 NA
BRANCH  21  22
ATOM     22  C   UNL     1     -10.155  18.149  66.160  0.00  0.00    +0.188 C 
BRANCH  22  24
ATOM     23  O   UNL     1     -10.797  19.586  67.742  0.00  0.00    -0.244 OA
ATOM     24  C   UNL     1     -10.474  18.569  67.561  0.00  0.00    +0.381 C 
ATOM     25  O   UNL     1     -10.270  17.713  68.650  0.00  0.00    -0.244 OA
ENDBRANCH  22  24
ENDBRANCH  21  22
BRANCH  21  26
ATOM     26  C   UNL     1      -7.792  18.219  66.614  0.00  0.00    +0.090 C 
BRANCH  26  27
ATOM     27  C   UNL     1      -6.838  17.283  67.304  0.00  0.00    +0.091 C 
BRANCH  27  28
ATOM     28  N   UNL     1      -6.326  17.943  68.470  0.00  0.00    -0.252 NA
BRANCH  28  29
ATOM     29  C   UNL     1      -6.267  17.123  69.642  0.00  0.00    +0.188 C 
BRANCH  29  30
ATOM     30  C   UNL     1      -5.091  17.362  70.496  0.00  0.00    +0.381 C 
ATOM     31  O   UNL     1      -5.208  18.176  71.616  0.00  0.00    -0.244 OA
ATOM     32  O   UNL     1      -4.087  16.623  70.332  0.00  0.00    -0.244 OA
ENDBRANCH  29  30
ENDBRANCH  28  29
BRANCH  28  33
ATOM     33  C   UNL     1      -6.990  19.204  68.654  0.00  0.00    +0.188 C 
BRANCH  33  34
ATOM     34  C   UNL     1      -5.914  20.243  68.709  0.00  0.00    +0.381 C 
ATOM     35  O   UNL     1      -5.820  20.934  69.921  0.00  0.00    -0.244 OA
ATOM     36  O   UNL     1      -4.800  19.952  68.178  0.00  0.00    -0.244 OA
ENDBRANCH  33  34
ENDBRANCH  28  33
ENDBRANCH  27  28
ENDBRANCH  26  27
ENDBRANCH  21  26
ENDBRANCH  20  21
ENDBRANCH   1  20
TORSDOF 20
ENDMDL
MODEL 9
REMARK VINA RESULT:      -5.9      3.160      6.158
REMARK  Name = 
REMARK  20 active torsions:
REMARK  status: ('A' for Active; 'I' for Inactive)
REMARK    1  A    between atoms: C_2  and  C_4
REMARK    2  A    between atoms: C_4  and  N_5
REMARK    3  A    between atoms: N_5  and  C_6
REMARK    4  A    between atoms: N_5  and  C_17
REMARK    5  A    between atoms: C_6  and  C_7
REMARK    6  A    between atoms: C_7  and  N_8
REMARK    7  A    between atoms: N_8  and  C_9
REMARK    8  A    between atoms: N_8  and  C_13
REMARK    9  A    between atoms: C_9  and  C_10
REMARK   10  A    between atoms: C_13  and  C_14
REMARK   11  A    between atoms: C_17  and  C_18
REMARK   12  A    between atoms: C_18  and  N_19
REMARK   13  A    between atoms: N_19  and  C_20
REMARK   14  A    between atoms: N_19  and  C_24
REMARK   15  A    between atoms: C_20  and  C_21
REMARK   16  A    between atoms: C_24  and  C_25
REMARK   17  A    between atoms: C_24  and  C_34
REMARK   18  A    between atoms: C_25  and  O_26
REMARK   19  A    between atoms: O_26  and  C_27
REMARK   20  A    between atoms: C_27  and  C_28
REMARK                            x       y       z     vdW  Elec       q    Type
REMARK                         _______ _______ _______ _____ _____    ______ ____
ROOT
ATOM      1  C   UNL     1      -9.483  14.389  67.325  0.00  0.00    +0.091 C 
ENDROOT
BRANCH   1   2
ATOM      2  N   UNL     1      -9.619  13.018  66.984  0.00  0.00    -0.252 NA
BRANCH   2   3
ATOM      3  C   UNL     1     -11.143  12.797  67.344  0.00  0.00    +0.192 C 
BRANCH   3   4
ATOM      4  C   UNL     1     -11.566  12.571  65.807  0.00  0.00    +0.381 C 
ATOM      5  O   UNL     1     -10.501  12.341  64.973  0.00  0.00    -0.244 OA
ATOM      6  O   UNL     1     -12.728  12.757  65.480  0.00  0.00    -0.244 OA
ENDBRANCH   3   4
BRANCH   3   7
ATOM      7  C   UNL     1     -10.934  11.188  67.622  0.00  0.00    +0.170 C 
BRANCH   7   8
ATOM      8  O   UNL     1     -12.105  10.930  68.351  0.00  0.00    -0.347 OA
BRANCH   8   9
ATOM      9  C   UNL     1     -11.907  11.437  69.623  0.00  0.00    +0.169 C 
BRANCH   9  10
ATOM     10  C   UNL     1     -11.870  10.401  70.673  0.00  0.00    +0.007 A 
ATOM     11  C   UNL     1     -13.088  10.027  71.226  0.00  0.00    -0.002 A 
ATOM     12  C   UNL     1     -13.144   8.968  72.101  0.00  0.00    -0.000 A 
ATOM     13  C   UNL     1     -12.038   8.217  72.417  0.00  0.00    -0.000 A 
ATOM     14  C   UNL     1     -10.832   8.555  71.851  0.00  0.00    -0.000 A 
ATOM     15  C   UNL     1     -10.790   9.589  70.928  0.00  0.00    -0.002 A 
ENDBRANCH   9  10
ENDBRANCH   8   9
ENDBRANCH   7   8
ENDBRANCH   3   7
ENDBRANCH   2   3
BRANCH   2  16
ATOM     16  C   UNL     1      -8.985  12.312  68.104  0.00  0.00    +0.188 C 
BRANCH  16  17
ATOM     17  C   UNL     1      -7.598  11.926  67.812  0.00  0.00    +0.381 C 
ATOM     18  O   UNL     1      -6.641  11.699  68.803  0.00  0.00    -0.244 OA
ATOM     19  O   UNL     1      -7.241  11.690  66.635  0.00  0.00    -0.244 OA
ENDBRANCH  16  17
ENDBRANCH   2  16
ENDBRANCH   1   2
BRANCH   1  20
ATOM     20  C   UNL     1      -9.780  14.939  68.585  0.00  0.00    +0.090 C 
BRANCH  20  21
ATOM     21  N   UNL     1     -10.211  16.213  68.879  0.00  0.00    -0.261 NA
BRANCH  21  22
ATOM     22  C   UNL     1     -10.218  17.227  67.896  0.00  0.00    +0.188 C 
BRANCH  22  24
ATOM     23  O   UNL     1      -8.500  18.395  68.712  0.00  0.00    -0.244 OA
ATOM     24  C   UNL     1      -9.504  18.474  68.317  0.00  0.00    +0.381 C 
ATOM     25  O   UNL     1     -10.138  19.723  68.307  0.00  0.00    -0.244 OA
ENDBRANCH  22  24
ENDBRANCH  21  22
BRANCH  21  26
ATOM     26  C   UNL     1     -11.364  16.184  69.738  0.00  0.00    +0.090 C 
BRANCH  26  27
ATOM     27  C   UNL     1     -11.118  15.353  70.967  0.00  0.00    +0.091 C 
BRANCH  27  28
ATOM     28  N   UNL     1     -12.319  15.344  71.751  0.00  0.00    -0.252 NA
BRANCH  28  29
ATOM     29  C   UNL     1     -13.528  15.247  70.990  0.00  0.00    +0.188 C 
BRANCH  29  30
ATOM     30  C   UNL     1     -14.638  14.577  71.690  0.00  0.00    +0.381 C 
ATOM     31  O   UNL     1     -15.949  14.908  71.376  0.00  0.00    -0.244 OA
ATOM     32  O   UNL     1     -14.370  13.549  72.363  0.00  0.00    -0.244 OA
ENDBRANCH  29  30
ENDBRANCH  28  29
BRANCH  28  33
ATOM     33  C   UNL     1     -12.294  16.421  72.703  0.00  0.00    +0.188 C 
BRANCH  33  34
ATOM     34  C   UNL     1     -12.500  15.799  74.048  0.00  0.00    +0.381 C 
ATOM     35  O   UNL     1     -11.951  14.521  74.200  0.00  0.00    -0.244 OA
ATOM     36  O   UNL     1     -12.374  16.552  75.061  0.00  0.00    -0.244 OA
ENDBRANCH  33  34
ENDBRANCH  28  33
ENDBRANCH  27  28
ENDBRANCH  26  27
ENDBRANCH  21  26
ENDBRANCH  20  21
ENDBRANCH   1  20
TORSDOF 20
ENDMDL
