MODEL 1
REMARK VINA RESULT:      -5.0      0.000      0.000
REMARK  Name = 
REMARK  5 active torsions:
REMARK  status: ('A' for Active; 'I' for Inactive)
REMARK    1  A    between atoms: C_2  and  N_3
REMARK    2  A    between atoms: N_3  and  C_4
REMARK    3  A    between atoms: N_3  and  C_6
REMARK    4  A    between atoms: C_6  and  C_8
REMARK    5  A    between atoms: C_8  and  C_10
REMARK                            x       y       z     vdW  Elec       q    Type
REMARK                         _______ _______ _______ _____ _____    ______ ____
ROOT
ATOM      1  C   UNL     1     -12.006  15.478  69.273  0.00  0.00    +0.187 C 
ATOM      2  O   UNL     1     -11.756  16.590  68.730  0.00  0.00    -0.290 OA
ENDROOT
BRANCH   1   3
ATOM      3  C   UNL     1     -12.511  15.509  70.634  0.00  0.00    +0.036 A 
ATOM      4  C   UNL     1     -11.714  16.090  71.613  0.00  0.00    +0.003 A 
ATOM      5  C   UNL     1     -12.038  16.100  72.941  0.00  0.00    +0.000 A 
ATOM      6  C   UNL     1     -13.200  15.467  73.326  0.00  0.00    +0.000 A 
ATOM      7  C   UNL     1     -14.029  14.941  72.343  0.00  0.00    +0.000 A 
ATOM      8  C   UNL     1     -13.788  15.160  70.992  0.00  0.00    +0.003 A 
ENDBRANCH   1   3
BRANCH   1   9
ATOM      9  C   UNL     1     -10.763  14.459  69.105  0.00  0.00    +0.120 C 
ATOM     10  C   UNL     1     -11.750  13.149  69.243  0.00  0.00    +0.026 C 
BRANCH   9  11
ATOM     11  N   UNL     1     -10.814  14.422  67.536  0.00  0.00    -0.268 NA
BRANCH  11  13
ATOM     12  C   UNL     1      -8.939  14.435  66.991  0.00  0.00    +0.019 C 
ATOM     13  C   UNL     1      -9.509  13.922  67.113  0.00  0.00    +0.072 C 
ENDBRANCH  11  13
BRANCH  11  14
ATOM     14  C   UNL     1     -11.797  13.527  67.097  0.00  0.00    +0.072 C 
ATOM     15  C   UNL     1     -12.435  13.933  65.822  0.00  0.00    +0.019 C 
ENDBRANCH  11  14
ENDBRANCH   9  11
ENDBRANCH   1   9
TORSDOF 5
ENDMDL
MODEL 2
REMARK VINA RESULT:      -4.8      4.210      5.963
REMARK  Name = 
REMARK  5 active torsions:
REMARK  status: ('A' for Active; 'I' for Inactive)
REMARK    1  A    between atoms: C_2  and  N_3
REMARK    2  A    between atoms: N_3  and  C_4
REMARK    3  A    between atoms: N_3  and  C_6
REMARK    4  A    between atoms: C_6  and  C_8
REMARK    5  A    between atoms: C_8  and  C_10
REMARK                            x       y       z     vdW  Elec       q    Type
REMARK                         _______ _______ _______ _____ _____    ______ ____
ROOT
ATOM      1  C   UNL     1     -10.425  16.242  65.284  0.00  0.00    +0.187 C 
ATOM      2  O   UNL     1     -11.138  16.898  64.474  0.00  0.00    -0.290 OA
ENDROOT
BRANCH   1   3
ATOM      3  C   UNL     1     -10.793  14.856  65.512  0.00  0.00    +0.036 A 
ATOM      4  C   UNL     1     -11.704  14.580  66.524  0.00  0.00    +0.003 A 
ATOM      5  C   UNL     1     -12.061  13.314  66.894  0.00  0.00    +0.000 A 
ATOM      6  C   UNL     1     -11.455  12.258  66.247  0.00  0.00    +0.000 A 
ATOM      7  C   UNL     1     -10.592  12.531  65.193  0.00  0.00    +0.000 A 
ATOM      8  C   UNL     1     -10.439  13.817  64.690  0.00  0.00    +0.003 A 
ENDBRANCH   1   3
BRANCH   1   9
ATOM      9  C   UNL     1     -10.219  17.055  66.666  0.00  0.00    +0.120 C 
ATOM     10  C   UNL     1      -8.777  16.312  66.948  0.00  0.00    +0.026 C 
BRANCH   9  11
ATOM     11  N   UNL     1      -9.529  18.299  66.002  0.00  0.00    -0.268 NA
BRANCH  11  13
ATOM     12  C   UNL     1     -10.708  19.402  67.101  0.00  0.00    +0.019 C 
ATOM     13  C   UNL     1     -10.308  19.456  66.438  0.00  0.00    +0.072 C 
ENDBRANCH  11  13
BRANCH  11  14
ATOM     14  C   UNL     1      -8.218  18.444  66.470  0.00  0.00    +0.072 C 
ATOM     15  C   UNL     1      -7.448  19.486  65.752  0.00  0.00    +0.019 C 
ENDBRANCH  11  14
ENDBRANCH   9  11
ENDBRANCH   1   9
TORSDOF 5
ENDMDL
MODEL 3
REMARK VINA RESULT:      -4.6      1.628      2.352
REMARK  Name = 
REMARK  5 active torsions:
REMARK  status: ('A' for Active; 'I' for Inactive)
REMARK    1  A    between atoms: C_2  and  N_3
REMARK    2  A    between atoms: N_3  and  C_4
REMARK    3  A    between atoms: N_3  and  C_6
REMARK    4  A    between atoms: C_6  and  C_8
REMARK    5  A    between atoms: C_8  and  C_10
REMARK                            x       y       z     vdW  Elec       q    Type
REMARK                         _______ _______ _______ _____ _____    ______ ____
ROOT
ATOM      1  C   UNL     1     -11.384  14.107  69.382  0.00  0.00    +0.187 C 
ATOM      2  O   UNL     1     -12.189  14.088  68.410  0.00  0.00    -0.290 OA
ENDROOT
BRANCH   1   3
ATOM      3  C   UNL     1     -11.926  14.474  70.678  0.00  0.00    +0.036 A 
ATOM      4  C   UNL     1     -12.817  13.598  71.285  0.00  0.00    +0.003 A 
ATOM      5  C   UNL     1     -13.461  13.870  72.460  0.00  0.00    +0.000 A 
ATOM      6  C   UNL     1     -13.237  15.096  73.049  0.00  0.00    +0.000 A 
ATOM      7  C   UNL     1     -12.300  15.947  72.478  0.00  0.00    +0.000 A 
ATOM      8  C   UNL     1     -11.491  15.540  71.425  0.00  0.00    +0.003 A 
ENDBRANCH   1   3
BRANCH   1   9
ATOM      9  C   UNL     1     -10.052  14.946  69.016  0.00  0.00    +0.120 C 
ATOM     10  C   UNL     1      -9.442  13.696  68.137  0.00  0.00    +0.026 C 
BRANCH   9  11
ATOM     11  N   UNL     1     -10.660  15.639  67.744  0.00  0.00    -0.268 NA
BRANCH  11  13
ATOM     12  C   UNL     1     -10.127  17.369  68.476  0.00  0.00    +0.019 C 
ATOM     13  C   UNL     1     -10.707  17.064  68.060  0.00  0.00    +0.072 C 
ENDBRANCH  11  13
BRANCH  11  14
ATOM     14  C   UNL     1      -9.823  15.456  66.638  0.00  0.00    +0.072 C 
ATOM     15  C   UNL     1     -10.522  15.605  65.339  0.00  0.00    +0.019 C 
ENDBRANCH  11  14
ENDBRANCH   9  11
ENDBRANCH   1   9
TORSDOF 5
ENDMDL
MODEL 4
REMARK VINA RESULT:      -4.6      3.594      5.934
REMARK  Name = 
REMARK  5 active torsions:
REMARK  status: ('A' for Active; 'I' for Inactive)
REMARK    1  A    between atoms: C_2  and  N_3
REMARK    2  A    between atoms: N_3  and  C_4
REMARK    3  A    between atoms: N_3  and  C_6
REMARK    4  A    between atoms: C_6  and  C_8
REMARK    5  A    between atoms: C_8  and  C_10
REMARK                            x       y       z     vdW  Elec       q    Type
REMARK                         _______ _______ _______ _____ _____    ______ ____
ROOT
ATOM      1  C   UNL     1      -9.692  16.292  66.616  0.00  0.00    +0.187 C 
ATOM      2  O   UNL     1      -8.797  16.632  65.794  0.00  0.00    -0.290 OA
ENDROOT
BRANCH   1   3
ATOM      3  C   UNL     1     -10.580  15.216  66.216  0.00  0.00    +0.036 A 
ATOM      4  C   UNL     1     -11.188  15.301  64.969  0.00  0.00    +0.003 A 
ATOM      5  C   UNL     1     -12.109  14.399  64.516  0.00  0.00    +0.000 A 
ATOM      6  C   UNL     1     -12.477  13.374  65.360  0.00  0.00    +0.000 A 
ATOM      7  C   UNL     1     -11.826  13.250  66.581  0.00  0.00    +0.000 A 
ATOM      8  C   UNL     1     -10.729  14.039  66.904  0.00  0.00    +0.003 A 
ENDBRANCH   1   3
BRANCH   1   9
ATOM      9  C   UNL     1     -10.500  17.581  67.161  0.00  0.00    +0.120 C 
ATOM     10  C   UNL     1     -10.225  17.158  68.727  0.00  0.00    +0.026 C 
BRANCH   9  11
ATOM     11  N   UNL     1      -9.266  18.552  67.130  0.00  0.00    -0.268 NA
BRANCH  11  13
ATOM     12  C   UNL     1     -10.366  19.814  66.125  0.00  0.00    +0.019 C 
ATOM     13  C   UNL     1      -9.783  19.826  66.637  0.00  0.00    +0.072 C 
ENDBRANCH  11  13
BRANCH  11  14
ATOM     14  C   UNL     1      -8.762  18.746  68.421  0.00  0.00    +0.072 C 
ATOM     15  C   UNL     1      -7.439  19.416  68.442  0.00  0.00    +0.019 C 
ENDBRANCH  11  14
ENDBRANCH   9  11
ENDBRANCH   1   9
TORSDOF 5
ENDMDL
MODEL 5
REMARK VINA RESULT:      -4.6      3.314      4.689
REMARK  Name = 
REMARK  5 active torsions:
REMARK  status: ('A' for Active; 'I' for Inactive)
REMARK    1  A    between atoms: C_2  and  N_3
REMARK    2  A    between atoms: N_3  and  C_4
REMARK    3  A    between atoms: N_3  and  C_6
REMARK    4  A    between atoms: C_6  and  C_8
REMARK    5  A    between atoms: C_8  and  C_10
REMARK                            x       y       z     vdW  Elec       q    Type
REMARK                         _______ _______ _______ _____ _____    ______ ____
ROOT
ATOM      1  C   UNL     1     -10.707  16.204  67.733  0.00  0.00    +0.187 C 
ATOM      2  O   UNL     1     -11.745  15.964  68.410  0.00  0.00    -0.290 OA
ENDROOT
BRANCH   1   3
ATOM      3  C   UNL     1     -10.379  17.599  67.501  0.00  0.00    +0.036 A 
ATOM      4  C   UNL     1      -9.852  18.331  68.559  0.00  0.00    +0.003 A 
ATOM      5  C   UNL     1      -9.587  19.670  68.492  0.00  0.00    +0.000 A 
ATOM      6  C   UNL     1      -9.894  20.330  67.321  0.00  0.00    +0.000 A 
ATOM      7  C   UNL     1     -10.361  19.590  66.243  0.00  0.00    +0.000 A 
ATOM      8  C   UNL     1     -10.390  18.201  66.269  0.00  0.00    +0.003 A 
ENDBRANCH   1   3
BRANCH   1   9
ATOM      9  C   UNL     1     -10.690  15.336  66.370  0.00  0.00    +0.120 C 
ATOM     10  C   UNL     1      -9.185  14.755  66.695  0.00  0.00    +0.026 C 
BRANCH   9  11
ATOM     11  N   UNL     1     -11.390  14.075  66.990  0.00  0.00    -0.268 NA
BRANCH  11  13
ATOM     12  C   UNL     1     -12.676  13.908  65.529  0.00  0.00    +0.019 C 
ATOM     13  C   UNL     1     -12.149  13.472  65.896  0.00  0.00    +0.072 C 
ENDBRANCH  11  13
BRANCH  11  14
ATOM     14  C   UNL     1     -10.436  13.151  67.432  0.00  0.00    +0.072 C 
ATOM     15  C   UNL     1     -10.978  12.159  68.391  0.00  0.00    +0.019 C 
ENDBRANCH  11  14
ENDBRANCH   9  11
ENDBRANCH   1   9
TORSDOF 5
ENDMDL
MODEL 6
REMARK VINA RESULT:      -4.6      1.247      2.162
REMARK  Name = 
REMARK  5 active torsions:
REMARK  status: ('A' for Active; 'I' for Inactive)
REMARK    1  A    between atoms: C_2  and  N_3
REMARK    2  A    between atoms: N_3  and  C_4
REMARK    3  A    between atoms: N_3  and  C_6
REMARK    4  A    between atoms: C_6  and  C_8
REMARK    5  A    between atoms: C_8  and  C_10
REMARK                            x       y       z     vdW  Elec       q    Type
REMARK                         _______ _______ _______ _____ _____    ______ ____
ROOT
ATOM      1  C   UNL     1     -11.646  14.174  69.723  0.00  0.00    +0.187 C 
ATOM      2  O   UNL     1     -11.733  12.919  69.620  0.00  0.00    -0.290 OA
ENDROOT
BRANCH   1   3
ATOM      3  C   UNL     1     -12.308  14.789  70.859  0.00  0.00    +0.036 A 
ATOM      4  C   UNL     1     -11.517  15.249  71.905  0.00  0.00    +0.003 A 
ATOM      5  C   UNL     1     -12.024  15.764  73.065  0.00  0.00    +0.000 A 
ATOM      6  C   UNL     1     -13.394  15.792  73.213  0.00  0.00    +0.000 A 
ATOM      7  C   UNL     1     -14.188  15.392  72.145  0.00  0.00    +0.000 A 
ATOM      8  C   UNL     1     -13.643  15.104  70.900  0.00  0.00    +0.003 A 
ENDBRANCH   1   3
BRANCH   1   9
ATOM      9  C   UNL     1     -12.026  14.899  68.329  0.00  0.00    +0.120 C 
ATOM     10  C   UNL     1     -10.853  16.035  68.539  0.00  0.00    +0.026 C 
BRANCH   9  11
ATOM     11  N   UNL     1     -11.096  14.000  67.438  0.00  0.00    -0.268 NA
BRANCH  11  13
ATOM     12  C   UNL     1     -12.277  13.545  65.950  0.00  0.00    +0.019 C 
ATOM     13  C   UNL     1     -11.688  14.028  66.103  0.00  0.00    +0.072 C 
ENDBRANCH  11  13
BRANCH  11  14
ATOM     14  C   UNL     1      -9.809  14.544  67.366  0.00  0.00    +0.072 C 
ATOM     15  C   UNL     1      -8.747  13.524  67.197  0.00  0.00    +0.019 C 
ENDBRANCH  11  14
ENDBRANCH   9  11
ENDBRANCH   1   9
TORSDOF 5
ENDMDL
MODEL 7
REMARK VINA RESULT:      -4.5      1.353      2.236
REMARK  Name = 
REMARK  5 active torsions:
REMARK  status: ('A' for Active; 'I' for Inactive)
REMARK    1  A    between atoms: C_2  and  N_3
REMARK    2  A    between atoms: N_3  and  C_4
REMARK    3  A    between atoms: N_3  and  C_6
REMARK    4  A    between atoms: C_6  and  C_8
REMARK    5  A    between atoms: C_8  and  C_10
REMARK                            x       y       z     vdW  Elec       q    Type
REMARK                         _______ _______ _______ _____ _____    ______ ____
ROOT
ATOM      1  C   UNL     1     -11.402  14.928  69.442  0.00  0.00    +0.187 C 
ATOM      2  O   UNL     1     -10.141  14.903  69.413  0.00  0.00    -0.290 OA
ENDROOT
BRANCH   1   3
ATOM      3  C   UNL     1     -12.031  14.947  70.750  0.00  0.00    +0.036 A 
ATOM      4  C   UNL     1     -11.760  16.021  71.589  0.00  0.00    +0.003 A 
ATOM      5  C   UNL     1     -12.219  16.109  72.874  0.00  0.00    +0.000 A 
ATOM      6  C   UNL     1     -12.959  15.057  73.368  0.00  0.00    +0.000 A 
ATOM      7  C   UNL     1     -13.285  14.012  72.512  0.00  0.00    +0.000 A 
ATOM      8  C   UNL     1     -13.008  14.071  71.152  0.00  0.00    +0.003 A 
ENDBRANCH   1   3
BRANCH   1   9
ATOM      9  C   UNL     1     -12.028  13.790  68.479  0.00  0.00    +0.120 C 
ATOM     10  C   UNL     1     -11.596  14.622  67.126  0.00  0.00    +0.026 C 
BRANCH   9  11
ATOM     11  N   UNL     1     -10.731  12.905  68.436  0.00  0.00    -0.268 NA
BRANCH  11  13
ATOM     12  C   UNL     1     -11.795  11.334  68.899  0.00  0.00    +0.019 C 
ATOM     13  C   UNL     1     -11.100  11.639  69.064  0.00  0.00    +0.072 C 
ENDBRANCH  11  13
BRANCH  11  14
ATOM     14  C   UNL     1     -10.353  12.651  67.113  0.00  0.00    +0.072 C 
ATOM     15  C   UNL     1      -8.908  12.354  66.960  0.00  0.00    +0.019 C 
ENDBRANCH  11  14
ENDBRANCH   9  11
ENDBRANCH   1   9
TORSDOF 5
ENDMDL
MODEL 8
REMARK VINA RESULT:      -4.4      3.058      5.876
REMARK  Name = 
REMARK  5 active torsions:
REMARK  status: ('A' for Active; 'I' for Inactive)
REMARK    1  A    between atoms: C_2  and  N_3
REMARK    2  A    between atoms: N_3  and  C_4
REMARK    3  A    between atoms: N_3  and  C_6
REMARK    4  A    between atoms: C_6  and  C_8
REMARK    5  A    between atoms: C_8  and  C_10
REMARK                            x       y       z     vdW  Elec       q    Type
REMARK                         _______ _______ _______ _____ _____    ______ ____
ROOT
ATOM      1  C   UNL     1      -9.994  15.878  65.570  0.00  0.00    +0.187 C 
ATOM      2  O   UNL     1     -10.538  16.983  65.293  0.00  0.00    -0.290 OA
ENDROOT
BRANCH   1   3
ATOM      3  C   UNL     1     -10.794  14.682  65.376  0.00  0.00    +0.036 A 
ATOM      4  C   UNL     1     -10.256  13.654  64.611  0.00  0.00    +0.003 A 
ATOM      5  C   UNL     1     -10.943  12.519  64.284  0.00  0.00    +0.000 A 
ATOM      6  C   UNL     1     -12.251  12.411  64.708  0.00  0.00    +0.000 A 
ATOM      7  C   UNL     1     -12.770  13.408  65.524  0.00  0.00    +0.000 A 
ATOM      8  C   UNL     1     -11.970  14.423  66.034  0.00  0.00    +0.003 A 
ENDBRANCH   1   3
BRANCH   1   9
ATOM      9  C   UNL     1      -9.302  15.921  67.030  0.00  0.00    +0.120 C 
ATOM     10  C   UNL     1      -8.057  16.841  66.471  0.00  0.00    +0.026 C 
BRANCH   9  11
ATOM     11  N   UNL     1     -10.100  17.177  67.533  0.00  0.00    -0.268 NA
BRANCH  11  13
ATOM     12  C   UNL     1     -10.577  16.153  69.126  0.00  0.00    +0.019 C 
ATOM     13  C   UNL     1     -10.878  16.712  68.679  0.00  0.00    +0.072 C 
ENDBRANCH  11  13
BRANCH  11  14
ATOM     14  C   UNL     1      -9.221  18.176  67.968  0.00  0.00    +0.072 C 
ATOM     15  C   UNL     1      -9.843  19.519  68.032  0.00  0.00    +0.019 C 
ENDBRANCH  11  14
ENDBRANCH   9  11
ENDBRANCH   1   9
TORSDOF 5
ENDMDL
MODEL 9
REMARK VINA RESULT:      -4.4      1.387      2.125
REMARK  Name = 
REMARK  5 active torsions:
REMARK  status: ('A' for Active; 'I' for Inactive)
REMARK    1  A    between atoms: C_2  and  N_3
REMARK    2  A    between atoms: N_3  and  C_4
REMARK    3  A    between atoms: N_3  and  C_6
REMARK    4  A    between atoms: C_6  and  C_8
REMARK    5  A    between atoms: C_8  and  C_10
REMARK                            x       y       z     vdW  Elec       q    Type
REMARK                         _______ _______ _______ _____ _____    ______ ____
ROOT
ATOM      1  C   UNL     1     -11.174  14.805  69.391  0.00  0.00    +0.187 C 
ATOM      2  O   UNL     1     -10.063  15.272  69.766  0.00  0.00    -0.290 OA
ENDROOT
BRANCH   1   3
ATOM      3  C   UNL     1     -12.183  14.604  70.416  0.00  0.00    +0.036 A 
ATOM      4  C   UNL     1     -12.354  13.320  70.920  0.00  0.00    +0.003 A 
ATOM      5  C   UNL     1     -13.327  12.986  71.819  0.00  0.00    +0.000 A 
ATOM      6  C   UNL     1     -14.205  13.972  72.216  0.00  0.00    +0.000 A 
ATOM      7  C   UNL     1     -13.997  15.269  71.762  0.00  0.00    +0.000 A 
ATOM      8  C   UNL     1     -12.860  15.617  71.045  0.00  0.00    +0.003 A 
ENDBRANCH   1   3
BRANCH   1   9
ATOM      9  C   UNL     1     -10.972  13.496  68.466  0.00  0.00    +0.120 C 
ATOM     10  C   UNL     1     -11.972  14.097  67.305  0.00  0.00    +0.026 C 
BRANCH   9  11
ATOM     11  N   UNL     1      -9.687  14.028  67.737  0.00  0.00    -0.268 NA
BRANCH  11  13
ATOM     12  C   UNL     1      -8.346  12.648  68.070  0.00  0.00    +0.019 C 
ATOM     13  C   UNL     1      -8.849  12.852  67.515  0.00  0.00    +0.072 C 
ENDBRANCH  11  13
BRANCH  11  14
ATOM     14  C   UNL     1     -10.020  14.578  66.494  0.00  0.00    +0.072 C 
ATOM     15  C   UNL     1      -9.116  15.677  66.076  0.00  0.00    +0.019 C 
ENDBRANCH  11  14
ENDBRANCH   9  11
ENDBRANCH   1   9
TORSDOF 5
ENDMDL
