MODEL 1
REMARK VINA RESULT:      -6.6      0.000      0.000
REMARK  Name = 
REMARK  5 active torsions:
REMARK  status: ('A' for Active; 'I' for Inactive)
REMARK    1  A    between atoms: C_2  and  C_4
REMARK    2  A    between atoms: C_4  and  C_5
REMARK    3  A    between atoms: C_5  and  C_6
REMARK    4  A    between atoms: C_8  and  C_9
REMARK    5  A    between atoms: C_15  and  C_16
REMARK                            x       y       z     vdW  Elec       q    Type
REMARK                         _______ _______ _______ _____ _____    ______ ____
ROOT
ATOM      1  C   UNL     1     -11.981  14.970  69.830  0.00  0.00    +0.206 A 
ATOM      2  O   UNL     1     -11.936  15.250  68.559  0.00  0.00    -0.438 OA
ATOM      3  C   UNL     1     -11.515  14.210  67.858  0.00  0.00    +0.164 A 
ATOM      4  C   UNL     1     -11.578  13.125  68.723  0.00  0.00    +0.118 A 
ATOM      5  N   UNL     1     -12.016  13.621  69.907  0.00  0.00    -0.212 NA
ENDROOT
BRANCH   3   6
ATOM      6  C   UNL     1     -11.603  14.120  66.393  0.00  0.00    +0.036 A 
ATOM      7  C   UNL     1     -12.651  13.408  65.822  0.00  0.00    +0.003 A 
ATOM      8  C   UNL     1     -12.522  12.772  64.594  0.00  0.00    +0.000 A 
ATOM      9  C   UNL     1     -11.246  12.483  64.125  0.00  0.00    +0.000 A 
ATOM     10  C   UNL     1     -10.252  13.366  64.523  0.00  0.00    +0.000 A 
ATOM     11  C   UNL     1     -10.457  14.202  65.612  0.00  0.00    +0.003 A 
ENDBRANCH   3   6
BRANCH   4  12
ATOM     12  C   UNL     1     -10.755  11.927  68.500  0.00  0.00    +0.021 A 
ATOM     13  C   UNL     1     -11.277  10.773  67.927  0.00  0.00    +0.002 A 
ATOM     14  C   UNL     1     -10.640  10.133  66.872  0.00  0.00    +0.000 A 
ATOM     15  C   UNL     1      -9.295  10.389  66.642  0.00  0.00    +0.000 A 
ATOM     16  C   UNL     1      -8.661  11.266  67.480  0.00  0.00    +0.000 A 
ATOM     17  C   UNL     1      -9.409  12.152  68.244  0.00  0.00    +0.002 A 
ENDBRANCH   4  12
BRANCH   1  18
ATOM     18  C   UNL     1     -12.075  15.954  70.953  0.00  0.00    +0.097 C 
BRANCH  18  19
ATOM     19  C   UNL     1     -12.029  15.168  72.233  0.00  0.00    +0.124 C 
BRANCH  19  21
ATOM     20  O   UNL     1     -12.872  16.282  74.104  0.00  0.00    -0.246 OA
ATOM     21  C   UNL     1     -13.169  15.605  73.076  0.00  0.00    +0.365 C 
ATOM     22  O   UNL     1     -14.371  15.955  72.462  0.00  0.00    -0.246 OA
ENDBRANCH  19  21
ENDBRANCH  18  19
ENDBRANCH   1  18
TORSDOF 5
ENDMDL
MODEL 2
REMARK VINA RESULT:      -6.5      0.877      3.191
REMARK  Name = 
REMARK  5 active torsions:
REMARK  status: ('A' for Active; 'I' for Inactive)
REMARK    1  A    between atoms: C_2  and  C_4
REMARK    2  A    between atoms: C_4  and  C_5
REMARK    3  A    between atoms: C_5  and  C_6
REMARK    4  A    between atoms: C_8  and  C_9
REMARK    5  A    between atoms: C_15  and  C_16
REMARK                            x       y       z     vdW  Elec       q    Type
REMARK                         _______ _______ _______ _____ _____    ______ ____
ROOT
ATOM      1  C   UNL     1     -12.189  14.941  69.919  0.00  0.00    +0.206 A 
ATOM      2  O   UNL     1     -11.738  13.720  69.954  0.00  0.00    -0.438 OA
ATOM      3  C   UNL     1     -11.405  13.301  68.743  0.00  0.00    +0.164 A 
ATOM      4  C   UNL     1     -11.380  14.440  67.948  0.00  0.00    +0.118 A 
ATOM      5  N   UNL     1     -11.734  15.467  68.760  0.00  0.00    -0.212 NA
ENDROOT
BRANCH   3   6
ATOM      6  C   UNL     1     -10.630  12.080  68.484  0.00  0.00    +0.036 A 
ATOM      7  C   UNL     1      -9.281  12.190  68.171  0.00  0.00    +0.003 A 
ATOM      8  C   UNL     1      -8.636  11.260  67.364  0.00  0.00    +0.000 A 
ATOM      9  C   UNL     1      -9.404  10.460  66.528  0.00  0.00    +0.000 A 
ATOM     10  C   UNL     1     -10.679  10.166  66.992  0.00  0.00    +0.000 A 
ATOM     11  C   UNL     1     -11.254  10.941  67.989  0.00  0.00    +0.003 A 
ENDBRANCH   3   6
BRANCH   4  12
ATOM     12  C   UNL     1     -11.542  14.351  66.490  0.00  0.00    +0.021 A 
ATOM     13  C   UNL     1     -10.456  14.415  65.624  0.00  0.00    +0.002 A 
ATOM     14  C   UNL     1     -10.275  13.479  64.614  0.00  0.00    +0.000 A 
ATOM     15  C   UNL     1     -11.359  12.719  64.198  0.00  0.00    +0.000 A 
ATOM     16  C   UNL     1     -12.563  12.938  64.809  0.00  0.00    +0.000 A 
ATOM     17  C   UNL     1     -12.604  13.578  66.041  0.00  0.00    +0.002 A 
ENDBRANCH   4  12
BRANCH   1  18
ATOM     18  C   UNL     1     -12.964  15.632  70.996  0.00  0.00    +0.097 C 
BRANCH  18  19
ATOM     19  C   UNL     1     -11.985  16.015  72.069  0.00  0.00    +0.124 C 
BRANCH  19  21
ATOM     20  O   UNL     1     -12.696  16.220  74.283  0.00  0.00    -0.246 OA
ATOM     21  C   UNL     1     -12.445  15.410  73.342  0.00  0.00    +0.365 C 
ATOM     22  O   UNL     1     -13.259  14.279  73.301  0.00  0.00    -0.246 OA
ENDBRANCH  19  21
ENDBRANCH  18  19
ENDBRANCH   1  18
TORSDOF 5
ENDMDL
MODEL 3
REMARK VINA RESULT:      -6.4      4.323      7.185
REMARK  Name = 
REMARK  5 active torsions:
REMARK  status: ('A' for Active; 'I' for Inactive)
REMARK    1  A    between atoms: C_2  and  C_4
REMARK    2  A    between atoms: C_4  and  C_5
REMARK    3  A    between atoms: C_5  and  C_6
REMARK    4  A    between atoms: C_8  and  C_9
REMARK    5  A    between atoms: C_15  and  C_16
REMARK                            x       y       z     vdW  Elec       q    Type
REMARK                         _______ _______ _______ _____ _____    ______ ____
ROOT
ATOM      1  C   UNL     1     -10.055  14.142  66.529  0.00  0.00    +0.206 A 
ATOM      2  O   UNL     1      -8.833  14.566  66.378  0.00  0.00    -0.438 OA
ATOM      3  C   UNL     1      -8.730  15.845  66.698  0.00  0.00    +0.164 A 
ATOM      4  C   UNL     1      -9.907  16.160  67.365  0.00  0.00    +0.118 A 
ATOM      5  N   UNL     1     -10.647  15.023  67.366  0.00  0.00    -0.212 NA
ENDROOT
BRANCH   3   6
ATOM      6  C   UNL     1      -7.449  16.542  66.883  0.00  0.00    +0.036 A 
ATOM      7  C   UNL     1      -6.947  16.702  68.169  0.00  0.00    +0.003 A 
ATOM      8  C   UNL     1      -6.144  17.782  68.514  0.00  0.00    +0.000 A 
ATOM      9  C   UNL     1      -6.179  18.918  67.715  0.00  0.00    +0.000 A 
ATOM     10  C   UNL     1      -6.447  18.693  66.372  0.00  0.00    +0.000 A 
ATOM     11  C   UNL     1      -7.029  17.500  65.968  0.00  0.00    +0.003 A 
ENDBRANCH   3   6
BRANCH   4  12
ATOM     12  C   UNL     1     -10.389  17.546  67.441  0.00  0.00    +0.021 A 
ATOM     13  C   UNL     1     -10.154  18.347  68.552  0.00  0.00    +0.002 A 
ATOM     14  C   UNL     1      -9.644  19.633  68.427  0.00  0.00    +0.000 A 
ATOM     15  C   UNL     1      -9.740  20.280  67.203  0.00  0.00    +0.000 A 
ATOM     16  C   UNL     1     -10.343  19.609  66.174  0.00  0.00    +0.000 A 
ATOM     17  C   UNL     1     -10.474  18.228  66.234  0.00  0.00    +0.002 A 
ENDBRANCH   4  12
BRANCH   1  18
ATOM     18  C   UNL     1     -10.636  12.884  65.964  0.00  0.00    +0.097 C 
BRANCH  18  19
ATOM     19  C   UNL     1     -10.748  13.078  64.479  0.00  0.00    +0.124 C 
BRANCH  19  21
ATOM     20  O   UNL     1     -13.014  12.581  64.742  0.00  0.00    -0.246 OA
ATOM     21  C   UNL     1     -12.175  13.330  64.159  0.00  0.00    +0.365 C 
ATOM     22  O   UNL     1     -12.600  14.639  63.940  0.00  0.00    -0.246 OA
ENDBRANCH  19  21
ENDBRANCH  18  19
ENDBRANCH   1  18
TORSDOF 5
ENDMDL
MODEL 4
REMARK VINA RESULT:      -6.4      2.938      6.384
REMARK  Name = 
REMARK  5 active torsions:
REMARK  status: ('A' for Active; 'I' for Inactive)
REMARK    1  A    between atoms: C_2  and  C_4
REMARK    2  A    between atoms: C_4  and  C_5
REMARK    3  A    between atoms: C_5  and  C_6
REMARK    4  A    between atoms: C_8  and  C_9
REMARK    5  A    between atoms: C_15  and  C_16
REMARK                            x       y       z     vdW  Elec       q    Type
REMARK                         _______ _______ _______ _____ _____    ______ ____
ROOT
ATOM      1  C   UNL     1     -11.745  13.895  67.429  0.00  0.00    +0.206 A 
ATOM      2  O   UNL     1     -11.124  15.021  67.220  0.00  0.00    -0.438 OA
ATOM      3  C   UNL     1     -11.235  15.826  68.263  0.00  0.00    +0.164 A 
ATOM      4  C   UNL     1     -11.714  15.033  69.299  0.00  0.00    +0.118 A 
ATOM      5  N   UNL     1     -11.879  13.795  68.770  0.00  0.00    -0.212 NA
ENDROOT
BRANCH   3   6
ATOM      6  C   UNL     1     -10.439  17.048  68.442  0.00  0.00    +0.036 A 
ATOM      7  C   UNL     1     -10.749  18.172  67.686  0.00  0.00    +0.003 A 
ATOM      8  C   UNL     1      -9.783  19.105  67.327  0.00  0.00    +0.000 A 
ATOM      9  C   UNL     1      -8.449  18.722  67.353  0.00  0.00    +0.000 A 
ATOM     10  C   UNL     1      -8.123  17.759  68.298  0.00  0.00    +0.000 A 
ATOM     11  C   UNL     1      -9.117  16.974  68.863  0.00  0.00    +0.003 A 
ENDBRANCH   3   6
BRANCH   4  12
ATOM     12  C   UNL     1     -12.424  15.624  70.442  0.00  0.00    +0.021 A 
ATOM     13  C   UNL     1     -13.686  15.189  70.829  0.00  0.00    +0.002 A 
ATOM     14  C   UNL     1     -13.973  14.872  72.150  0.00  0.00    +0.000 A 
ATOM     15  C   UNL     1     -13.148  15.360  73.154  0.00  0.00    +0.000 A 
ATOM     16  C   UNL     1     -12.086  16.139  72.783  0.00  0.00    +0.000 A 
ATOM     17  C   UNL     1     -11.627  16.100  71.474  0.00  0.00    +0.002 A 
ENDBRANCH   4  12
BRANCH   1  18
ATOM     18  C   UNL     1     -12.131  12.887  66.392  0.00  0.00    +0.097 C 
BRANCH  18  19
ATOM     19  C   UNL     1     -11.219  13.092  65.216  0.00  0.00    +0.124 C 
BRANCH  19  21
ATOM     20  O   UNL     1     -12.781  12.547  63.568  0.00  0.00    -0.246 OA
ATOM     21  C   UNL     1     -12.057  13.468  64.051  0.00  0.00    +0.365 C 
ATOM     22  O   UNL     1     -12.609  14.747  63.997  0.00  0.00    -0.246 OA
ENDBRANCH  19  21
ENDBRANCH  18  19
ENDBRANCH   1  18
TORSDOF 5
ENDMDL
MODEL 5
REMARK VINA RESULT:      -6.4      2.773      5.793
REMARK  Name = 
REMARK  5 active torsions:
REMARK  status: ('A' for Active; 'I' for Inactive)
REMARK    1  A    between atoms: C_2  and  C_4
REMARK    2  A    between atoms: C_4  and  C_5
REMARK    3  A    between atoms: C_5  and  C_6
REMARK    4  A    between atoms: C_8  and  C_9
REMARK    5  A    between atoms: C_15  and  C_16
REMARK                            x       y       z     vdW  Elec       q    Type
REMARK                         _______ _______ _______ _____ _____    ______ ____
ROOT
ATOM      1  C   UNL     1     -10.135  17.235  68.712  0.00  0.00    +0.206 A 
ATOM      2  O   UNL     1     -10.855  17.056  69.782  0.00  0.00    -0.438 OA
ATOM      3  C   UNL     1     -11.497  15.900  69.736  0.00  0.00    +0.164 A 
ATOM      4  C   UNL     1     -10.911  15.188  68.697  0.00  0.00    +0.118 A 
ATOM      5  N   UNL     1      -9.961  16.005  68.178  0.00  0.00    -0.212 NA
ENDROOT
BRANCH   3   6
ATOM      6  C   UNL     1     -12.176  15.295  70.890  0.00  0.00    +0.036 A 
ATOM      7  C   UNL     1     -13.565  15.307  70.939  0.00  0.00    +0.003 A 
ATOM      8  C   UNL     1     -14.257  15.334  72.143  0.00  0.00    +0.000 A 
ATOM      9  C   UNL     1     -13.591  15.768  73.282  0.00  0.00    +0.000 A 
ATOM     10  C   UNL     1     -12.226  15.518  73.306  0.00  0.00    +0.000 A 
ATOM     11  C   UNL     1     -11.548  15.239  72.128  0.00  0.00    +0.003 A 
ENDBRANCH   3   6
BRANCH   4  12
ATOM     12  C   UNL     1     -11.634  14.104  68.017  0.00  0.00    +0.021 A 
ATOM     13  C   UNL     1     -12.114  14.242  66.719  0.00  0.00    +0.002 A 
ATOM     14  C   UNL     1     -11.871  13.280  65.748  0.00  0.00    +0.000 A 
ATOM     15  C   UNL     1     -11.503  12.001  66.143  0.00  0.00    +0.000 A 
ATOM     16  C   UNL     1     -11.404  11.753  67.485  0.00  0.00    +0.000 A 
ATOM     17  C   UNL     1     -11.273  12.812  68.373  0.00  0.00    +0.002 A 
ENDBRANCH   4  12
BRANCH   1  18
ATOM     18  C   UNL     1      -9.547  18.528  68.242  0.00  0.00    +0.097 C 
BRANCH  18  19
ATOM     19  C   UNL     1     -10.618  19.244  67.469  0.00  0.00    +0.124 C 
BRANCH  19  21
ATOM     20  O   UNL     1      -9.156  19.607  65.684  0.00  0.00    -0.246 OA
ATOM     21  C   UNL     1     -10.284  19.142  66.027  0.00  0.00    +0.365 C 
ATOM     22  O   UNL     1     -10.707  18.024  65.310  0.00  0.00    -0.246 OA
ENDBRANCH  19  21
ENDBRANCH  18  19
ENDBRANCH   1  18
TORSDOF 5
ENDMDL
MODEL 6
REMARK VINA RESULT:      -6.3      3.727      4.865
REMARK  Name = 
REMARK  5 active torsions:
REMARK  status: ('A' for Active; 'I' for Inactive)
REMARK    1  A    between atoms: C_2  and  C_4
REMARK    2  A    between atoms: C_4  and  C_5
REMARK    3  A    between atoms: C_5  and  C_6
REMARK    4  A    between atoms: C_8  and  C_9
REMARK    5  A    between atoms: C_15  and  C_16
REMARK                            x       y       z     vdW  Elec       q    Type
REMARK                         _______ _______ _______ _____ _____    ______ ____
ROOT
ATOM      1  C   UNL     1     -11.395  15.414  70.052  0.00  0.00    +0.206 A 
ATOM      2  O   UNL     1     -11.404  16.684  69.766  0.00  0.00    -0.438 OA
ATOM      3  C   UNL     1     -10.355  17.014  69.031  0.00  0.00    +0.164 A 
ATOM      4  C   UNL     1      -9.812  15.813  68.593  0.00  0.00    +0.118 A 
ATOM      5  N   UNL     1     -10.584  14.838  69.136  0.00  0.00    -0.212 NA
ENDROOT
BRANCH   3   6
ATOM      6  C   UNL     1     -10.216  18.301  68.335  0.00  0.00    +0.036 A 
ATOM      7  C   UNL     1     -10.632  18.401  67.012  0.00  0.00    +0.003 A 
ATOM      8  C   UNL     1     -10.040  19.289  66.122  0.00  0.00    +0.000 A 
ATOM      9  C   UNL     1      -8.771  19.775  66.413  0.00  0.00    +0.000 A 
ATOM     10  C   UNL     1      -8.474  19.892  67.764  0.00  0.00    +0.000 A 
ATOM     11  C   UNL     1      -9.222  19.199  68.704  0.00  0.00    +0.003 A 
ENDBRANCH   3   6
BRANCH   4  12
ATOM     12  C   UNL     1      -8.404  15.720  68.184  0.00  0.00    +0.021 A 
ATOM     13  C   UNL     1      -8.012  15.867  66.858  0.00  0.00    +0.002 A 
ATOM     14  C   UNL     1      -6.977  16.719  66.496  0.00  0.00    +0.000 A 
ATOM     15  C   UNL     1      -6.066  17.123  67.463  0.00  0.00    +0.000 A 
ATOM     16  C   UNL     1      -6.237  16.649  68.735  0.00  0.00    +0.000 A 
ATOM     17  C   UNL     1      -7.468  16.139  69.121  0.00  0.00    +0.002 A 
ENDBRANCH   4  12
BRANCH   1  18
ATOM     18  C   UNL     1     -12.200  14.736  71.116  0.00  0.00    +0.097 C 
BRANCH  18  19
ATOM     19  C   UNL     1     -11.803  15.350  72.428  0.00  0.00    +0.124 C 
BRANCH  19  21
ATOM     20  O   UNL     1     -12.895  16.338  74.241  0.00  0.00    -0.246 OA
ATOM     21  C   UNL     1     -13.045  15.672  73.173  0.00  0.00    +0.365 C 
ATOM     22  O   UNL     1     -14.211  15.947  72.461  0.00  0.00    -0.246 OA
ENDBRANCH  19  21
ENDBRANCH  18  19
ENDBRANCH   1  18
TORSDOF 5
ENDMDL
MODEL 7
REMARK VINA RESULT:      -6.3      4.358      6.850
REMARK  Name = 
REMARK  5 active torsions:
REMARK  status: ('A' for Active; 'I' for Inactive)
REMARK    1  A    between atoms: C_2  and  C_4
REMARK    2  A    between atoms: C_4  and  C_5
REMARK    3  A    between atoms: C_5  and  C_6
REMARK    4  A    between atoms: C_8  and  C_9
REMARK    5  A    between atoms: C_15  and  C_16
REMARK                            x       y       z     vdW  Elec       q    Type
REMARK                         _______ _______ _______ _____ _____    ______ ____
ROOT
ATOM      1  C   UNL     1     -10.424  14.267  66.316  0.00  0.00    +0.206 A 
ATOM      2  O   UNL     1     -10.989  15.349  66.769  0.00  0.00    -0.438 OA
ATOM      3  C   UNL     1     -10.094  16.303  66.972  0.00  0.00    +0.164 A 
ATOM      4  C   UNL     1      -8.939  15.874  66.331  0.00  0.00    +0.118 A 
ATOM      5  N   UNL     1      -9.235  14.659  65.807  0.00  0.00    -0.212 NA
ENDROOT
BRANCH   3   6
ATOM      6  C   UNL     1     -10.440  17.708  67.228  0.00  0.00    +0.036 A 
ATOM      7  C   UNL     1     -10.464  18.602  66.164  0.00  0.00    +0.003 A 
ATOM      8  C   UNL     1     -10.184  19.952  66.333  0.00  0.00    +0.000 A 
ATOM      9  C   UNL     1      -9.476  20.348  67.460  0.00  0.00    +0.000 A 
ATOM     10  C   UNL     1      -9.666  19.563  68.589  0.00  0.00    +0.000 A 
ATOM     11  C   UNL     1     -10.187  18.282  68.467  0.00  0.00    +0.003 A 
ENDBRANCH   3   6
BRANCH   4  12
ATOM     12  C   UNL     1      -7.618  16.385  66.725  0.00  0.00    +0.021 A 
ATOM     13  C   UNL     1      -7.013  17.448  66.064  0.00  0.00    +0.002 A 
ATOM     14  C   UNL     1      -6.481  18.527  66.757  0.00  0.00    +0.000 A 
ATOM     15  C   UNL     1      -6.184  18.382  68.105  0.00  0.00    +0.000 A 
ATOM     16  C   UNL     1      -6.429  17.167  68.684  0.00  0.00    +0.000 A 
ATOM     17  C   UNL     1      -7.300  16.276  68.072  0.00  0.00    +0.002 A 
ENDBRANCH   4  12
BRANCH   1  18
ATOM     18  C   UNL     1     -11.026  12.897  66.285  0.00  0.00    +0.097 C 
BRANCH  18  19
ATOM     19  C   UNL     1     -12.431  13.044  65.773  0.00  0.00    +0.124 C 
BRANCH  19  21
ATOM     20  O   UNL     1     -12.825  12.144  63.655  0.00  0.00    -0.246 OA
ATOM     21  C   UNL     1     -12.369  13.138  64.294  0.00  0.00    +0.365 C 
ATOM     22  O   UNL     1     -12.566  14.376  63.685  0.00  0.00    -0.246 OA
ENDBRANCH  19  21
ENDBRANCH  18  19
ENDBRANCH   1  18
TORSDOF 5
ENDMDL
MODEL 8
REMARK VINA RESULT:      -6.3      2.957      6.812
REMARK  Name = 
REMARK  5 active torsions:
REMARK  status: ('A' for Active; 'I' for Inactive)
REMARK    1  A    between atoms: C_2  and  C_4
REMARK    2  A    between atoms: C_4  and  C_5
REMARK    3  A    between atoms: C_5  and  C_6
REMARK    4  A    between atoms: C_8  and  C_9
REMARK    5  A    between atoms: C_15  and  C_16
REMARK                            x       y       z     vdW  Elec       q    Type
REMARK                         _______ _______ _______ _____ _____    ______ ____
ROOT
ATOM      1  C   UNL     1     -11.725  13.775  67.578  0.00  0.00    +0.206 A 
ATOM      2  O   UNL     1     -12.246  13.903  68.764  0.00  0.00    -0.438 OA
ATOM      3  C   UNL     1     -11.869  15.038  69.329  0.00  0.00    +0.164 A 
ATOM      4  C   UNL     1     -11.307  15.795  68.309  0.00  0.00    +0.118 A 
ATOM      5  N   UNL     1     -11.372  15.022  67.196  0.00  0.00    -0.212 NA
ENDROOT
BRANCH   3   6
ATOM      6  C   UNL     1     -12.484  15.591  70.544  0.00  0.00    +0.036 A 
ATOM      7  C   UNL     1     -11.664  16.044  71.570  0.00  0.00    +0.003 A 
ATOM      8  C   UNL     1     -12.066  16.012  72.900  0.00  0.00    +0.000 A 
ATOM      9  C   UNL     1     -13.097  15.155  73.261  0.00  0.00    +0.000 A 
ATOM     10  C   UNL     1     -14.044  14.913  72.276  0.00  0.00    +0.000 A 
ATOM     11  C   UNL     1     -13.748  15.177  70.946  0.00  0.00    +0.003 A 
ENDBRANCH   3   6
BRANCH   4  12
ATOM     12  C   UNL     1     -10.350  16.871  68.602  0.00  0.00    +0.021 A 
ATOM     13  C   UNL     1      -9.031  16.607  68.952  0.00  0.00    +0.002 A 
ATOM     14  C   UNL     1      -7.971  17.252  68.330  0.00  0.00    +0.000 A 
ATOM     15  C   UNL     1      -8.208  18.439  67.650  0.00  0.00    +0.000 A 
ATOM     16  C   UNL     1      -9.490  18.917  67.633  0.00  0.00    +0.000 A 
ATOM     17  C   UNL     1     -10.548  18.065  67.919  0.00  0.00    +0.002 A 
ENDBRANCH   4  12
BRANCH   1  18
ATOM     18  C   UNL     1     -11.636  12.514  66.778  0.00  0.00    +0.097 C 
BRANCH  18  19
ATOM     19  C   UNL     1     -11.280  12.907  65.372  0.00  0.00    +0.124 C 
BRANCH  19  21
ATOM     20  O   UNL     1     -12.520  14.148  63.831  0.00  0.00    -0.246 OA
ATOM     21  C   UNL     1     -12.543  13.174  64.641  0.00  0.00    +0.365 C 
ATOM     22  O   UNL     1     -13.344  12.101  64.256  0.00  0.00    -0.246 OA
ENDBRANCH  19  21
ENDBRANCH  18  19
ENDBRANCH   1  18
TORSDOF 5
ENDMDL
MODEL 9
REMARK VINA RESULT:      -6.3      2.784      5.626
REMARK  Name = 
REMARK  5 active torsions:
REMARK  status: ('A' for Active; 'I' for Inactive)
REMARK    1  A    between atoms: C_2  and  C_4
REMARK    2  A    between atoms: C_4  and  C_5
REMARK    3  A    between atoms: C_5  and  C_6
REMARK    4  A    between atoms: C_8  and  C_9
REMARK    5  A    between atoms: C_15  and  C_16
REMARK                            x       y       z     vdW  Elec       q    Type
REMARK                         _______ _______ _______ _____ _____    ______ ____
ROOT
ATOM      1  C   UNL     1      -9.918  16.966  68.599  0.00  0.00    +0.206 A 
ATOM      2  O   UNL     1     -10.149  15.869  67.937  0.00  0.00    -0.438 OA
ATOM      3  C   UNL     1     -10.994  15.088  68.591  0.00  0.00    +0.164 A 
ATOM      4  C   UNL     1     -11.543  15.884  69.589  0.00  0.00    +0.118 A 
ATOM      5  N   UNL     1     -10.949  17.096  69.464  0.00  0.00    -0.212 NA
ENDROOT
BRANCH   3   6
ATOM      6  C   UNL     1     -11.650  13.914  67.998  0.00  0.00    +0.036 A 
ATOM      7  C   UNL     1     -11.282  12.645  68.430  0.00  0.00    +0.003 A 
ATOM      8  C   UNL     1     -11.355  11.536  67.597  0.00  0.00    +0.000 A 
ATOM      9  C   UNL     1     -11.388  11.739  66.223  0.00  0.00    +0.000 A 
ATOM     10  C   UNL     1     -11.988  12.920  65.810  0.00  0.00    +0.000 A 
ATOM     11  C   UNL     1     -12.155  13.967  66.705  0.00  0.00    +0.003 A 
ENDBRANCH   3   6
BRANCH   4  12
ATOM     12  C   UNL     1     -12.125  15.288  70.800  0.00  0.00    +0.021 A 
ATOM     13  C   UNL     1     -11.477  15.339  72.029  0.00  0.00    +0.002 A 
ATOM     14  C   UNL     1     -12.133  15.756  73.179  0.00  0.00    +0.000 A 
ATOM     15  C   UNL     1     -13.521  15.742  73.208  0.00  0.00    +0.000 A 
ATOM     16  C   UNL     1     -14.176  15.308  72.087  0.00  0.00    +0.000 A 
ATOM     17  C   UNL     1     -13.512  15.280  70.869  0.00  0.00    +0.002 A 
ENDBRANCH   4  12
BRANCH   1  18
ATOM     18  C   UNL     1      -8.792  17.923  68.367  0.00  0.00    +0.097 C 
BRANCH  18  19
ATOM     19  C   UNL     1      -9.386  19.170  67.777  0.00  0.00    +0.124 C 
BRANCH  19  21
ATOM     20  O   UNL     1      -8.292  18.532  65.816  0.00  0.00    -0.246 OA
ATOM     21  C   UNL     1      -9.347  19.038  66.300  0.00  0.00    +0.365 C 
ATOM     22  O   UNL     1     -10.522  18.729  65.616  0.00  0.00    -0.246 OA
ENDBRANCH  19  21
ENDBRANCH  18  19
ENDBRANCH   1  18
TORSDOF 5
ENDMDL
