MODEL 1
REMARK VINA RESULT:      -6.6      0.000      0.000
REMARK  Name = 
REMARK  1 active torsions:
REMARK  status: ('A' for Active; 'I' for Inactive)
REMARK    1  A    between atoms: C_11  and  C_12
REMARK                            x       y       z     vdW  Elec       q    Type
REMARK                         _______ _______ _______ _____ _____    ______ ____
ROOT
ATOM      1  O   UNL     1     -14.178  14.563  71.689  0.00  0.00    -0.268 OA
ATOM      2  C   UNL     1     -13.136  14.558  71.009  0.00  0.00    +0.300 C 
ATOM      3  C   UNL     1     -12.325  15.904  71.455  0.00  0.00    +0.333 C 
ATOM      4  O   UNL     1     -11.679  15.207  72.665  0.00  0.00    -0.186 OA
ATOM      5  N   UNL     1     -11.016  15.714  70.560  0.00  0.00    -0.233 NA
ATOM      6  C   UNL     1     -11.094  15.796  69.250  0.00  0.00    +0.081 C 
ATOM      7  C   UNL     1     -11.332  14.421  68.733  0.00  0.00    +0.034 A 
ATOM      8  C   UNL     1     -11.722  13.279  69.447  0.00  0.00    +0.075 A 
ATOM      9  C   UNL     1     -11.827  12.047  68.812  0.00  0.00    +0.018 A 
ATOM     10  C   UNL     1     -11.514  12.056  67.450  0.00  0.00    +0.013 A 
ATOM     11  C   UNL     1     -11.650  13.204  66.680  0.00  0.00    +0.058 A 
ATOM     12 CL   UNL     1     -12.716  13.324  65.280  0.00  0.00    -0.082 Cl
ATOM     13  C   UNL     1     -11.205  14.346  67.347  0.00  0.00    +0.014 A 
ATOM     14  N   UNL     1     -12.440  13.369  70.683  0.00  0.00    -0.175 NA
ENDROOT
BRANCH   6  15
ATOM     15  C   UNL     1      -9.822  16.225  68.632  0.00  0.00    +0.028 A 
ATOM     16  C   UNL     1      -9.702  17.075  67.586  0.00  0.00    +0.059 A 
ATOM     17 CL   UNL     1     -10.819  18.415  67.598  0.00  0.00    -0.082 Cl
ATOM     18  C   UNL     1      -8.532  17.156  66.844  0.00  0.00    +0.011 A 
ATOM     19  C   UNL     1      -7.517  16.243  67.091  0.00  0.00    +0.001 A 
ATOM     20  C   UNL     1      -7.548  15.527  68.265  0.00  0.00    +0.000 A 
ATOM     21  C   UNL     1      -8.675  15.546  69.025  0.00  0.00    +0.002 A 
ENDBRANCH   6  15
TORSDOF 1
ENDMDL
MODEL 2
REMARK VINA RESULT:      -6.6      1.801      4.493
REMARK  Name = 
REMARK  1 active torsions:
REMARK  status: ('A' for Active; 'I' for Inactive)
REMARK    1  A    between atoms: C_11  and  C_12
REMARK                            x       y       z     vdW  Elec       q    Type
REMARK                         _______ _______ _______ _____ _____    ______ ____
ROOT
ATOM      1  O   UNL     1     -11.313  15.281  72.123  0.00  0.00    -0.268 OA
ATOM      2  C   UNL     1     -11.438  15.187  70.889  0.00  0.00    +0.300 C 
ATOM      3  C   UNL     1     -12.312  13.828  70.650  0.00  0.00    +0.333 C 
ATOM      4  O   UNL     1     -13.651  14.559  70.849  0.00  0.00    -0.186 OA
ATOM      5  N   UNL     1     -12.438  13.888  69.059  0.00  0.00    -0.233 NA
ATOM      6  C   UNL     1     -11.372  13.730  68.306  0.00  0.00    +0.081 C 
ATOM      7  C   UNL     1     -10.803  15.083  68.054  0.00  0.00    +0.034 A 
ATOM      8  C   UNL     1     -11.098  16.286  68.710  0.00  0.00    +0.075 A 
ATOM      9  C   UNL     1     -10.523  17.481  68.292  0.00  0.00    +0.018 A 
ATOM     10  C   UNL     1      -9.661  17.371  67.198  0.00  0.00    +0.013 A 
ATOM     11  C   UNL     1      -8.991  16.187  66.915  0.00  0.00    +0.058 A 
ATOM     12 CL   UNL     1      -7.234  16.042  66.875  0.00  0.00    -0.082 Cl
ATOM     13  C   UNL     1      -9.804  15.065  67.081  0.00  0.00    +0.014 A 
ATOM     14  N   UNL     1     -11.609  16.313  70.048  0.00  0.00    -0.175 NA
ENDROOT
BRANCH   6  15
ATOM     15  C   UNL     1     -11.696  13.194  66.968  0.00  0.00    +0.028 A 
ATOM     16  C   UNL     1     -11.180  12.067  66.425  0.00  0.00    +0.059 A 
ATOM     17 CL   UNL     1     -10.971  10.744  67.542  0.00  0.00    -0.082 Cl
ATOM     18  C   UNL     1     -11.252  11.817  65.062  0.00  0.00    +0.011 A 
ATOM     19  C   UNL     1     -11.734  12.811  64.222  0.00  0.00    +0.001 A 
ATOM     20  C   UNL     1     -12.438  13.856  64.776  0.00  0.00    +0.000 A 
ATOM     21  C   UNL     1     -12.432  14.018  66.125  0.00  0.00    +0.002 A 
ENDBRANCH   6  15
TORSDOF 1
ENDMDL
MODEL 3
REMARK VINA RESULT:      -6.5      3.586      5.766
REMARK  Name = 
REMARK  1 active torsions:
REMARK  status: ('A' for Active; 'I' for Inactive)
REMARK    1  A    between atoms: C_11  and  C_12
REMARK                            x       y       z     vdW  Elec       q    Type
REMARK                         _______ _______ _______ _____ _____    ______ ____
ROOT
ATOM      1  O   UNL     1     -12.988  14.373  64.671  0.00  0.00    -0.268 OA
ATOM      2  C   UNL     1     -12.361  14.025  65.688  0.00  0.00    +0.300 C 
ATOM      3  C   UNL     1     -12.028  12.442  65.464  0.00  0.00    +0.333 C 
ATOM      4  O   UNL     1     -10.762  12.743  64.643  0.00  0.00    -0.186 OA
ATOM      5  N   UNL     1     -11.184  12.174  66.794  0.00  0.00    -0.233 NA
ATOM      6  C   UNL     1     -11.770  12.224  67.969  0.00  0.00    +0.081 C 
ATOM      7  C   UNL     1     -11.634  13.618  68.473  0.00  0.00    +0.034 A 
ATOM      8  C   UNL     1     -11.257  14.767  67.763  0.00  0.00    +0.075 A 
ATOM      9  C   UNL     1     -11.108  15.986  68.414  0.00  0.00    +0.018 A 
ATOM     10  C   UNL     1     -11.356  15.956  69.788  0.00  0.00    +0.013 A 
ATOM     11  C   UNL     1     -12.200  15.009  70.356  0.00  0.00    +0.058 A 
ATOM     12 CL   UNL     1     -13.669  15.414  71.244  0.00  0.00    -0.082 Cl
ATOM     13  C   UNL     1     -12.015  13.739  69.809  0.00  0.00    +0.014 A 
ATOM     14  N   UNL     1     -11.436  14.872  66.346  0.00  0.00    -0.175 NA
ENDROOT
BRANCH   6  15
ATOM     15  C   UNL     1     -11.093  11.383  68.978  0.00  0.00    +0.028 A 
ATOM     16  C   UNL     1      -9.806  10.968  68.922  0.00  0.00    +0.059 A 
ATOM     17 CL   UNL     1      -8.681  12.150  68.306  0.00  0.00    -0.082 Cl
ATOM     18  C   UNL     1      -9.348   9.913  69.699  0.00  0.00    +0.011 A 
ATOM     19  C   UNL     1     -10.262   9.178  70.440  0.00  0.00    +0.001 A 
ATOM     20  C   UNL     1     -11.511   9.712  70.659  0.00  0.00    +0.000 A 
ATOM     21  C   UNL     1     -11.897  10.808  69.955  0.00  0.00    +0.002 A 
ENDBRANCH   6  15
TORSDOF 1
ENDMDL
MODEL 4
REMARK VINA RESULT:      -6.3      3.753      5.069
REMARK  Name = 
REMARK  1 active torsions:
REMARK  status: ('A' for Active; 'I' for Inactive)
REMARK    1  A    between atoms: C_11  and  C_12
REMARK                            x       y       z     vdW  Elec       q    Type
REMARK                         _______ _______ _______ _____ _____    ______ ____
ROOT
ATOM      1  O   UNL     1     -10.897  12.277  63.249  0.00  0.00    -0.268 OA
ATOM      2  C   UNL     1     -10.933  12.486  64.474  0.00  0.00    +0.300 C 
ATOM      3  C   UNL     1     -12.130  13.577  64.689  0.00  0.00    +0.333 C 
ATOM      4  O   UNL     1     -13.220  12.491  64.723  0.00  0.00    -0.186 OA
ATOM      5  N   UNL     1     -12.089  13.682  66.282  0.00  0.00    -0.233 NA
ATOM      6  C   UNL     1     -11.048  14.215  66.882  0.00  0.00    +0.081 C 
ATOM      7  C   UNL     1     -10.099  13.109  67.189  0.00  0.00    +0.034 A 
ATOM      8  C   UNL     1     -10.100  11.799  66.690  0.00  0.00    +0.075 A 
ATOM      9  C   UNL     1      -9.175  10.867  67.145  0.00  0.00    +0.018 A 
ATOM     10  C   UNL     1      -8.285  11.341  68.112  0.00  0.00    +0.013 A 
ATOM     11  C   UNL     1      -7.954  12.688  68.199  0.00  0.00    +0.058 A 
ATOM     12 CL   UNL     1      -6.314  13.307  68.012  0.00  0.00    -0.082 Cl
ATOM     13  C   UNL     1      -9.063  13.517  68.028  0.00  0.00    +0.014 A 
ATOM     14  N   UNL     1     -10.701  11.470  65.432  0.00  0.00    -0.175 NA
ENDROOT
BRANCH   6  15
ATOM     15  C   UNL     1     -11.388  14.805  68.193  0.00  0.00    +0.028 A 
ATOM     16  C   UNL     1     -10.889  15.960  68.691  0.00  0.00    +0.059 A 
ATOM     17 CL   UNL     1     -10.685  17.236  67.519  0.00  0.00    -0.082 Cl
ATOM     18  C   UNL     1     -10.974  16.267  70.042  0.00  0.00    +0.011 A 
ATOM     19  C   UNL     1     -11.452  15.306  70.920  0.00  0.00    +0.001 A 
ATOM     20  C   UNL     1     -12.140  14.230  70.406  0.00  0.00    +0.000 A 
ATOM     21  C   UNL     1     -12.122  14.010  69.066  0.00  0.00    +0.002 A 
ENDBRANCH   6  15
TORSDOF 1
ENDMDL
MODEL 5
REMARK VINA RESULT:      -6.1      3.484      5.618
REMARK  Name = 
REMARK  1 active torsions:
REMARK  status: ('A' for Active; 'I' for Inactive)
REMARK    1  A    between atoms: C_11  and  C_12
REMARK                            x       y       z     vdW  Elec       q    Type
REMARK                         _______ _______ _______ _____ _____    ______ ____
ROOT
ATOM      1  O   UNL     1      -8.356  20.504  67.608  0.00  0.00    -0.268 OA
ATOM      2  C   UNL     1      -8.741  19.321  67.628  0.00  0.00    +0.300 C 
ATOM      3  C   UNL     1     -10.351  19.399  67.893  0.00  0.00    +0.333 C 
ATOM      4  O   UNL     1     -10.667  19.599  66.401  0.00  0.00    -0.186 OA
ATOM      5  N   UNL     1     -10.690  17.839  67.826  0.00  0.00    -0.233 NA
ATOM      6  C   UNL     1     -10.242  17.025  68.755  0.00  0.00    +0.081 C 
ATOM      7  C   UNL     1      -8.932  16.496  68.287  0.00  0.00    +0.034 A 
ATOM      8  C   UNL     1      -8.129  16.966  67.239  0.00  0.00    +0.075 A 
ATOM      9  C   UNL     1      -6.960  16.300  66.887  0.00  0.00    +0.018 A 
ATOM     10  C   UNL     1      -6.677  15.163  67.647  0.00  0.00    +0.013 A 
ATOM     11  C   UNL     1      -7.147  15.020  68.947  0.00  0.00    +0.058 A 
ATOM     12 CL   UNL     1      -6.099  14.837  70.353  0.00  0.00    -0.082 Cl
ATOM     13  C   UNL     1      -8.468  15.449  69.083  0.00  0.00    +0.014 A 
ATOM     14  N   UNL     1      -8.195  18.323  66.785  0.00  0.00    -0.175 NA
ENDROOT
BRANCH   6  15
ATOM     15  C   UNL     1     -11.099  15.833  68.927  0.00  0.00    +0.028 A 
ATOM     16  C   UNL     1     -11.409  15.249  70.107  0.00  0.00    +0.059 A 
ATOM     17 CL   UNL     1     -11.694  16.359  71.422  0.00  0.00    -0.082 Cl
ATOM     18  C   UNL     1     -11.912  13.957  70.169  0.00  0.00    +0.011 A 
ATOM     19  C   UNL     1     -11.961  13.199  69.008  0.00  0.00    +0.001 A 
ATOM     20  C   UNL     1     -11.846  13.843  67.798  0.00  0.00    +0.000 A 
ATOM     21  C   UNL     1     -11.447  15.141  67.772  0.00  0.00    +0.002 A 
ENDBRANCH   6  15
TORSDOF 1
ENDMDL
MODEL 6
REMARK VINA RESULT:      -6.0      3.344      5.289
REMARK  Name = 
REMARK  1 active torsions:
REMARK  status: ('A' for Active; 'I' for Inactive)
REMARK    1  A    between atoms: C_11  and  C_12
REMARK                            x       y       z     vdW  Elec       q    Type
REMARK                         _______ _______ _______ _____ _____    ______ ____
ROOT
ATOM      1  O   UNL     1      -8.166  17.398  65.736  0.00  0.00    -0.268 OA
ATOM      2  C   UNL     1      -8.875  16.453  66.127  0.00  0.00    +0.300 C 
ATOM      3  C   UNL     1      -8.391  16.160  67.659  0.00  0.00    +0.333 C 
ATOM      4  O   UNL     1      -9.311  17.247  68.242  0.00  0.00    -0.186 OA
ATOM      5  N   UNL     1      -9.420  14.995  68.028  0.00  0.00    -0.233 NA
ATOM      6  C   UNL     1      -9.338  13.828  67.428  0.00  0.00    +0.081 C 
ATOM      7  C   UNL     1     -10.225  13.881  66.233  0.00  0.00    +0.034 A 
ATOM      8  C   UNL     1     -10.806  15.005  65.631  0.00  0.00    +0.075 A 
ATOM      9  C   UNL     1     -11.676  14.863  64.556  0.00  0.00    +0.018 A 
ATOM     10  C   UNL     1     -11.909  13.546  64.154  0.00  0.00    +0.013 A 
ATOM     11  C   UNL     1     -10.976  12.540  64.379  0.00  0.00    +0.058 A 
ATOM     12 CL   UNL     1     -10.216  11.604  63.093  0.00  0.00    -0.082 Cl
ATOM     13  C   UNL     1     -10.399  12.628  65.646  0.00  0.00    +0.014 A 
ATOM     14  N   UNL     1     -10.235  16.312  65.760  0.00  0.00    -0.175 NA
ENDROOT
BRANCH   6  15
ATOM     15  C   UNL     1      -9.872  12.726  68.255  0.00  0.00    +0.028 A 
ATOM     16  C   UNL     1      -9.346  11.483  68.346  0.00  0.00    +0.059 A 
ATOM     17 CL   UNL     1      -7.603  11.424  68.360  0.00  0.00    -0.082 Cl
ATOM     18  C   UNL     1     -10.079  10.417  68.848  0.00  0.00    +0.011 A 
ATOM     19  C   UNL     1     -11.426  10.601  69.128  0.00  0.00    +0.001 A 
ATOM     20  C   UNL     1     -11.905  11.887  69.233  0.00  0.00    +0.000 A 
ATOM     21  C   UNL     1     -11.124  12.922  68.825  0.00  0.00    +0.002 A 
ENDBRANCH   6  15
TORSDOF 1
ENDMDL
MODEL 7
REMARK VINA RESULT:      -5.9      3.760      5.523
REMARK  Name = 
REMARK  1 active torsions:
REMARK  status: ('A' for Active; 'I' for Inactive)
REMARK    1  A    between atoms: C_11  and  C_12
REMARK                            x       y       z     vdW  Elec       q    Type
REMARK                         _______ _______ _______ _____ _____    ______ ____
ROOT
ATOM      1  O   UNL     1      -9.975  16.921  65.364  0.00  0.00    -0.268 OA
ATOM      2  C   UNL     1     -10.232  15.746  65.682  0.00  0.00    +0.300 C 
ATOM      3  C   UNL     1      -9.743  15.606  67.234  0.00  0.00    +0.333 C 
ATOM      4  O   UNL     1     -11.065  16.168  67.784  0.00  0.00    -0.186 OA
ATOM      5  N   UNL     1     -10.194  14.097  67.502  0.00  0.00    -0.233 NA
ATOM      6  C   UNL     1      -9.595  13.108  66.878  0.00  0.00    +0.081 C 
ATOM      7  C   UNL     1     -10.361  12.842  65.629  0.00  0.00    +0.034 A 
ATOM      8  C   UNL     1     -11.337  13.644  65.021  0.00  0.00    +0.075 A 
ATOM      9  C   UNL     1     -12.011  13.204  63.888  0.00  0.00    +0.018 A 
ATOM     10  C   UNL     1     -11.641  11.935  63.436  0.00  0.00    +0.013 A 
ATOM     11  C   UNL     1     -10.381  11.409  63.695  0.00  0.00    +0.058 A 
ATOM     12 CL   UNL     1      -9.234  10.952  62.436  0.00  0.00    -0.082 Cl
ATOM     13  C   UNL     1      -9.957  11.667  64.998  0.00  0.00    +0.014 A 
ATOM     14  N   UNL     1     -11.383  15.062  65.222  0.00  0.00    -0.175 NA
ENDROOT
BRANCH   6  15
ATOM     15  C   UNL     1      -9.647  11.842  67.638  0.00  0.00    +0.028 A 
ATOM     16  C   UNL     1      -8.624  10.969  67.785  0.00  0.00    +0.059 A 
ATOM     17 CL   UNL     1      -7.057  11.704  67.995  0.00  0.00    -0.082 Cl
ATOM     18  C   UNL     1      -8.838   9.661  68.200  0.00  0.00    +0.011 A 
ATOM     19  C   UNL     1     -10.141   9.201  68.327  0.00  0.00    +0.001 A 
ATOM     20  C   UNL     1     -11.161  10.123  68.380  0.00  0.00    +0.000 A 
ATOM     21  C   UNL     1     -10.901  11.419  68.064  0.00  0.00    +0.002 A 
ENDBRANCH   6  15
TORSDOF 1
ENDMDL
MODEL 8
REMARK VINA RESULT:      -5.9      3.948      6.102
REMARK  Name = 
REMARK  1 active torsions:
REMARK  status: ('A' for Active; 'I' for Inactive)
REMARK    1  A    between atoms: C_11  and  C_12
REMARK                            x       y       z     vdW  Elec       q    Type
REMARK                         _______ _______ _______ _____ _____    ______ ____
ROOT
ATOM      1  O   UNL     1     -12.779  14.715  63.925  0.00  0.00    -0.268 OA
ATOM      2  C   UNL     1     -11.957  14.111  64.637  0.00  0.00    +0.300 C 
ATOM      3  C   UNL     1     -12.361  12.533  64.516  0.00  0.00    +0.333 C 
ATOM      4  O   UNL     1     -11.554  12.345  63.219  0.00  0.00    -0.186 OA
ATOM      5  N   UNL     1     -11.197  11.907  65.412  0.00  0.00    -0.233 NA
ATOM      6  C   UNL     1     -11.161  12.139  66.706  0.00  0.00    +0.081 C 
ATOM      7  C   UNL     1     -10.320  13.349  66.916  0.00  0.00    +0.034 A 
ATOM      8  C   UNL     1      -9.887  14.284  65.965  0.00  0.00    +0.075 A 
ATOM      9  C   UNL     1      -9.037  15.322  66.327  0.00  0.00    +0.018 A 
ATOM     10  C   UNL     1      -8.667  15.340  67.674  0.00  0.00    +0.013 A 
ATOM     11  C   UNL     1      -9.473  14.779  68.658  0.00  0.00    +0.058 A 
ATOM     12 CL   UNL     1     -10.157  15.694  70.002  0.00  0.00    -0.082 Cl
ATOM     13  C   UNL     1     -10.021  13.560  68.262  0.00  0.00    +0.014 A 
ATOM     14  N   UNL     1     -10.600  14.503  64.742  0.00  0.00    -0.175 NA
ENDROOT
BRANCH   6  15
ATOM     15  C   UNL     1     -10.483  11.063  67.457  0.00  0.00    +0.028 A 
ATOM     16  C   UNL     1     -10.662  10.785  68.769  0.00  0.00    +0.059 A 
ATOM     17 CL   UNL     1     -12.305  10.935  69.333  0.00  0.00    -0.082 Cl
ATOM     18  C   UNL     1      -9.753  10.012  69.479  0.00  0.00    +0.011 A 
ATOM     19  C   UNL     1      -8.565   9.639  68.867  0.00  0.00    +0.001 A 
ATOM     20  C   UNL     1      -8.473   9.740  67.498  0.00  0.00    +0.000 A 
ATOM     21  C   UNL     1      -9.432  10.418  66.815  0.00  0.00    +0.002 A 
ENDBRANCH   6  15
TORSDOF 1
ENDMDL
MODEL 9
REMARK VINA RESULT:      -5.9      5.580      7.784
REMARK  Name = 
REMARK  1 active torsions:
REMARK  status: ('A' for Active; 'I' for Inactive)
REMARK    1  A    between atoms: C_11  and  C_12
REMARK                            x       y       z     vdW  Elec       q    Type
REMARK                         _______ _______ _______ _____ _____    ______ ____
ROOT
ATOM      1  O   UNL     1     -11.912  11.608  67.292  0.00  0.00    -0.268 OA
ATOM      2  C   UNL     1     -11.521  11.017  68.314  0.00  0.00    +0.300 C 
ATOM      3  C   UNL     1     -10.010  10.507  67.962  0.00  0.00    +0.333 C 
ATOM      4  O   UNL     1      -9.379  11.854  68.356  0.00  0.00    -0.186 OA
ATOM      5  N   UNL     1      -9.636   9.844  69.366  0.00  0.00    -0.233 NA
ATOM      6  C   UNL     1     -10.262   8.762  69.773  0.00  0.00    +0.081 C 
ATOM      7  C   UNL     1     -11.430   9.203  70.584  0.00  0.00    +0.034 A 
ATOM      8  C   UNL     1     -11.992  10.484  70.674  0.00  0.00    +0.075 A 
ATOM      9  C   UNL     1     -13.044  10.738  71.546  0.00  0.00    +0.018 A 
ATOM     10  C   UNL     1     -13.466   9.638  72.297  0.00  0.00    +0.013 A 
ATOM     11  C   UNL     1     -13.289   8.336  71.845  0.00  0.00    +0.058 A 
ATOM     12 CL   UNL     1     -14.616   7.213  71.549  0.00  0.00    -0.082 Cl
ATOM     13  C   UNL     1     -12.038   8.145  71.258  0.00  0.00    +0.014 A 
ATOM     14  N   UNL     1     -11.852  11.446  69.622  0.00  0.00    -0.175 NA
ENDROOT
BRANCH   6  15
ATOM     15  C   UNL     1      -9.443   7.943  70.690  0.00  0.00    +0.028 A 
ATOM     16  C   UNL     1      -9.408   6.591  70.720  0.00  0.00    +0.059 A 
ATOM     17 CL   UNL     1      -9.467   5.821  69.156  0.00  0.00    -0.082 Cl
ATOM     18  C   UNL     1      -8.904   5.900  71.814  0.00  0.00    +0.011 A 
ATOM     19  C   UNL     1      -8.564   6.609  72.957  0.00  0.00    +0.001 A 
ATOM     20  C   UNL     1      -8.405   7.973  72.861  0.00  0.00    +0.000 A 
ATOM     21  C   UNL     1      -8.817   8.612  71.735  0.00  0.00    +0.002 A 
ENDBRANCH   6  15
TORSDOF 1
ENDMDL
