MODEL 1
REMARK VINA RESULT:      -5.9      0.000      0.000
REMARK  Name = 
REMARK  11 active torsions:
REMARK  status: ('A' for Active; 'I' for Inactive)
REMARK    1  A    between atoms: N_4  and  C_5
REMARK    2  A    between atoms: N_4  and  C_10
REMARK    3  A    between atoms: C_5  and  C_6
REMARK    4  A    between atoms: C_6  and  C_8
REMARK    5  A    between atoms: C_13  and  C_14
REMARK    6  A    between atoms: N_16  and  C_17
REMARK    7  A    between atoms: C_17  and  C_18
REMARK    8  A    between atoms: C_22  and  C_23
REMARK    9  A    between atoms: N_25  and  C_26
REMARK   10  A    between atoms: C_26  and  C_27
REMARK   11  A    between atoms: C_27  and  C_29
REMARK                            x       y       z     vdW  Elec       q    Type
REMARK                         _______ _______ _______ _____ _____    ______ ____
ROOT
ATOM      1  C   UNL     1      -6.943  17.960  68.438  0.00  0.00    +0.065 A 
ATOM      2  C   UNL     1      -6.224  16.872  67.983  0.00  0.00    +0.049 A 
ATOM      3  I   UNL     1      -4.162  17.026  67.599  0.00  0.00    -0.041 I 
ATOM      4  C   UNL     1      -6.808  15.613  68.047  0.00  0.00    +0.067 A 
ATOM      5  C   UNL     1      -8.179  15.521  68.023  0.00  0.00    +0.040 A 
ATOM      6  I   UNL     1      -9.097  13.622  68.137  0.00  0.00    -0.042 I 
ATOM      7  C   UNL     1      -8.884  16.620  68.482  0.00  0.00    +0.067 A 
ATOM      8  C   UNL     1      -8.318  17.883  68.380  0.00  0.00    +0.049 A 
ATOM      9  I   UNL     1      -9.519  19.624  68.338  0.00  0.00    -0.041 I 
ENDROOT
BRANCH   1  12
ATOM     10  C   UNL     1      -6.343  19.600  66.319  0.00  0.00    +0.095 C 
ATOM     11  C   UNL     1      -6.275  20.079  67.450  0.00  0.00    +0.230 C 
ATOM     12  N   UNL     1      -6.337  19.236  68.604  0.00  0.00    -0.255 N 
ATOM     13  O   UNL     1      -6.487  21.316  67.631  0.00  0.00    -0.275 OA
BRANCH  12  14
ATOM     14  C   UNL     1      -6.307  19.767  69.963  0.00  0.00    +0.134 C 
BRANCH  14  15
ATOM     15  C   UNL     1      -4.690  19.510  70.364  0.00  0.00    +0.205 C 
ATOM     16  O   UNL     1      -5.074  18.321  71.283  0.00  0.00    -0.218 OA
BRANCH  15  17
ATOM     17  C   UNL     1      -4.804  20.590  71.653  0.00  0.00    +0.217 C 
ATOM     18  O   UNL     1      -3.729  20.170  72.453  0.00  0.00    -0.218 OA
ENDBRANCH  15  17
ENDBRANCH  14  15
ENDBRANCH  12  14
ENDBRANCH   1  12
BRANCH   4  19
ATOM     19  C   UNL     1      -5.931  14.443  68.186  0.00  0.00    +0.266 C 
ATOM     20  N   UNL     1      -5.690  13.908  69.493  0.00  0.00    -0.199 NA
ATOM     21  O   UNL     1      -5.799  13.601  67.245  0.00  0.00    -0.268 OA
BRANCH  20  22
ATOM     22  C   UNL     1      -4.424  13.202  69.685  0.00  0.00    +0.151 C 
BRANCH  22  23
ATOM     23  C   UNL     1      -4.762  12.554  71.203  0.00  0.00    +0.206 C 
ATOM     24  O   UNL     1      -6.076  11.919  70.678  0.00  0.00    -0.218 OA
BRANCH  23  25
ATOM     25  C   UNL     1      -5.582  13.953  71.655  0.00  0.00    +0.217 C 
ATOM     26  O   UNL     1      -5.762  13.678  73.020  0.00  0.00    -0.218 OA
ENDBRANCH  23  25
ENDBRANCH  22  23
ENDBRANCH  20  22
ENDBRANCH   4  19
BRANCH   7  27
ATOM     27  C   UNL     1     -10.350  16.577  68.416  0.00  0.00    +0.266 C 
ATOM     28  N   UNL     1     -11.176  16.563  69.572  0.00  0.00    -0.199 NA
ATOM     29  O   UNL     1     -10.889  16.215  67.339  0.00  0.00    -0.268 OA
BRANCH  28  30
ATOM     30  C   UNL     1     -12.197  15.536  69.770  0.00  0.00    +0.151 C 
BRANCH  30  31
ATOM     31  C   UNL     1     -12.595  15.651  71.239  0.00  0.00    +0.205 C 
ATOM     32  O   UNL     1     -13.999  15.650  71.263  0.00  0.00    -0.218 OA
ENDBRANCH  30  31
ENDBRANCH  28  30
ENDBRANCH   7  27
TORSDOF 11
ENDMDL
MODEL 2
REMARK VINA RESULT:      -5.7      1.986      6.912
REMARK  Name = 
REMARK  11 active torsions:
REMARK  status: ('A' for Active; 'I' for Inactive)
REMARK    1  A    between atoms: N_4  and  C_5
REMARK    2  A    between atoms: N_4  and  C_10
REMARK    3  A    between atoms: C_5  and  C_6
REMARK    4  A    between atoms: C_6  and  C_8
REMARK    5  A    between atoms: C_13  and  C_14
REMARK    6  A    between atoms: N_16  and  C_17
REMARK    7  A    between atoms: C_17  and  C_18
REMARK    8  A    between atoms: C_22  and  C_23
REMARK    9  A    between atoms: N_25  and  C_26
REMARK   10  A    between atoms: C_26  and  C_27
REMARK   11  A    between atoms: C_27  and  C_29
REMARK                            x       y       z     vdW  Elec       q    Type
REMARK                         _______ _______ _______ _____ _____    ______ ____
ROOT
ATOM      1  C   UNL     1      -8.396  15.637  67.490  0.00  0.00    +0.065 A 
ATOM      2  C   UNL     1      -7.627  16.763  67.267  0.00  0.00    +0.049 A 
ATOM      3  I   UNL     1      -8.517  18.579  66.690  0.00  0.00    -0.041 I 
ATOM      4  C   UNL     1      -6.306  16.762  67.695  0.00  0.00    +0.067 A 
ATOM      5  C   UNL     1      -5.650  15.559  67.806  0.00  0.00    +0.040 A 
ATOM      6  I   UNL     1      -3.645  15.524  68.470  0.00  0.00    -0.042 I 
ATOM      7  C   UNL     1      -6.435  14.441  68.028  0.00  0.00    +0.067 A 
ATOM      8  C   UNL     1      -7.744  14.425  67.565  0.00  0.00    +0.049 A 
ATOM      9  I   UNL     1      -8.750  12.604  67.182  0.00  0.00    -0.041 I 
ENDROOT
BRANCH   1  12
ATOM     10  C   UNL     1     -10.203  15.525  69.555  0.00  0.00    +0.095 C 
ATOM     11  C   UNL     1     -10.632  15.797  68.434  0.00  0.00    +0.230 C 
ATOM     12  N   UNL     1      -9.803  15.641  67.278  0.00  0.00    -0.255 N 
ATOM     13  O   UNL     1     -11.662  16.525  68.306  0.00  0.00    -0.275 OA
BRANCH  12  14
ATOM     14  C   UNL     1     -10.256  15.996  65.937  0.00  0.00    +0.134 C 
BRANCH  14  15
ATOM     15  C   UNL     1     -11.309  14.721  65.613  0.00  0.00    +0.205 C 
ATOM     16  O   UNL     1     -10.321  14.126  64.576  0.00  0.00    -0.218 OA
BRANCH  15  17
ATOM     17  C   UNL     1     -12.082  15.619  64.416  0.00  0.00    +0.217 C 
ATOM     18  O   UNL     1     -11.234  16.736  64.328  0.00  0.00    -0.218 OA
ENDBRANCH  15  17
ENDBRANCH  14  15
ENDBRANCH  12  14
ENDBRANCH   1  12
BRANCH   4  19
ATOM     19  C   UNL     1      -5.687  18.045  68.053  0.00  0.00    +0.266 C 
ATOM     20  N   UNL     1      -5.728  18.478  69.418  0.00  0.00    -0.199 NA
ATOM     21  O   UNL     1      -4.721  18.522  67.383  0.00  0.00    -0.268 OA
BRANCH  20  22
ATOM     22  C   UNL     1      -5.681  19.921  69.645  0.00  0.00    +0.151 C 
BRANCH  22  23
ATOM     23  C   UNL     1      -4.851  19.885  71.111  0.00  0.00    +0.206 C 
ATOM     24  O   UNL     1      -5.997  20.654  71.820  0.00  0.00    -0.218 OA
BRANCH  23  25
ATOM     25  C   UNL     1      -4.068  21.329  70.742  0.00  0.00    +0.217 C 
ATOM     26  O   UNL     1      -4.458  22.090  71.855  0.00  0.00    -0.218 OA
ENDBRANCH  23  25
ENDBRANCH  22  23
ENDBRANCH  20  22
ENDBRANCH   4  19
BRANCH   7  27
ATOM     27  C   UNL     1      -5.772  13.133  68.096  0.00  0.00    +0.266 C 
ATOM     28  N   UNL     1      -5.630  12.399  69.303  0.00  0.00    -0.199 NA
ATOM     29  O   UNL     1      -5.024  12.794  67.143  0.00  0.00    -0.268 OA
BRANCH  28  30
ATOM     30  C   UNL     1      -4.327  11.914  69.756  0.00  0.00    +0.151 C 
BRANCH  30  31
ATOM     31  C   UNL     1      -4.258  12.284  71.234  0.00  0.00    +0.205 C 
ATOM     32  O   UNL     1      -5.557  12.673  71.599  0.00  0.00    -0.218 OA
ENDBRANCH  30  31
ENDBRANCH  28  30
ENDBRANCH   7  27
TORSDOF 11
ENDMDL
MODEL 3
REMARK VINA RESULT:      -5.5      2.637      6.098
REMARK  Name = 
REMARK  11 active torsions:
REMARK  status: ('A' for Active; 'I' for Inactive)
REMARK    1  A    between atoms: N_4  and  C_5
REMARK    2  A    between atoms: N_4  and  C_10
REMARK    3  A    between atoms: C_5  and  C_6
REMARK    4  A    between atoms: C_6  and  C_8
REMARK    5  A    between atoms: C_13  and  C_14
REMARK    6  A    between atoms: N_16  and  C_17
REMARK    7  A    between atoms: C_17  and  C_18
REMARK    8  A    between atoms: C_22  and  C_23
REMARK    9  A    between atoms: N_25  and  C_26
REMARK   10  A    between atoms: C_26  and  C_27
REMARK   11  A    between atoms: C_27  and  C_29
REMARK                            x       y       z     vdW  Elec       q    Type
REMARK                         _______ _______ _______ _____ _____    ______ ____
ROOT
ATOM      1  C   UNL     1      -7.132  16.193  68.052  0.00  0.00    +0.065 A 
ATOM      2  C   UNL     1      -8.401  15.760  68.383  0.00  0.00    +0.049 A 
ATOM      3  I   UNL     1      -9.941  17.135  68.782  0.00  0.00    -0.041 I 
ATOM      4  C   UNL     1      -8.723  14.423  68.180  0.00  0.00    +0.067 A 
ATOM      5  C   UNL     1      -7.712  13.493  68.194  0.00  0.00    +0.040 A 
ATOM      6  I   UNL     1      -8.167  11.456  67.871  0.00  0.00    -0.042 I 
ATOM      7  C   UNL     1      -6.446  13.944  67.860  0.00  0.00    +0.067 A 
ATOM      8  C   UNL     1      -6.110  15.269  68.101  0.00  0.00    +0.049 A 
ATOM      9  I   UNL     1      -4.095  15.864  68.337  0.00  0.00    -0.041 I 
ENDROOT
BRANCH   1  12
ATOM     10  C   UNL     1      -6.807  17.597  65.714  0.00  0.00    +0.095 C 
ATOM     11  C   UNL     1      -6.871  18.238  66.762  0.00  0.00    +0.230 C 
ATOM     12  N   UNL     1      -6.800  17.576  68.028  0.00  0.00    -0.255 N 
ATOM     13  O   UNL     1      -7.332  19.420  66.759  0.00  0.00    -0.275 OA
BRANCH  12  14
ATOM     14  C   UNL     1      -6.918  18.293  69.294  0.00  0.00    +0.134 C 
BRANCH  14  15
ATOM     15  C   UNL     1      -5.361  18.921  69.445  0.00  0.00    +0.205 C 
ATOM     16  O   UNL     1      -5.339  18.587  70.960  0.00  0.00    -0.218 OA
BRANCH  15  17
ATOM     17  C   UNL     1      -5.976  20.458  69.756  0.00  0.00    +0.217 C 
ATOM     18  O   UNL     1      -6.167  20.397  71.146  0.00  0.00    -0.218 OA
ENDBRANCH  15  17
ENDBRANCH  14  15
ENDBRANCH  12  14
ENDBRANCH   1  12
BRANCH   4  19
ATOM     19  C   UNL     1     -10.124  14.076  67.912  0.00  0.00    +0.266 C 
ATOM     20  N   UNL     1     -10.548  13.901  66.554  0.00  0.00    -0.199 NA
ATOM     21  O   UNL     1     -10.823  13.444  68.762  0.00  0.00    -0.268 OA
BRANCH  20  22
ATOM     22  C   UNL     1     -11.959  14.161  66.274  0.00  0.00    +0.151 C 
BRANCH  22  23
ATOM     23  C   UNL     1     -11.804  14.449  64.620  0.00  0.00    +0.206 C 
ATOM     24  O   UNL     1     -10.467  13.664  64.573  0.00  0.00    -0.218 OA
BRANCH  23  25
ATOM     25  C   UNL     1     -10.984  15.890  64.914  0.00  0.00    +0.217 C 
ATOM     26  O   UNL     1     -11.546  16.681  63.899  0.00  0.00    -0.218 OA
ENDBRANCH  23  25
ENDBRANCH  22  23
ENDBRANCH  20  22
ENDBRANCH   4  19
BRANCH   7  27
ATOM     27  C   UNL     1      -5.333  12.988  67.921  0.00  0.00    +0.266 C 
ATOM     28  N   UNL     1      -4.714  12.448  66.763  0.00  0.00    -0.199 NA
ATOM     29  O   UNL     1      -5.131  12.377  69.001  0.00  0.00    -0.268 OA
BRANCH  28  30
ATOM     30  C   UNL     1      -4.569  11.005  66.575  0.00  0.00    +0.151 C 
BRANCH  30  31
ATOM     31  C   UNL     1      -5.163  10.723  65.198  0.00  0.00    +0.205 C 
ATOM     32  O   UNL     1      -4.360  11.417  64.279  0.00  0.00    -0.218 OA
ENDBRANCH  30  31
ENDBRANCH  28  30
ENDBRANCH   7  27
TORSDOF 11
ENDMDL
MODEL 4
REMARK VINA RESULT:      -5.4      3.332      8.266
REMARK  Name = 
REMARK  11 active torsions:
REMARK  status: ('A' for Active; 'I' for Inactive)
REMARK    1  A    between atoms: N_4  and  C_5
REMARK    2  A    between atoms: N_4  and  C_10
REMARK    3  A    between atoms: C_5  and  C_6
REMARK    4  A    between atoms: C_6  and  C_8
REMARK    5  A    between atoms: C_13  and  C_14
REMARK    6  A    between atoms: N_16  and  C_17
REMARK    7  A    between atoms: C_17  and  C_18
REMARK    8  A    between atoms: C_22  and  C_23
REMARK    9  A    between atoms: N_25  and  C_26
REMARK   10  A    between atoms: C_26  and  C_27
REMARK   11  A    between atoms: C_27  and  C_29
REMARK                            x       y       z     vdW  Elec       q    Type
REMARK                         _______ _______ _______ _____ _____    ______ ____
ROOT
ATOM      1  C   UNL     1      -9.077  13.409  66.725  0.00  0.00    +0.065 A 
ATOM      2  C   UNL     1      -8.863  14.773  66.693  0.00  0.00    +0.049 A 
ATOM      3  I   UNL     1     -10.363  16.084  66.018  0.00  0.00    -0.041 I 
ATOM      4  C   UNL     1      -7.763  15.291  67.365  0.00  0.00    +0.067 A 
ATOM      5  C   UNL     1      -6.669  14.483  67.559  0.00  0.00    +0.040 A 
ATOM      6  I   UNL     1      -4.989  15.237  68.594  0.00  0.00    -0.042 I 
ATOM      7  C   UNL     1      -6.900  13.119  67.589  0.00  0.00    +0.067 A 
ATOM      8  C   UNL     1      -7.975  12.595  66.883  0.00  0.00    +0.049 A 
ATOM      9  I   UNL     1      -7.995  10.577  66.253  0.00  0.00    -0.041 I 
ENDROOT
BRANCH   1  12
ATOM     10  C   UNL     1     -10.951  12.306  68.402  0.00  0.00    +0.095 C 
ATOM     11  C   UNL     1     -11.271  12.489  67.228  0.00  0.00    +0.230 C 
ATOM     12  N   UNL     1     -10.287  12.833  66.248  0.00  0.00    -0.255 N 
ATOM     13  O   UNL     1     -12.482  12.713  66.926  0.00  0.00    -0.275 OA
BRANCH  12  14
ATOM     14  C   UNL     1     -10.630  13.105  64.856  0.00  0.00    +0.134 C 
BRANCH  14  15
ATOM     15  C   UNL     1     -10.953  11.546  64.302  0.00  0.00    +0.205 C 
ATOM     16  O   UNL     1     -10.014  11.750  63.084  0.00  0.00    -0.218 OA
BRANCH  15  17
ATOM     17  C   UNL     1     -12.278  12.099  63.421  0.00  0.00    +0.217 C 
ATOM     18  O   UNL     1     -12.259  13.468  63.734  0.00  0.00    -0.218 OA
ENDBRANCH  15  17
ENDBRANCH  14  15
ENDBRANCH  12  14
ENDBRANCH   1  12
BRANCH   4  19
ATOM     19  C   UNL     1      -7.843  16.665  67.879  0.00  0.00    +0.266 C 
ATOM     20  N   UNL     1      -7.515  17.753  67.005  0.00  0.00    -0.199 NA
ATOM     21  O   UNL     1      -8.637  16.974  68.820  0.00  0.00    -0.268 OA
BRANCH  20  22
ATOM     22  C   UNL     1      -7.020  18.972  67.641  0.00  0.00    +0.151 C 
BRANCH  22  23
ATOM     23  C   UNL     1      -7.615  20.068  66.508  0.00  0.00    +0.206 C 
ATOM     24  O   UNL     1      -7.025  21.263  67.300  0.00  0.00    -0.218 OA
BRANCH  23  25
ATOM     25  C   UNL     1      -9.072  20.192  67.343  0.00  0.00    +0.217 C 
ATOM     26  O   UNL     1      -9.962  20.000  66.275  0.00  0.00    -0.218 OA
ENDBRANCH  23  25
ENDBRANCH  22  23
ENDBRANCH  20  22
ENDBRANCH   4  19
BRANCH   7  27
ATOM     27  C   UNL     1      -5.745  12.225  67.737  0.00  0.00    +0.266 C 
ATOM     28  N   UNL     1      -5.494  11.475  68.917  0.00  0.00    -0.199 NA
ATOM     29  O   UNL     1      -4.778  12.365  66.946  0.00  0.00    -0.268 OA
BRANCH  28  30
ATOM     30  C   UNL     1      -4.208  11.542  69.608  0.00  0.00    +0.151 C 
BRANCH  30  31
ATOM     31  C   UNL     1      -4.530  12.088  70.995  0.00  0.00    +0.205 C 
ATOM     32  O   UNL     1      -5.626  11.344  71.461  0.00  0.00    -0.218 OA
ENDBRANCH  30  31
ENDBRANCH  28  30
ENDBRANCH   7  27
TORSDOF 11
ENDMDL
MODEL 5
REMARK VINA RESULT:      -5.4      2.337      5.734
REMARK  Name = 
REMARK  11 active torsions:
REMARK  status: ('A' for Active; 'I' for Inactive)
REMARK    1  A    between atoms: N_4  and  C_5
REMARK    2  A    between atoms: N_4  and  C_10
REMARK    3  A    between atoms: C_5  and  C_6
REMARK    4  A    between atoms: C_6  and  C_8
REMARK    5  A    between atoms: C_13  and  C_14
REMARK    6  A    between atoms: N_16  and  C_17
REMARK    7  A    between atoms: C_17  and  C_18
REMARK    8  A    between atoms: C_22  and  C_23
REMARK    9  A    between atoms: N_25  and  C_26
REMARK   10  A    between atoms: C_26  and  C_27
REMARK   11  A    between atoms: C_27  and  C_29
REMARK                            x       y       z     vdW  Elec       q    Type
REMARK                         _______ _______ _______ _____ _____    ______ ____
ROOT
ATOM      1  C   UNL     1      -6.833  17.504  67.934  0.00  0.00    +0.065 A 
ATOM      2  C   UNL     1      -8.127  17.042  68.075  0.00  0.00    +0.049 A 
ATOM      3  I   UNL     1      -9.745  18.381  68.182  0.00  0.00    -0.041 I 
ATOM      4  C   UNL     1      -8.378  15.692  67.867  0.00  0.00    +0.067 A 
ATOM      5  C   UNL     1      -7.359  14.793  68.070  0.00  0.00    +0.040 A 
ATOM      6  I   UNL     1      -7.706  12.735  67.745  0.00  0.00    -0.042 I 
ATOM      7  C   UNL     1      -6.069  15.272  67.926  0.00  0.00    +0.067 A 
ATOM      8  C   UNL     1      -5.809  16.613  68.174  0.00  0.00    +0.049 A 
ATOM      9  I   UNL     1      -3.872  17.276  68.705  0.00  0.00    -0.041 I 
ENDROOT
BRANCH   1  12
ATOM     10  C   UNL     1      -5.923  18.797  65.689  0.00  0.00    +0.095 C 
ATOM     11  C   UNL     1      -6.279  19.489  66.643  0.00  0.00    +0.230 C 
ATOM     12  N   UNL     1      -6.537  18.895  67.918  0.00  0.00    -0.255 N 
ATOM     13  O   UNL     1      -6.748  20.651  66.446  0.00  0.00    -0.275 OA
BRANCH  12  14
ATOM     14  C   UNL     1      -7.006  19.672  69.062  0.00  0.00    +0.134 C 
BRANCH  14  15
ATOM     15  C   UNL     1      -5.677  19.549  70.091  0.00  0.00    +0.205 C 
ATOM     16  O   UNL     1      -6.448  20.273  71.225  0.00  0.00    -0.218 OA
BRANCH  15  17
ATOM     17  C   UNL     1      -5.062  21.012  69.525  0.00  0.00    +0.217 C 
ATOM     18  O   UNL     1      -4.761  21.663  70.733  0.00  0.00    -0.218 OA
ENDBRANCH  15  17
ENDBRANCH  14  15
ENDBRANCH  12  14
ENDBRANCH   1  12
BRANCH   4  19
ATOM     19  C   UNL     1      -9.711  15.295  67.393  0.00  0.00    +0.266 C 
ATOM     20  N   UNL     1      -9.885  14.965  66.009  0.00  0.00    -0.199 NA
ATOM     21  O   UNL     1     -10.553  14.749  68.170  0.00  0.00    -0.268 OA
BRANCH  20  22
ATOM     22  C   UNL     1     -11.222  15.171  65.454  0.00  0.00    +0.151 C 
BRANCH  22  23
ATOM     23  C   UNL     1     -11.257  13.811  64.460  0.00  0.00    +0.206 C 
ATOM     24  O   UNL     1     -12.537  14.320  63.748  0.00  0.00    -0.218 OA
BRANCH  23  25
ATOM     25  C   UNL     1     -12.180  12.968  65.587  0.00  0.00    +0.217 C 
ATOM     26  O   UNL     1     -13.206  12.511  64.745  0.00  0.00    -0.218 OA
ENDBRANCH  23  25
ENDBRANCH  22  23
ENDBRANCH  20  22
ENDBRANCH   4  19
BRANCH   7  27
ATOM     27  C   UNL     1      -4.956  14.353  68.192  0.00  0.00    +0.266 C 
ATOM     28  N   UNL     1      -4.643  13.873  69.491  0.00  0.00    -0.199 NA
ATOM     29  O   UNL     1      -4.055  14.239  67.321  0.00  0.00    -0.268 OA
BRANCH  28  30
ATOM     30  C   UNL     1      -3.299  14.000  70.052  0.00  0.00    +0.151 C 
BRANCH  30  31
ATOM     31  C   UNL     1      -3.500  14.019  71.564  0.00  0.00    +0.205 C 
ATOM     32  O   UNL     1      -4.215  15.193  71.847  0.00  0.00    -0.218 OA
ENDBRANCH  30  31
ENDBRANCH  28  30
ENDBRANCH   7  27
TORSDOF 11
ENDMDL
MODEL 6
REMARK VINA RESULT:      -5.3      3.317      5.116
REMARK  Name = 
REMARK  11 active torsions:
REMARK  status: ('A' for Active; 'I' for Inactive)
REMARK    1  A    between atoms: N_4  and  C_5
REMARK    2  A    between atoms: N_4  and  C_10
REMARK    3  A    between atoms: C_5  and  C_6
REMARK    4  A    between atoms: C_6  and  C_8
REMARK    5  A    between atoms: C_13  and  C_14
REMARK    6  A    between atoms: N_16  and  C_17
REMARK    7  A    between atoms: C_17  and  C_18
REMARK    8  A    between atoms: C_22  and  C_23
REMARK    9  A    between atoms: N_25  and  C_26
REMARK   10  A    between atoms: C_26  and  C_27
REMARK   11  A    between atoms: C_27  and  C_29
REMARK                            x       y       z     vdW  Elec       q    Type
REMARK                         _______ _______ _______ _____ _____    ______ ____
ROOT
ATOM      1  C   UNL     1      -9.010  14.909  67.395  0.00  0.00    +0.065 A 
ATOM      2  C   UNL     1      -7.633  14.807  67.420  0.00  0.00    +0.049 A 
ATOM      3  I   UNL     1      -6.431  16.506  67.721  0.00  0.00    -0.041 I 
ATOM      4  C   UNL     1      -7.060  13.546  67.522  0.00  0.00    +0.067 A 
ATOM      5  C   UNL     1      -7.767  12.462  67.062  0.00  0.00    +0.040 A 
ATOM      6  I   UNL     1      -6.930  10.529  67.221  0.00  0.00    -0.042 I 
ATOM      7  C   UNL     1      -9.146  12.580  67.043  0.00  0.00    +0.067 A 
ATOM      8  C   UNL     1      -9.719  13.836  66.898  0.00  0.00    +0.049 A 
ATOM      9  I   UNL     1     -11.676  14.067  66.130  0.00  0.00    -0.041 I 
ENDROOT
BRANCH   1  12
ATOM     10  C   UNL     1     -10.306  15.700  69.683  0.00  0.00    +0.095 C 
ATOM     11  C   UNL     1     -10.115  16.548  68.811  0.00  0.00    +0.230 C 
ATOM     12  N   UNL     1      -9.666  16.166  67.508  0.00  0.00    -0.255 N 
ATOM     13  O   UNL     1      -9.979  17.768  69.130  0.00  0.00    -0.275 OA
BRANCH  12  14
ATOM     14  C   UNL     1      -9.382  17.142  66.461  0.00  0.00    +0.134 C 
BRANCH  14  15
ATOM     15  C   UNL     1     -10.875  17.916  66.340  0.00  0.00    +0.205 C 
ATOM     16  O   UNL     1     -10.944  17.614  64.821  0.00  0.00    -0.218 OA
BRANCH  15  17
ATOM     17  C   UNL     1     -10.122  19.394  66.050  0.00  0.00    +0.217 C 
ATOM     18  O   UNL     1      -8.789  18.988  65.872  0.00  0.00    -0.218 OA
ENDBRANCH  15  17
ENDBRANCH  14  15
ENDBRANCH  12  14
ENDBRANCH   1  12
BRANCH   4  19
ATOM     19  C   UNL     1      -5.744  13.427  68.164  0.00  0.00    +0.266 C 
ATOM     20  N   UNL     1      -5.674  13.006  69.532  0.00  0.00    -0.199 NA
ATOM     21  O   UNL     1      -4.699  13.179  67.488  0.00  0.00    -0.268 OA
BRANCH  20  22
ATOM     22  C   UNL     1      -4.514  13.463  70.295  0.00  0.00    +0.151 C 
BRANCH  22  23
ATOM     23  C   UNL     1      -5.331  14.520  71.323  0.00  0.00    +0.206 C 
ATOM     24  O   UNL     1      -4.159  15.534  71.270  0.00  0.00    -0.218 OA
BRANCH  23  25
ATOM     25  C   UNL     1      -4.665  13.772  72.677  0.00  0.00    +0.217 C 
ATOM     26  O   UNL     1      -5.762  13.862  73.548  0.00  0.00    -0.218 OA
ENDBRANCH  23  25
ENDBRANCH  22  23
ENDBRANCH  20  22
ENDBRANCH   4  19
BRANCH   7  27
ATOM     27  C   UNL     1      -9.929  11.462  66.503  0.00  0.00    +0.266 C 
ATOM     28  N   UNL     1     -10.720  10.608  67.316  0.00  0.00    -0.199 NA
ATOM     29  O   UNL     1      -9.647  11.036  65.354  0.00  0.00    -0.268 OA
BRANCH  28  30
ATOM     30  C   UNL     1     -10.568   9.154  67.276  0.00  0.00    +0.151 C 
BRANCH  30  31
ATOM     31  C   UNL     1     -10.256   8.747  68.712  0.00  0.00    +0.205 C 
ATOM     32  O   UNL     1     -10.928   9.667  69.532  0.00  0.00    -0.218 OA
ENDBRANCH  30  31
ENDBRANCH  28  30
ENDBRANCH   7  27
TORSDOF 11
ENDMDL
MODEL 7
REMARK VINA RESULT:      -5.2      2.767      7.224
REMARK  Name = 
REMARK  11 active torsions:
REMARK  status: ('A' for Active; 'I' for Inactive)
REMARK    1  A    between atoms: N_4  and  C_5
REMARK    2  A    between atoms: N_4  and  C_10
REMARK    3  A    between atoms: C_5  and  C_6
REMARK    4  A    between atoms: C_6  and  C_8
REMARK    5  A    between atoms: C_13  and  C_14
REMARK    6  A    between atoms: N_16  and  C_17
REMARK    7  A    between atoms: C_17  and  C_18
REMARK    8  A    between atoms: C_22  and  C_23
REMARK    9  A    between atoms: N_25  and  C_26
REMARK   10  A    between atoms: C_26  and  C_27
REMARK   11  A    between atoms: C_27  and  C_29
REMARK                            x       y       z     vdW  Elec       q    Type
REMARK                         _______ _______ _______ _____ _____    ______ ____
ROOT
ATOM      1  C   UNL     1      -8.578  13.922  67.781  0.00  0.00    +0.065 A 
ATOM      2  C   UNL     1      -7.724  14.966  67.484  0.00  0.00    +0.049 A 
ATOM      3  I   UNL     1      -8.406  16.652  66.428  0.00  0.00    -0.041 I 
ATOM      4  C   UNL     1      -6.491  15.020  68.123  0.00  0.00    +0.067 A 
ATOM      5  C   UNL     1      -5.930  13.850  68.571  0.00  0.00    +0.040 A 
ATOM      6  I   UNL     1      -4.065  13.903  69.563  0.00  0.00    -0.042 I 
ATOM      7  C   UNL     1      -6.800  12.814  68.865  0.00  0.00    +0.067 A 
ATOM      8  C   UNL     1      -8.014  12.735  68.196  0.00  0.00    +0.049 A 
ATOM      9  I   UNL     1      -9.041  10.897  68.000  0.00  0.00    -0.041 I 
ENDROOT
BRANCH   1  12
ATOM     10  C   UNL     1     -10.694  14.401  69.465  0.00  0.00    +0.095 C 
ATOM     11  C   UNL     1     -10.918  14.388  68.255  0.00  0.00    +0.230 C 
ATOM     12  N   UNL     1      -9.929  13.915  67.335  0.00  0.00    -0.255 N 
ATOM     13  O   UNL     1     -11.859  15.090  67.774  0.00  0.00    -0.275 OA
BRANCH  12  14
ATOM     14  C   UNL     1     -10.135  13.927  65.891  0.00  0.00    +0.134 C 
BRANCH  14  15
ATOM     15  C   UNL     1     -11.301  12.720  65.730  0.00  0.00    +0.205 C 
ATOM     16  O   UNL     1     -10.416  11.957  64.710  0.00  0.00    -0.218 OA
BRANCH  15  17
ATOM     17  C   UNL     1     -12.059  13.573  64.491  0.00  0.00    +0.217 C 
ATOM     18  O   UNL     1     -13.240  13.987  65.130  0.00  0.00    -0.218 OA
ENDBRANCH  15  17
ENDBRANCH  14  15
ENDBRANCH  12  14
ENDBRANCH   1  12
BRANCH   4  19
ATOM     19  C   UNL     1      -5.871  16.335  68.331  0.00  0.00    +0.266 C 
ATOM     20  N   UNL     1      -5.986  16.962  69.614  0.00  0.00    -0.199 NA
ATOM     21  O   UNL     1      -4.856  16.701  67.661  0.00  0.00    -0.268 OA
BRANCH  20  22
ATOM     22  C   UNL     1      -5.926  18.423  69.634  0.00  0.00    +0.151 C 
BRANCH  22  23
ATOM     23  C   UNL     1      -4.513  18.570  70.540  0.00  0.00    +0.206 C 
ATOM     24  O   UNL     1      -4.944  17.406  71.468  0.00  0.00    -0.218 OA
BRANCH  23  25
ATOM     25  C   UNL     1      -5.243  19.695  71.558  0.00  0.00    +0.217 C 
ATOM     26  O   UNL     1      -4.129  20.056  72.333  0.00  0.00    -0.218 OA
ENDBRANCH  23  25
ENDBRANCH  22  23
ENDBRANCH  20  22
ENDBRANCH   4  19
BRANCH   7  27
ATOM     27  C   UNL     1      -6.228  11.531  69.292  0.00  0.00    +0.266 C 
ATOM     28  N   UNL     1      -6.263  11.078  70.637  0.00  0.00    -0.199 NA
ATOM     29  O   UNL     1      -5.403  10.963  68.531  0.00  0.00    -0.268 OA
BRANCH  28  30
ATOM     30  C   UNL     1      -5.049  10.660  71.336  0.00  0.00    +0.151 C 
BRANCH  30  31
ATOM     31  C   UNL     1      -5.366   9.274  71.888  0.00  0.00    +0.205 C 
ATOM     32  O   UNL     1      -6.765   9.206  71.989  0.00  0.00    -0.218 OA
ENDBRANCH  30  31
ENDBRANCH  28  30
ENDBRANCH   7  27
TORSDOF 11
ENDMDL
MODEL 8
REMARK VINA RESULT:      -5.2      2.679      7.394
REMARK  Name = 
REMARK  11 active torsions:
REMARK  status: ('A' for Active; 'I' for Inactive)
REMARK    1  A    between atoms: N_4  and  C_5
REMARK    2  A    between atoms: N_4  and  C_10
REMARK    3  A    between atoms: C_5  and  C_6
REMARK    4  A    between atoms: C_6  and  C_8
REMARK    5  A    between atoms: C_13  and  C_14
REMARK    6  A    between atoms: N_16  and  C_17
REMARK    7  A    between atoms: C_17  and  C_18
REMARK    8  A    between atoms: C_22  and  C_23
REMARK    9  A    between atoms: N_25  and  C_26
REMARK   10  A    between atoms: C_26  and  C_27
REMARK   11  A    between atoms: C_27  and  C_29
REMARK                            x       y       z     vdW  Elec       q    Type
REMARK                         _______ _______ _______ _____ _____    ______ ____
ROOT
ATOM      1  C   UNL     1      -8.461  14.868  67.340  0.00  0.00    +0.065 A 
ATOM      2  C   UNL     1      -7.790  16.061  67.155  0.00  0.00    +0.049 A 
ATOM      3  I   UNL     1      -8.829  17.813  66.630  0.00  0.00    -0.041 I 
ATOM      4  C   UNL     1      -6.473  16.158  67.586  0.00  0.00    +0.067 A 
ATOM      5  C   UNL     1      -5.719  15.013  67.662  0.00  0.00    +0.040 A 
ATOM      6  I   UNL     1      -3.718  15.126  68.332  0.00  0.00    -0.042 I 
ATOM      7  C   UNL     1      -6.406  13.826  67.848  0.00  0.00    +0.067 A 
ATOM      8  C   UNL     1      -7.709  13.714  67.380  0.00  0.00    +0.049 A 
ATOM      9  I   UNL     1      -8.557  11.828  66.938  0.00  0.00    -0.041 I 
ENDROOT
BRANCH   1  12
ATOM     10  C   UNL     1     -10.277  14.840  69.400  0.00  0.00    +0.095 C 
ATOM     11  C   UNL     1     -10.712  14.973  68.256  0.00  0.00    +0.230 C 
ATOM     12  N   UNL     1      -9.863  14.761  67.124  0.00  0.00    -0.255 N 
ATOM     13  O   UNL     1     -11.786  15.616  68.054  0.00  0.00    -0.275 OA
BRANCH  12  14
ATOM     14  C   UNL     1     -10.325  14.954  65.753  0.00  0.00    +0.134 C 
BRANCH  14  15
ATOM     15  C   UNL     1     -11.289  13.586  65.551  0.00  0.00    +0.205 C 
ATOM     16  O   UNL     1     -10.608  13.267  64.195  0.00  0.00    -0.218 OA
BRANCH  15  17
ATOM     17  C   UNL     1     -12.478  14.498  64.781  0.00  0.00    +0.217 C 
ATOM     18  O   UNL     1     -12.541  13.860  63.531  0.00  0.00    -0.218 OA
ENDBRANCH  15  17
ENDBRANCH  14  15
ENDBRANCH  12  14
ENDBRANCH   1  12
BRANCH   4  19
ATOM     19  C   UNL     1      -5.966  17.478  67.985  0.00  0.00    +0.266 C 
ATOM     20  N   UNL     1      -5.872  17.792  69.380  0.00  0.00    -0.199 NA
ATOM     21  O   UNL     1      -5.160  18.126  67.249  0.00  0.00    -0.268 OA
BRANCH  20  22
ATOM     22  C   UNL     1      -5.964  19.207  69.736  0.00  0.00    +0.151 C 
BRANCH  22  23
ATOM     23  C   UNL     1      -4.396  19.385  70.328  0.00  0.00    +0.206 C 
ATOM     24  O   UNL     1      -4.493  18.039  71.091  0.00  0.00    -0.218 OA
BRANCH  23  25
ATOM     25  C   UNL     1      -4.962  20.225  71.672  0.00  0.00    +0.217 C 
ATOM     26  O   UNL     1      -3.814  20.164  72.478  0.00  0.00    -0.218 OA
ENDBRANCH  23  25
ENDBRANCH  22  23
ENDBRANCH  20  22
ENDBRANCH   4  19
BRANCH   7  27
ATOM     27  C   UNL     1      -5.635  12.577  67.877  0.00  0.00    +0.266 C 
ATOM     28  N   UNL     1      -4.991  12.039  66.731  0.00  0.00    -0.199 NA
ATOM     29  O   UNL     1      -5.812  11.789  68.841  0.00  0.00    -0.268 OA
BRANCH  28  30
ATOM     30  C   UNL     1      -5.223  10.663  66.297  0.00  0.00    +0.151 C 
BRANCH  30  31
ATOM     31  C   UNL     1      -5.118  10.703  64.776  0.00  0.00    +0.205 C 
ATOM     32  O   UNL     1      -4.025  11.534  64.483  0.00  0.00    -0.218 OA
ENDBRANCH  30  31
ENDBRANCH  28  30
ENDBRANCH   7  27
TORSDOF 11
ENDMDL
MODEL 9
REMARK VINA RESULT:      -5.2      1.829      6.933
REMARK  Name = 
REMARK  11 active torsions:
REMARK  status: ('A' for Active; 'I' for Inactive)
REMARK    1  A    between atoms: N_4  and  C_5
REMARK    2  A    between atoms: N_4  and  C_10
REMARK    3  A    between atoms: C_5  and  C_6
REMARK    4  A    between atoms: C_6  and  C_8
REMARK    5  A    between atoms: C_13  and  C_14
REMARK    6  A    between atoms: N_16  and  C_17
REMARK    7  A    between atoms: C_17  and  C_18
REMARK    8  A    between atoms: C_22  and  C_23
REMARK    9  A    between atoms: N_25  and  C_26
REMARK   10  A    between atoms: C_26  and  C_27
REMARK   11  A    between atoms: C_27  and  C_29
REMARK                            x       y       z     vdW  Elec       q    Type
REMARK                         _______ _______ _______ _____ _____    ______ ____
ROOT
ATOM      1  C   UNL     1      -9.009  15.045  67.816  0.00  0.00    +0.065 A 
ATOM      2  C   UNL     1      -8.478  16.281  67.500  0.00  0.00    +0.049 A 
ATOM      3  I   UNL     1      -9.730  17.933  67.142  0.00  0.00    -0.041 I 
ATOM      4  C   UNL     1      -7.119  16.490  67.692  0.00  0.00    +0.067 A 
ATOM      5  C   UNL     1      -6.273  15.409  67.650  0.00  0.00    +0.040 A 
ATOM      6  I   UNL     1      -4.202  15.694  67.957  0.00  0.00    -0.042 I 
ATOM      7  C   UNL     1      -6.820  14.178  67.969  0.00  0.00    +0.067 A 
ATOM      8  C   UNL     1      -8.171  13.953  67.739  0.00  0.00    +0.049 A 
ATOM      9  I   UNL     1      -8.929  11.996  67.478  0.00  0.00    -0.041 I 
ENDROOT
BRANCH   1  12
ATOM     10  C   UNL     1     -10.537  14.879  65.540  0.00  0.00    +0.095 C 
ATOM     11  C   UNL     1     -11.057  14.543  66.604  0.00  0.00    +0.230 C 
ATOM     12  N   UNL     1     -10.414  14.825  67.850  0.00  0.00    -0.255 N 
ATOM     13  O   UNL     1     -11.973  13.666  66.616  0.00  0.00    -0.275 OA
BRANCH  12  14
ATOM     14  C   UNL     1     -10.973  14.404  69.131  0.00  0.00    +0.134 C 
BRANCH  14  15
ATOM     15  C   UNL     1     -12.055  15.660  69.430  0.00  0.00    +0.205 C 
ATOM     16  O   UNL     1     -11.046  16.345  70.388  0.00  0.00    -0.218 OA
BRANCH  15  17
ATOM     17  C   UNL     1     -12.745  14.806  70.707  0.00  0.00    +0.217 C 
ATOM     18  O   UNL     1     -13.757  15.694  71.110  0.00  0.00    -0.218 OA
ENDBRANCH  15  17
ENDBRANCH  14  15
ENDBRANCH  12  14
ENDBRANCH   1  12
BRANCH   4  19
ATOM     19  C   UNL     1      -6.657  17.855  67.978  0.00  0.00    +0.266 C 
ATOM     20  N   UNL     1      -6.406  18.232  69.338  0.00  0.00    -0.199 NA
ATOM     21  O   UNL     1      -6.001  18.524  67.122  0.00  0.00    -0.268 OA
BRANCH  20  22
ATOM     22  C   UNL     1      -6.549  19.651  69.658  0.00  0.00    +0.151 C 
BRANCH  22  23
ATOM     23  C   UNL     1      -5.334  19.736  70.822  0.00  0.00    +0.206 C 
ATOM     24  O   UNL     1      -6.234  20.593  71.750  0.00  0.00    -0.218 OA
BRANCH  23  25
ATOM     25  C   UNL     1      -4.698  21.121  70.107  0.00  0.00    +0.217 C 
ATOM     26  O   UNL     1      -4.412  21.863  71.263  0.00  0.00    -0.218 OA
ENDBRANCH  23  25
ENDBRANCH  22  23
ENDBRANCH  20  22
ENDBRANCH   4  19
BRANCH   7  27
ATOM     27  C   UNL     1      -5.958  12.993  67.879  0.00  0.00    +0.266 C 
ATOM     28  N   UNL     1      -5.481  12.295  69.020  0.00  0.00    -0.199 NA
ATOM     29  O   UNL     1      -5.355  12.776  66.798  0.00  0.00    -0.268 OA
BRANCH  28  30
ATOM     30  C   UNL     1      -4.057  12.027  69.214  0.00  0.00    +0.151 C 
BRANCH  30  31
ATOM     31  C   UNL     1      -3.846  12.077  70.724  0.00  0.00    +0.205 C 
ATOM     32  O   UNL     1      -3.515  13.407  71.027  0.00  0.00    -0.218 OA
ENDBRANCH  30  31
ENDBRANCH  28  30
ENDBRANCH   7  27
TORSDOF 11
ENDMDL
