MODEL 1
REMARK VINA RESULT:      -5.1      0.000      0.000
REMARK  Name = 
REMARK  2 active torsions:
REMARK  status: ('A' for Active; 'I' for Inactive)
REMARK    1  A    between atoms: N_2  and  C_3
REMARK    2  A    between atoms: C_3  and  C_4
REMARK                            x       y       z     vdW  Elec       q    Type
REMARK                         _______ _______ _______ _____ _____    ______ ____
ROOT
ATOM      1  C   UNL     1     -11.081  13.253  66.282  0.00  0.00    +0.130 C 
ATOM      2  C   UNL     1     -12.006  13.714  65.216  0.00  0.00    +0.168 C 
ATOM      3  O   UNL     1     -13.127  14.128  65.505  0.00  0.00    -0.294 OA
ATOM      4  C   UNL     1     -11.900  13.016  63.895  0.00  0.00    +0.066 C 
ATOM      5  C   UNL     1     -10.770  12.032  64.006  0.00  0.00    +0.008 C 
ATOM      6  C   UNL     1     -10.925  11.075  65.156  0.00  0.00    +0.003 C 
ATOM      7  C   UNL     1     -11.246  11.769  66.451  0.00  0.00    +0.027 C 
ENDROOT
BRANCH   1   8
ATOM      8  C   UNL     1     -11.458  13.962  67.531  0.00  0.00    +0.009 A 
ATOM      9  C   UNL     1     -11.137  15.298  67.666  0.00  0.00    +0.055 A 
ATOM     10 CL   UNL     1     -10.719  16.177  66.224  0.00  0.00    -0.083 Cl
ATOM     11  C   UNL     1     -11.642  15.935  68.792  0.00  0.00    +0.011 A 
ATOM     12  C   UNL     1     -12.146  15.215  69.852  0.00  0.00    +0.001 A 
ATOM     13  C   UNL     1     -12.318  13.855  69.716  0.00  0.00    -0.000 A 
ATOM     14  C   UNL     1     -11.752  13.193  68.647  0.00  0.00    -0.002 A 
ENDBRANCH   1   8
BRANCH   1  16
ATOM     15  C   UNL     1      -9.196  13.418  66.407  0.00  0.00    +0.108 C 
ATOM     16  N   UNL     1      -9.695  13.628  66.004  0.00  0.00    -0.208 NA
ENDBRANCH   1  16
TORSDOF 2
ENDMDL
MODEL 2
REMARK VINA RESULT:      -5.0      2.844      3.875
REMARK  Name = 
REMARK  2 active torsions:
REMARK  status: ('A' for Active; 'I' for Inactive)
REMARK    1  A    between atoms: N_2  and  C_3
REMARK    2  A    between atoms: C_3  and  C_4
REMARK                            x       y       z     vdW  Elec       q    Type
REMARK                         _______ _______ _______ _____ _____    ______ ____
ROOT
ATOM      1  C   UNL     1     -10.264  16.026  66.507  0.00  0.00    +0.130 C 
ATOM      2  C   UNL     1     -10.685  15.959  65.085  0.00  0.00    +0.168 C 
ATOM      3  O   UNL     1     -11.324  16.882  64.584  0.00  0.00    -0.294 OA
ATOM      4  C   UNL     1     -10.995  14.596  64.546  0.00  0.00    +0.066 C 
ATOM      5  C   UNL     1     -10.708  13.612  65.645  0.00  0.00    +0.008 C 
ATOM      6  C   UNL     1     -11.445  13.913  66.921  0.00  0.00    +0.003 C 
ATOM      7  C   UNL     1     -11.308  15.347  67.349  0.00  0.00    +0.027 C 
ENDROOT
BRANCH   1   8
ATOM      8  C   UNL     1     -10.160  17.463  66.869  0.00  0.00    +0.009 A 
ATOM      9  C   UNL     1     -10.280  17.830  68.194  0.00  0.00    +0.055 A 
ATOM     10 CL   UNL     1     -10.105  16.583  69.396  0.00  0.00    -0.083 Cl
ATOM     11  C   UNL     1     -10.031  19.165  68.482  0.00  0.00    +0.011 A 
ATOM     12  C   UNL     1      -9.987  20.113  67.484  0.00  0.00    +0.001 A 
ATOM     13  C   UNL     1     -10.009  19.701  66.169  0.00  0.00    -0.000 A 
ATOM     14  C   UNL     1     -10.337  18.398  65.861  0.00  0.00    -0.002 A 
ENDBRANCH   1   8
BRANCH   1  16
ATOM     15  C   UNL     1      -8.384  15.781  66.487  0.00  0.00    +0.108 C 
ATOM     16  N   UNL     1      -8.932  15.458  66.711  0.00  0.00    -0.208 NA
ENDBRANCH   1  16
TORSDOF 2
ENDMDL
MODEL 3
REMARK VINA RESULT:      -5.0      1.923      4.658
REMARK  Name = 
REMARK  2 active torsions:
REMARK  status: ('A' for Active; 'I' for Inactive)
REMARK    1  A    between atoms: N_2  and  C_3
REMARK    2  A    between atoms: C_3  and  C_4
REMARK                            x       y       z     vdW  Elec       q    Type
REMARK                         _______ _______ _______ _____ _____    ______ ____
ROOT
ATOM      1  C   UNL     1     -10.994  13.208  67.005  0.00  0.00    +0.130 C 
ATOM      2  C   UNL     1     -11.420  12.226  68.033  0.00  0.00    +0.168 C 
ATOM      3  O   UNL     1     -12.158  11.291  67.728  0.00  0.00    -0.294 OA
ATOM      4  C   UNL     1     -11.591  12.750  69.425  0.00  0.00    +0.066 C 
ATOM      5  C   UNL     1     -11.192  14.198  69.403  0.00  0.00    +0.008 C 
ATOM      6  C   UNL     1     -11.943  15.008  68.382  0.00  0.00    +0.003 C 
ATOM      7  C   UNL     1     -11.952  14.366  67.023  0.00  0.00    +0.027 C 
ENDROOT
BRANCH   1   8
ATOM      8  C   UNL     1     -11.037  12.520  65.690  0.00  0.00    +0.009 A 
ATOM      9  C   UNL     1     -10.076  11.573  65.398  0.00  0.00    +0.055 A 
ATOM     10 CL   UNL     1      -9.152  10.925  66.724  0.00  0.00    -0.083 Cl
ATOM     11  C   UNL     1     -10.255  10.866  64.216  0.00  0.00    +0.011 A 
ATOM     12  C   UNL     1     -11.139  11.301  63.254  0.00  0.00    +0.001 A 
ATOM     13  C   UNL     1     -11.987  12.347  63.548  0.00  0.00    -0.000 A 
ATOM     14  C   UNL     1     -11.773  13.111  64.674  0.00  0.00    -0.002 A 
ENDBRANCH   1   8
BRANCH   1  16
ATOM     15  C   UNL     1      -9.355  14.148  66.839  0.00  0.00    +0.108 C 
ATOM     16  N   UNL     1      -9.608  13.634  67.197  0.00  0.00    -0.208 NA
ENDBRANCH   1  16
TORSDOF 2
ENDMDL
MODEL 4
REMARK VINA RESULT:      -5.0      3.329      5.564
REMARK  Name = 
REMARK  2 active torsions:
REMARK  status: ('A' for Active; 'I' for Inactive)
REMARK    1  A    between atoms: N_2  and  C_3
REMARK    2  A    between atoms: C_3  and  C_4
REMARK                            x       y       z     vdW  Elec       q    Type
REMARK                         _______ _______ _______ _____ _____    ______ ____
ROOT
ATOM      1  C   UNL     1      -9.604  17.576  66.822  0.00  0.00    +0.130 C 
ATOM      2  C   UNL     1     -10.075  17.687  68.225  0.00  0.00    +0.168 C 
ATOM      3  O   UNL     1     -10.987  16.970  68.630  0.00  0.00    -0.294 OA
ATOM      4  C   UNL     1     -10.003  19.048  68.846  0.00  0.00    +0.066 C 
ATOM      5  C   UNL     1      -9.371  19.962  67.834  0.00  0.00    +0.008 C 
ATOM      6  C   UNL     1     -10.082  19.965  66.508  0.00  0.00    +0.003 C 
ATOM      7  C   UNL     1     -10.346  18.581  65.986  0.00  0.00    +0.027 C 
ENDROOT
BRANCH   1   8
ATOM      8  C   UNL     1      -9.903  16.196  66.362  0.00  0.00    +0.009 A 
ATOM      9  C   UNL     1      -9.142  15.150  66.842  0.00  0.00    +0.055 A 
ATOM     10 CL   UNL     1      -8.185  15.436  68.268  0.00  0.00    -0.083 Cl
ATOM     11  C   UNL     1      -9.564  13.876  66.486  0.00  0.00    +0.011 A 
ATOM     12  C   UNL     1     -10.473  13.684  65.471  0.00  0.00    +0.001 A 
ATOM     13  C   UNL     1     -11.108  14.779  64.925  0.00  0.00    -0.000 A 
ATOM     14  C   UNL     1     -10.650  16.049  65.202  0.00  0.00    -0.002 A 
ENDBRANCH   1   8
BRANCH   1  16
ATOM     15  C   UNL     1      -7.858  17.800  66.114  0.00  0.00    +0.108 C 
ATOM     16  N   UNL     1      -8.153  17.733  66.717  0.00  0.00    -0.208 NA
ENDBRANCH   1  16
TORSDOF 2
ENDMDL
MODEL 5
REMARK VINA RESULT:      -4.9      2.023      3.000
REMARK  Name = 
REMARK  2 active torsions:
REMARK  status: ('A' for Active; 'I' for Inactive)
REMARK    1  A    between atoms: N_2  and  C_3
REMARK    2  A    between atoms: C_3  and  C_4
REMARK                            x       y       z     vdW  Elec       q    Type
REMARK                         _______ _______ _______ _____ _____    ______ ____
ROOT
ATOM      1  C   UNL     1     -10.924  13.768  66.053  0.00  0.00    +0.130 C 
ATOM      2  C   UNL     1     -10.191  12.732  66.822  0.00  0.00    +0.168 C 
ATOM      3  O   UNL     1      -9.239  13.048  67.534  0.00  0.00    -0.294 OA
ATOM      4  C   UNL     1     -10.102  11.375  66.196  0.00  0.00    +0.066 C 
ATOM      5  C   UNL     1     -10.888  11.428  64.917  0.00  0.00    +0.008 C 
ATOM      6  C   UNL     1     -10.444  12.525  63.989  0.00  0.00    +0.003 C 
ATOM      7  C   UNL     1     -10.325  13.856  64.677  0.00  0.00    +0.027 C 
ENDROOT
BRANCH   1   8
ATOM      8  C   UNL     1     -10.758  15.056  66.774  0.00  0.00    +0.009 A 
ATOM      9  C   UNL     1     -11.428  15.247  67.965  0.00  0.00    +0.055 A 
ATOM     10 CL   UNL     1     -12.061  13.840  68.771  0.00  0.00    -0.083 Cl
ATOM     11  C   UNL     1     -11.119  16.410  68.658  0.00  0.00    +0.011 A 
ATOM     12  C   UNL     1     -10.444  17.444  68.049  0.00  0.00    +0.001 A 
ATOM     13  C   UNL     1      -9.911  17.248  66.793  0.00  0.00    -0.000 A 
ATOM     14  C   UNL     1     -10.272  16.140  66.058  0.00  0.00    -0.002 A 
ENDBRANCH   1   8
BRANCH   1  16
ATOM     15  C   UNL     1     -12.762  13.849  65.593  0.00  0.00    +0.108 C 
ATOM     16  N   UNL     1     -12.362  13.506  66.015  0.00  0.00    -0.208 NA
ENDBRANCH   1  16
TORSDOF 2
ENDMDL
MODEL 6
REMARK VINA RESULT:      -4.9      3.276      5.330
REMARK  Name = 
REMARK  2 active torsions:
REMARK  status: ('A' for Active; 'I' for Inactive)
REMARK    1  A    between atoms: N_2  and  C_3
REMARK    2  A    between atoms: C_3  and  C_4
REMARK                            x       y       z     vdW  Elec       q    Type
REMARK                         _______ _______ _______ _____ _____    ______ ____
ROOT
ATOM      1  C   UNL     1      -9.219  17.029  67.710  0.00  0.00    +0.130 C 
ATOM      2  C   UNL     1     -10.061  18.194  68.076  0.00  0.00    +0.168 C 
ATOM      3  O   UNL     1     -11.093  18.434  67.452  0.00  0.00    -0.294 OA
ATOM      4  C   UNL     1      -9.342  19.393  68.612  0.00  0.00    +0.066 C 
ATOM      5  C   UNL     1      -7.886  19.033  68.698  0.00  0.00    +0.008 C 
ATOM      6  C   UNL     1      -7.315  18.549  67.394  0.00  0.00    +0.003 C 
ATOM      7  C   UNL     1      -8.160  17.487  66.747  0.00  0.00    +0.027 C 
ENDROOT
BRANCH   1   8
ATOM      8  C   UNL     1     -10.106  16.026  67.066  0.00  0.00    +0.009 A 
ATOM      9  C   UNL     1     -11.001  15.325  67.848  0.00  0.00    +0.055 A 
ATOM     10 CL   UNL     1     -11.352  15.951  69.433  0.00  0.00    -0.083 Cl
ATOM     11  C   UNL     1     -11.897  14.510  67.167  0.00  0.00    +0.011 A 
ATOM     12  C   UNL     1     -11.695  14.178  65.846  0.00  0.00    +0.001 A 
ATOM     13  C   UNL     1     -10.692  14.810  65.143  0.00  0.00    -0.000 A 
ATOM     14  C   UNL     1      -9.746  15.555  65.813  0.00  0.00    -0.002 A 
ENDBRANCH   1   8
BRANCH   1  16
ATOM     15  C   UNL     1      -8.174  15.899  68.818  0.00  0.00    +0.108 C 
ATOM     16  N   UNL     1      -8.650  16.372  68.887  0.00  0.00    -0.208 NA
ENDBRANCH   1  16
TORSDOF 2
ENDMDL
MODEL 7
REMARK VINA RESULT:      -4.8      5.649      6.868
REMARK  Name = 
REMARK  2 active torsions:
REMARK  status: ('A' for Active; 'I' for Inactive)
REMARK    1  A    between atoms: N_2  and  C_3
REMARK    2  A    between atoms: C_3  and  C_4
REMARK                            x       y       z     vdW  Elec       q    Type
REMARK                         _______ _______ _______ _____ _____    ______ ____
ROOT
ATOM      1  C   UNL     1      -8.270  18.655  67.111  0.00  0.00    +0.130 C 
ATOM      2  C   UNL     1      -9.322  19.593  66.647  0.00  0.00    +0.168 C 
ATOM      3  O   UNL     1      -9.496  20.665  67.225  0.00  0.00    -0.294 OA
ATOM      4  C   UNL     1     -10.552  18.976  66.057  0.00  0.00    +0.066 C 
ATOM      5  C   UNL     1     -10.333  17.490  66.036  0.00  0.00    +0.008 C 
ATOM      6  C   UNL     1      -9.988  16.920  67.384  0.00  0.00    +0.003 C 
ATOM      7  C   UNL     1      -8.889  17.679  68.073  0.00  0.00    +0.027 C 
ENDROOT
BRANCH   1   8
ATOM      8  C   UNL     1      -7.226  19.462  67.791  0.00  0.00    +0.009 A 
ATOM      9  C   UNL     1      -6.345  20.199  67.025  0.00  0.00    +0.055 A 
ATOM     10 CL   UNL     1      -6.771  20.494  65.364  0.00  0.00    -0.083 Cl
ATOM     11  C   UNL     1      -5.488  21.041  67.722  0.00  0.00    +0.011 A 
ATOM     12  C   UNL     1      -5.309  20.908  69.081  0.00  0.00    +0.001 A 
ATOM     13  C   UNL     1      -6.127  20.050  69.783  0.00  0.00    -0.000 A 
ATOM     14  C   UNL     1      -6.923  19.150  69.108  0.00  0.00    -0.002 A 
ENDBRANCH   1   8
BRANCH   1  16
ATOM     15  C   UNL     1      -7.197  17.457  66.105  0.00  0.00    +0.108 C 
ATOM     16  N   UNL     1      -7.604  17.985  65.995  0.00  0.00    -0.208 NA
ENDBRANCH   1  16
TORSDOF 2
ENDMDL
MODEL 8
REMARK VINA RESULT:      -4.8      1.454      1.871
REMARK  Name = 
REMARK  2 active torsions:
REMARK  status: ('A' for Active; 'I' for Inactive)
REMARK    1  A    between atoms: N_2  and  C_3
REMARK    2  A    between atoms: C_3  and  C_4
REMARK                            x       y       z     vdW  Elec       q    Type
REMARK                         _______ _______ _______ _____ _____    ______ ____
ROOT
ATOM      1  C   UNL     1     -11.091  13.242  66.231  0.00  0.00    +0.130 C 
ATOM      2  C   UNL     1     -12.163  13.721  65.323  0.00  0.00    +0.168 C 
ATOM      3  O   UNL     1     -13.298  13.917  65.754  0.00  0.00    -0.294 OA
ATOM      4  C   UNL     1     -12.087  13.257  63.901  0.00  0.00    +0.066 C 
ATOM      5  C   UNL     1     -10.831  12.443  63.769  0.00  0.00    +0.008 C 
ATOM      6  C   UNL     1     -10.749  11.310  64.754  0.00  0.00    +0.003 C 
ATOM      7  C   UNL     1     -11.040  11.742  66.164  0.00  0.00    +0.027 C 
ENDROOT
BRANCH   1   8
ATOM      8  C   UNL     1     -11.442  13.689  67.604  0.00  0.00    +0.009 A 
ATOM      9  C   UNL     1     -11.853  12.750  68.529  0.00  0.00    +0.055 A 
ATOM     10 CL   UNL     1     -11.518  11.077  68.184  0.00  0.00    -0.083 Cl
ATOM     11  C   UNL     1     -12.027  13.210  69.827  0.00  0.00    +0.011 A 
ATOM     12  C   UNL     1     -12.100  14.557  70.102  0.00  0.00    +0.001 A 
ATOM     13  C   UNL     1     -11.815  15.461  69.101  0.00  0.00    -0.000 A 
ATOM     14  C   UNL     1     -11.721  15.034  67.794  0.00  0.00    -0.002 A 
ENDBRANCH   1   8
BRANCH   1  16
ATOM     15  C   UNL     1      -9.340  13.949  66.408  0.00  0.00    +0.108 C 
ATOM     16  N   UNL     1      -9.799  13.855  65.923  0.00  0.00    -0.208 NA
ENDBRANCH   1  16
TORSDOF 2
ENDMDL
MODEL 9
REMARK VINA RESULT:      -4.8      3.552      5.175
REMARK  Name = 
REMARK  2 active torsions:
REMARK  status: ('A' for Active; 'I' for Inactive)
REMARK    1  A    between atoms: N_2  and  C_3
REMARK    2  A    between atoms: C_3  and  C_4
REMARK                            x       y       z     vdW  Elec       q    Type
REMARK                         _______ _______ _______ _____ _____    ______ ____
ROOT
ATOM      1  C   UNL     1      -9.245  17.591  67.047  0.00  0.00    +0.130 C 
ATOM      2  C   UNL     1      -8.062  16.855  66.535  0.00  0.00    +0.168 C 
ATOM      3  O   UNL     1      -7.712  15.801  67.063  0.00  0.00    -0.294 OA
ATOM      4  C   UNL     1      -6.953  17.688  65.968  0.00  0.00    +0.066 C 
ATOM      5  C   UNL     1      -7.408  19.119  66.017  0.00  0.00    +0.008 C 
ATOM      6  C   UNL     1      -7.824  19.565  67.392  0.00  0.00    +0.003 C 
ATOM      7  C   UNL     1      -8.779  18.609  68.050  0.00  0.00    +0.027 C 
ENDROOT
BRANCH   1   8
ATOM      8  C   UNL     1     -10.139  16.597  67.694  0.00  0.00    +0.009 A 
ATOM      9  C   UNL     1     -10.841  15.712  66.901  0.00  0.00    +0.055 A 
ATOM     10 CL   UNL     1     -10.317  15.513  65.253  0.00  0.00    -0.083 Cl
ATOM     11  C   UNL     1     -11.544  14.719  67.571  0.00  0.00    +0.011 A 
ATOM     12  C   UNL     1     -11.786  14.807  68.923  0.00  0.00    +0.001 A 
ATOM     13  C   UNL     1     -11.166  15.800  69.651  0.00  0.00    -0.000 A 
ATOM     14  C   UNL     1     -10.535  16.838  69.001  0.00  0.00    -0.002 A 
ENDBRANCH   1   8
BRANCH   1  16
ATOM     15  C   UNL     1     -10.473  18.681  66.098  0.00  0.00    +0.108 C 
ATOM     16  N   UNL     1     -10.023  18.195  65.966  0.00  0.00    -0.208 NA
ENDBRANCH   1  16
TORSDOF 2
ENDMDL
