MODEL 1
REMARK VINA RESULT:      -5.7      0.000      0.000
REMARK  Name = 
REMARK  4 active torsions:
REMARK  status: ('A' for Active; 'I' for Inactive)
REMARK    1  A    between atoms: C_2  and  C_4
REMARK    2  A    between atoms: C_4  and  C_5
REMARK    3  A    between atoms: C_8  and  C_9
REMARK    4  A    between atoms: C_9  and  C_11
REMARK                            x       y       z     vdW  Elec       q    Type
REMARK                         _______ _______ _______ _____ _____    ______ ____
ROOT
ATOM      1  C   UNL     1     -11.845  14.699  69.466  0.00  0.00    -0.022 A 
ATOM      2  C   UNL     1     -11.610  15.935  68.894  0.00  0.00    -0.005 A 
ATOM      3  C   UNL     1     -11.312  16.015  67.538  0.00  0.00    -0.004 A 
ATOM      4  C   UNL     1     -11.281  14.890  66.826  0.00  0.00    -0.012 A 
ATOM      5  C   UNL     1     -11.544  13.647  67.357  0.00  0.00    -0.004 A 
ATOM      6  C   UNL     1     -12.079  13.632  68.641  0.00  0.00    -0.005 A 
ENDROOT
BRANCH   4   7
ATOM      7  C   UNL     1     -10.450  14.841  65.420  0.00  0.00    +0.126 C 
ATOM      8  C   UNL     1     -10.894  13.271  65.051  0.00  0.00    +0.017 C 
BRANCH   7   9
ATOM      9  C   UNL     1     -11.683  15.489  64.563  0.00  0.00    +0.368 C 
ATOM     10  O   UNL     1     -11.319  16.741  64.115  0.00  0.00    -0.245 OA
ATOM     11  O   UNL     1     -12.463  14.709  64.031  0.00  0.00    -0.245 OA
ENDBRANCH   7   9
ENDBRANCH   4   7
BRANCH   1  12
ATOM     12  C   UNL     1     -11.895  14.519  70.932  0.00  0.00    +0.026 C 
BRANCH  12  14
ATOM     13  C   UNL     1     -14.118  15.147  71.720  0.00  0.00    +0.000 C 
ATOM     14  C   UNL     1     -12.793  15.520  71.605  0.00  0.00    +0.004 C 
ATOM     15  C   UNL     1     -12.199  15.991  72.921  0.00  0.00    +0.000 C 
ENDBRANCH  12  14
ENDBRANCH   1  12
TORSDOF 4
ENDMDL
MODEL 2
REMARK VINA RESULT:      -5.7      4.721      6.389
REMARK  Name = 
REMARK  4 active torsions:
REMARK  status: ('A' for Active; 'I' for Inactive)
REMARK    1  A    between atoms: C_2  and  C_4
REMARK    2  A    between atoms: C_4  and  C_5
REMARK    3  A    between atoms: C_8  and  C_9
REMARK    4  A    between atoms: C_9  and  C_11
REMARK                            x       y       z     vdW  Elec       q    Type
REMARK                         _______ _______ _______ _____ _____    ______ ____
ROOT
ATOM      1  C   UNL     1     -12.626  11.236  70.925  0.00  0.00    -0.022 A 
ATOM      2  C   UNL     1     -11.908  12.065  70.082  0.00  0.00    -0.005 A 
ATOM      3  C   UNL     1     -12.035  13.444  70.209  0.00  0.00    -0.004 A 
ATOM      4  C   UNL     1     -12.838  13.924  71.156  0.00  0.00    -0.012 A 
ATOM      5  C   UNL     1     -13.540  13.128  72.033  0.00  0.00    -0.004 A 
ATOM      6  C   UNL     1     -13.198  11.780  72.043  0.00  0.00    -0.005 A 
ENDROOT
BRANCH   4   7
ATOM      7  C   UNL     1     -13.432  15.441  71.026  0.00  0.00    +0.126 C 
ATOM      8  C   UNL     1     -14.968  15.033  71.549  0.00  0.00    +0.017 C 
BRANCH   7   9
ATOM      9  C   UNL     1     -12.934  15.864  72.524  0.00  0.00    +0.368 C 
ATOM     10  O   UNL     1     -11.680  16.431  72.445  0.00  0.00    -0.245 OA
ATOM     11  O   UNL     1     -13.802  16.097  73.356  0.00  0.00    -0.245 OA
ENDBRANCH   7   9
ENDBRANCH   4   7
BRANCH   1  12
ATOM     12  C   UNL     1     -12.747   9.786  70.669  0.00  0.00    +0.026 C 
BRANCH  12  14
ATOM     13  C   UNL     1     -14.255   8.272  71.848  0.00  0.00    +0.000 C 
ATOM     14  C   UNL     1     -13.088   9.009  71.911  0.00  0.00    +0.004 C 
ATOM     15  C   UNL     1     -11.901   8.191  72.388  0.00  0.00    +0.000 C 
ENDBRANCH  12  14
ENDBRANCH   1  12
TORSDOF 4
ENDMDL
MODEL 3
REMARK VINA RESULT:      -5.5      1.393      1.671
REMARK  Name = 
REMARK  4 active torsions:
REMARK  status: ('A' for Active; 'I' for Inactive)
REMARK    1  A    between atoms: C_2  and  C_4
REMARK    2  A    between atoms: C_4  and  C_5
REMARK    3  A    between atoms: C_8  and  C_9
REMARK    4  A    between atoms: C_9  and  C_11
REMARK                            x       y       z     vdW  Elec       q    Type
REMARK                         _______ _______ _______ _____ _____    ______ ____
ROOT
ATOM      1  C   UNL     1     -11.855  14.798  70.383  0.00  0.00    -0.022 A 
ATOM      2  C   UNL     1     -11.698  15.864  69.516  0.00  0.00    -0.005 A 
ATOM      3  C   UNL     1     -11.562  15.623  68.154  0.00  0.00    -0.004 A 
ATOM      4  C   UNL     1     -11.604  14.363  67.724  0.00  0.00    -0.012 A 
ATOM      5  C   UNL     1     -11.793  13.282  68.555  0.00  0.00    -0.004 A 
ATOM      6  C   UNL     1     -12.174  13.574  69.860  0.00  0.00    -0.005 A 
ENDROOT
BRANCH   4   7
ATOM      7  C   UNL     1     -10.943  13.974  66.281  0.00  0.00    +0.126 C 
ATOM      8  C   UNL     1     -10.277  12.536  66.816  0.00  0.00    +0.017 C 
BRANCH   7   9
ATOM      9  C   UNL     1     -12.308  13.250  65.747  0.00  0.00    +0.368 C 
ATOM     10  O   UNL     1     -13.182  14.209  65.282  0.00  0.00    -0.245 OA
ATOM     11  O   UNL     1     -12.213  12.089  65.369  0.00  0.00    -0.245 OA
ENDBRANCH   7   9
ENDBRANCH   4   7
BRANCH   1  12
ATOM     12  C   UNL     1     -11.732  14.963  71.846  0.00  0.00    +0.026 C 
BRANCH  12  14
ATOM     13  C   UNL     1     -14.122  15.301  72.208  0.00  0.00    +0.000 C 
ATOM     14  C   UNL     1     -12.847  15.787  72.429  0.00  0.00    +0.004 C 
ATOM     15  C   UNL     1     -12.586  16.108  73.890  0.00  0.00    +0.000 C 
ENDBRANCH  12  14
ENDBRANCH   1  12
TORSDOF 4
ENDMDL
MODEL 4
REMARK VINA RESULT:      -5.4      1.626      2.540
REMARK  Name = 
REMARK  4 active torsions:
REMARK  status: ('A' for Active; 'I' for Inactive)
REMARK    1  A    between atoms: C_2  and  C_4
REMARK    2  A    between atoms: C_4  and  C_5
REMARK    3  A    between atoms: C_8  and  C_9
REMARK    4  A    between atoms: C_9  and  C_11
REMARK                            x       y       z     vdW  Elec       q    Type
REMARK                         _______ _______ _______ _____ _____    ______ ____
ROOT
ATOM      1  C   UNL     1     -12.030  14.827  69.781  0.00  0.00    -0.022 A 
ATOM      2  C   UNL     1     -11.932  13.451  69.871  0.00  0.00    -0.005 A 
ATOM      3  C   UNL     1     -11.707  12.705  68.720  0.00  0.00    -0.004 A 
ATOM      4  C   UNL     1     -11.575  13.347  67.561  0.00  0.00    -0.012 A 
ATOM      5  C   UNL     1     -11.633  14.718  67.441  0.00  0.00    -0.004 A 
ATOM      6  C   UNL     1     -11.606  15.437  68.631  0.00  0.00    -0.005 A 
ENDROOT
BRANCH   4   7
ATOM      7  C   UNL     1     -11.838  12.554  66.157  0.00  0.00    +0.126 C 
ATOM      8  C   UNL     1     -12.656  13.820  65.433  0.00  0.00    +0.017 C 
BRANCH   7   9
ATOM      9  C   UNL     1     -10.397  13.003  65.528  0.00  0.00    +0.368 C 
ATOM     10  O   UNL     1      -9.391  12.270  66.119  0.00  0.00    -0.245 OA
ATOM     11  O   UNL     1     -10.405  13.473  64.397  0.00  0.00    -0.245 OA
ENDBRANCH   7   9
ENDBRANCH   4   7
BRANCH   1  12
ATOM     12  C   UNL     1     -12.533  15.645  70.904  0.00  0.00    +0.026 C 
BRANCH  12  14
ATOM     13  C   UNL     1     -13.026  14.991  73.203  0.00  0.00    +0.000 C 
ATOM     14  C   UNL     1     -13.364  14.846  71.871  0.00  0.00    +0.004 C 
ATOM     15  C   UNL     1     -14.847  15.047  71.615  0.00  0.00    +0.000 C 
ENDBRANCH  12  14
ENDBRANCH   1  12
TORSDOF 4
ENDMDL
MODEL 5
REMARK VINA RESULT:      -5.3      3.327      6.257
REMARK  Name = 
REMARK  4 active torsions:
REMARK  status: ('A' for Active; 'I' for Inactive)
REMARK    1  A    between atoms: C_2  and  C_4
REMARK    2  A    between atoms: C_4  and  C_5
REMARK    3  A    between atoms: C_8  and  C_9
REMARK    4  A    between atoms: C_9  and  C_11
REMARK                            x       y       z     vdW  Elec       q    Type
REMARK                         _______ _______ _______ _____ _____    ______ ____
ROOT
ATOM      1  C   UNL     1     -11.381  13.372  67.806  0.00  0.00    -0.022 A 
ATOM      2  C   UNL     1     -11.700  12.382  68.716  0.00  0.00    -0.005 A 
ATOM      3  C   UNL     1     -12.106  12.737  69.997  0.00  0.00    -0.004 A 
ATOM      4  C   UNL     1     -12.191  14.031  70.302  0.00  0.00    -0.012 A 
ATOM      5  C   UNL     1     -11.913  15.042  69.410  0.00  0.00    -0.004 A 
ATOM      6  C   UNL     1     -11.758  14.659  68.082  0.00  0.00    -0.005 A 
ENDROOT
BRANCH   4   7
ATOM      7  C   UNL     1     -12.138  14.503  71.866  0.00  0.00    +0.126 C 
ATOM      8  C   UNL     1     -11.928  16.125  71.514  0.00  0.00    +0.017 C 
BRANCH   7   9
ATOM      9  C   UNL     1     -13.764  14.642  71.974  0.00  0.00    +0.368 C 
ATOM     10  O   UNL     1     -14.280  13.516  72.578  0.00  0.00    -0.245 OA
ATOM     11  O   UNL     1     -14.226  15.777  72.002  0.00  0.00    -0.245 OA
ENDBRANCH   7   9
ENDBRANCH   4   7
BRANCH   1  12
ATOM     12  C   UNL     1     -10.690  13.066  66.536  0.00  0.00    +0.026 C 
BRANCH  12  14
ATOM     13  C   UNL     1     -12.487  12.668  64.932  0.00  0.00    +0.000 C 
ATOM     14  C   UNL     1     -11.466  12.107  65.675  0.00  0.00    +0.004 C 
ATOM     15  C   UNL     1     -10.536  11.245  64.839  0.00  0.00    +0.000 C 
ENDBRANCH  12  14
ENDBRANCH   1  12
TORSDOF 4
ENDMDL
MODEL 6
REMARK VINA RESULT:      -5.2      3.053      3.892
REMARK  Name = 
REMARK  4 active torsions:
REMARK  status: ('A' for Active; 'I' for Inactive)
REMARK    1  A    between atoms: C_2  and  C_4
REMARK    2  A    between atoms: C_4  and  C_5
REMARK    3  A    between atoms: C_8  and  C_9
REMARK    4  A    between atoms: C_9  and  C_11
REMARK                            x       y       z     vdW  Elec       q    Type
REMARK                         _______ _______ _______ _____ _____    ______ ____
ROOT
ATOM      1  C   UNL     1     -11.197  11.138  68.455  0.00  0.00    -0.022 A 
ATOM      2  C   UNL     1     -11.786  12.351  68.148  0.00  0.00    -0.005 A 
ATOM      3  C   UNL     1     -11.806  12.787  66.829  0.00  0.00    -0.004 A 
ATOM      4  C   UNL     1     -11.269  12.007  65.893  0.00  0.00    -0.012 A 
ATOM      5  C   UNL     1     -10.705  10.779  66.158  0.00  0.00    -0.004 A 
ATOM      6  C   UNL     1     -10.926  10.268  67.433  0.00  0.00    -0.005 A 
ENDROOT
BRANCH   4   7
ATOM      7  C   UNL     1     -10.791  12.655  64.471  0.00  0.00    +0.126 C 
ATOM      8  C   UNL     1     -10.709  11.189  63.670  0.00  0.00    +0.017 C 
BRANCH   7   9
ATOM      9  C   UNL     1     -12.324  12.942  63.981  0.00  0.00    +0.368 C 
ATOM     10  O   UNL     1     -12.489  14.293  63.764  0.00  0.00    -0.245 OA
ATOM     11  O   UNL     1     -12.912  12.024  63.423  0.00  0.00    -0.245 OA
ENDBRANCH   7   9
ENDBRANCH   4   7
BRANCH   1  12
ATOM     12  C   UNL     1     -10.901  10.748  69.849  0.00  0.00    +0.026 C 
BRANCH  12  14
ATOM     13  C   UNL     1     -11.756   8.895  71.187  0.00  0.00    +0.000 C 
ATOM     14  C   UNL     1     -12.063  10.062  70.513  0.00  0.00    +0.004 C 
ATOM     15  C   UNL     1     -12.864  11.035  71.359  0.00  0.00    +0.000 C 
ENDBRANCH  12  14
ENDBRANCH   1  12
TORSDOF 4
ENDMDL
MODEL 7
REMARK VINA RESULT:      -5.2      3.459      6.118
REMARK  Name = 
REMARK  4 active torsions:
REMARK  status: ('A' for Active; 'I' for Inactive)
REMARK    1  A    between atoms: C_2  and  C_4
REMARK    2  A    between atoms: C_4  and  C_5
REMARK    3  A    between atoms: C_8  and  C_9
REMARK    4  A    between atoms: C_9  and  C_11
REMARK                            x       y       z     vdW  Elec       q    Type
REMARK                         _______ _______ _______ _____ _____    ______ ____
ROOT
ATOM      1  C   UNL     1     -11.193  15.321  69.139  0.00  0.00    -0.022 A 
ATOM      2  C   UNL     1     -11.096  16.152  70.239  0.00  0.00    -0.005 A 
ATOM      3  C   UNL     1     -11.606  15.732  71.462  0.00  0.00    -0.004 A 
ATOM      4  C   UNL     1     -12.162  14.523  71.537  0.00  0.00    -0.012 A 
ATOM      5  C   UNL     1     -12.244  13.657  70.470  0.00  0.00    -0.004 A 
ATOM      6  C   UNL     1     -11.507  14.004  69.343  0.00  0.00    -0.005 A 
ENDROOT
BRANCH   4   7
ATOM      7  C   UNL     1     -13.217  14.187  72.739  0.00  0.00    +0.126 C 
ATOM      8  C   UNL     1     -12.464  15.171  73.863  0.00  0.00    +0.017 C 
BRANCH   7   9
ATOM      9  C   UNL     1     -14.259  15.359  72.275  0.00  0.00    +0.368 C 
ATOM     10  O   UNL     1     -15.273  14.799  71.528  0.00  0.00    -0.245 OA
ATOM     11  O   UNL     1     -14.323  16.359  72.979  0.00  0.00    -0.245 OA
ENDBRANCH   7   9
ENDBRANCH   4   7
BRANCH   1  12
ATOM     12  C   UNL     1     -10.922  15.808  67.771  0.00  0.00    +0.026 C 
BRANCH  12  14
ATOM     13  C   UNL     1      -8.729  15.524  66.739  0.00  0.00    +0.000 C 
ATOM     14  C   UNL     1      -9.505  16.279  67.597  0.00  0.00    +0.004 C 
ATOM     15  C   UNL     1      -9.456  17.764  67.280  0.00  0.00    +0.000 C 
ENDBRANCH  12  14
ENDBRANCH   1  12
TORSDOF 4
ENDMDL
MODEL 8
REMARK VINA RESULT:      -5.1      2.608      3.833
REMARK  Name = 
REMARK  4 active torsions:
REMARK  status: ('A' for Active; 'I' for Inactive)
REMARK    1  A    between atoms: C_2  and  C_4
REMARK    2  A    between atoms: C_4  and  C_5
REMARK    3  A    between atoms: C_8  and  C_9
REMARK    4  A    between atoms: C_9  and  C_11
REMARK                            x       y       z     vdW  Elec       q    Type
REMARK                         _______ _______ _______ _____ _____    ______ ____
ROOT
ATOM      1  C   UNL     1     -10.416  16.309  67.470  0.00  0.00    -0.022 A 
ATOM      2  C   UNL     1     -11.184  15.209  67.802  0.00  0.00    -0.005 A 
ATOM      3  C   UNL     1     -11.189  14.100  66.963  0.00  0.00    -0.004 A 
ATOM      4  C   UNL     1     -10.433  14.129  65.867  0.00  0.00    -0.012 A 
ATOM      5  C   UNL     1      -9.630  15.194  65.525  0.00  0.00    -0.004 A 
ATOM      6  C   UNL     1      -9.457  16.167  66.503  0.00  0.00    -0.005 A 
ENDROOT
BRANCH   4   7
ATOM      7  C   UNL     1     -10.781  13.139  64.614  0.00  0.00    +0.126 C 
ATOM      8  C   UNL     1     -10.987  11.778  65.564  0.00  0.00    +0.017 C 
BRANCH   7   9
ATOM      9  C   UNL     1     -12.372  13.513  64.642  0.00  0.00    +0.368 C 
ATOM     10  O   UNL     1     -12.580  14.680  63.938  0.00  0.00    -0.245 OA
ATOM     11  O   UNL     1     -13.160  12.587  64.791  0.00  0.00    -0.245 OA
ENDBRANCH   7   9
ENDBRANCH   4   7
BRANCH   1  12
ATOM     12  C   UNL     1     -10.575  17.604  68.162  0.00  0.00    +0.026 C 
BRANCH  12  14
ATOM     13  C   UNL     1     -10.600  19.650  66.831  0.00  0.00    +0.000 C 
ATOM     14  C   UNL     1      -9.820  18.715  67.485  0.00  0.00    +0.004 C 
ATOM     15  C   UNL     1      -8.812  19.348  68.429  0.00  0.00    +0.000 C 
ENDBRANCH  12  14
ENDBRANCH   1  12
TORSDOF 4
ENDMDL
MODEL 9
REMARK VINA RESULT:      -5.1      1.555      2.546
REMARK  Name = 
REMARK  4 active torsions:
REMARK  status: ('A' for Active; 'I' for Inactive)
REMARK    1  A    between atoms: C_2  and  C_4
REMARK    2  A    between atoms: C_4  and  C_5
REMARK    3  A    between atoms: C_8  and  C_9
REMARK    4  A    between atoms: C_9  and  C_11
REMARK                            x       y       z     vdW  Elec       q    Type
REMARK                         _______ _______ _______ _____ _____    ______ ____
ROOT
ATOM      1  C   UNL     1     -11.826  14.733  69.853  0.00  0.00    -0.022 A 
ATOM      2  C   UNL     1     -11.910  14.390  68.516  0.00  0.00    -0.005 A 
ATOM      3  C   UNL     1     -11.353  15.229  67.559  0.00  0.00    -0.004 A 
ATOM      4  C   UNL     1     -10.735  16.337  67.966  0.00  0.00    -0.012 A 
ATOM      5  C   UNL     1     -10.604  16.691  69.290  0.00  0.00    -0.004 A 
ATOM      6  C   UNL     1     -10.946  15.715  70.220  0.00  0.00    -0.005 A 
ENDROOT
BRANCH   4   7
ATOM      7  C   UNL     1     -10.539  17.585  66.930  0.00  0.00    +0.126 C 
ATOM      8  C   UNL     1      -8.970  17.916  67.408  0.00  0.00    +0.017 C 
BRANCH   7   9
ATOM      9  C   UNL     1     -10.059  16.613  65.706  0.00  0.00    +0.368 C 
ATOM     10  O   UNL     1     -10.877  16.815  64.615  0.00  0.00    -0.245 OA
ATOM     11  O   UNL     1      -8.884  16.265  65.698  0.00  0.00    -0.245 OA
ENDBRANCH   7   9
ENDBRANCH   4   7
BRANCH   1  12
ATOM     12  C   UNL     1     -12.623  14.038  70.885  0.00  0.00    +0.026 C 
BRANCH  12  14
ATOM     13  C   UNL     1     -14.734  15.013  71.629  0.00  0.00    +0.000 C 
ATOM     14  C   UNL     1     -13.361  14.993  71.783  0.00  0.00    +0.004 C 
ATOM     15  C   UNL     1     -12.934  14.823  73.231  0.00  0.00    +0.000 C 
ENDBRANCH  12  14
ENDBRANCH   1  12
TORSDOF 4
ENDMDL
