MODEL 1
REMARK VINA RESULT:      -6.9      0.000      0.000
REMARK  Name = 
REMARK  3 active torsions:
REMARK  status: ('A' for Active; 'I' for Inactive)
REMARK    1  A    between atoms: C_2  and  O_4
REMARK    2  A    between atoms: O_4  and  C_5
REMARK    3  A    between atoms: C_5  and  C_6
REMARK                            x       y       z     vdW  Elec       q    Type
REMARK                         _______ _______ _______ _____ _____    ______ ____
ROOT
ATOM      1  C   UNL     1      -7.296  19.115  68.026  0.00  0.00    +0.186 C 
ATOM      2  C   UNL     1      -7.896  17.946  67.417  0.00  0.00    +0.040 C 
ATOM      3  C   UNL     1      -8.537  17.274  68.754  0.00  0.00    +0.008 C 
ATOM      4  C   UNL     1      -9.776  16.490  67.891  0.00  0.00    +0.022 C 
ATOM      5  C   UNL     1      -8.819  15.129  67.525  0.00  0.00    +0.008 C 
ATOM      6  C   UNL     1      -8.106  15.887  66.260  0.00  0.00    +0.001 C 
ATOM      7  C   UNL     1     -10.010  14.441  66.664  0.00  0.00    +0.019 C 
ATOM      8  C   UNL     1     -11.238  14.517  67.498  0.00  0.00    -0.024 C 
ATOM      9  C   UNL     1     -12.318  13.994  66.936  0.00  0.00    +0.033 C 
ATOM     10  C   UNL     1     -12.044  13.156  65.761  0.00  0.00    +0.173 C 
ATOM     11  C   UNL     1     -10.774  12.412  65.650  0.00  0.00    +0.069 C 
ATOM     12  O   UNL     1     -12.863  13.100  64.801  0.00  0.00    -0.291 OA
ATOM     13  C   UNL     1     -11.177  14.834  68.930  0.00  0.00    -0.030 C 
ATOM     14  C   UNL     1     -12.380  14.527  69.728  0.00  0.00    +0.030 C 
ATOM     15  C   UNL     1     -10.125  14.980  65.319  0.00  0.00    +0.004 C 
ATOM     16  C   UNL     1      -9.684  12.960  66.563  0.00  0.00    +0.012 C 
ATOM     17  C   UNL     1     -10.333  15.826  69.221  0.00  0.00    -0.031 C 
ATOM     18  C   UNL     1      -9.465  18.596  68.986  0.00  0.00    +0.004 C 
ATOM     19  C   UNL     1      -9.024  18.422  66.554  0.00  0.00    +0.004 C 
ATOM     20  C   UNL     1      -7.090  16.843  66.886  0.00  0.00    +0.004 C 
ATOM     21  C   UNL     1      -8.422  19.678  68.890  0.00  0.00    +0.047 C 
ENDROOT
BRANCH   1  22
ATOM     22  C   UNL     1      -6.942  20.109  66.960  0.00  0.00    +0.187 C 
ATOM     23  O   UNL     1      -7.428  21.203  66.865  0.00  0.00    -0.292 OA
ATOM     24  C   UNL     1      -5.837  19.739  66.035  0.00  0.00    +0.076 C 
ENDBRANCH   1  22
BRANCH   1  25
ATOM     25  O   UNL     1      -6.204  18.969  68.875  0.00  0.00    -0.449 OA
BRANCH  25  27
ATOM     26  C   UNL     1      -4.937  21.082  69.375  0.00  0.00    +0.121 C 
ATOM     27  C   UNL     1      -5.965  20.076  69.700  0.00  0.00    +0.318 C 
ATOM     28  O   UNL     1      -6.507  20.185  70.843  0.00  0.00    -0.250 OA
ENDBRANCH  25  27
ENDBRANCH   1  25
TORSDOF 3
ENDMDL
MODEL 2
REMARK VINA RESULT:      -6.8      2.233      3.937
REMARK  Name = 
REMARK  3 active torsions:
REMARK  status: ('A' for Active; 'I' for Inactive)
REMARK    1  A    between atoms: C_2  and  O_4
REMARK    2  A    between atoms: O_4  and  C_5
REMARK    3  A    between atoms: C_5  and  C_6
REMARK                            x       y       z     vdW  Elec       q    Type
REMARK                         _______ _______ _______ _____ _____    ______ ____
ROOT
ATOM      1  C   UNL     1      -8.885  17.174  67.780  0.00  0.00    +0.186 C 
ATOM      2  C   UNL     1      -9.023  15.732  67.734  0.00  0.00    +0.040 C 
ATOM      3  C   UNL     1     -10.388  15.644  66.850  0.00  0.00    +0.008 C 
ATOM      4  C   UNL     1     -10.002  14.111  66.220  0.00  0.00    +0.022 C 
ATOM      5  C   UNL     1     -10.667  13.272  67.545  0.00  0.00    +0.008 C 
ATOM      6  C   UNL     1      -9.318  13.491  68.448  0.00  0.00    +0.001 C 
ATOM      7  C   UNL     1     -10.232  11.832  66.935  0.00  0.00    +0.019 C 
ATOM      8  C   UNL     1     -10.669  11.822  65.513  0.00  0.00    -0.024 C 
ATOM      9  C   UNL     1     -10.387  10.705  64.860  0.00  0.00    +0.033 C 
ATOM     10  C   UNL     1     -10.004   9.578  65.721  0.00  0.00    +0.173 C 
ATOM     11  C   UNL     1     -10.543   9.463  67.090  0.00  0.00    +0.069 C 
ATOM     12  O   UNL     1      -9.165   8.719  65.328  0.00  0.00    -0.291 OA
ATOM     13  C   UNL     1     -11.615  12.816  64.993  0.00  0.00    -0.030 C 
ATOM     14  C   UNL     1     -12.256  12.505  63.700  0.00  0.00    +0.030 C 
ATOM     15  C   UNL     1      -8.834  11.513  67.168  0.00  0.00    +0.004 C 
ATOM     16  C   UNL     1     -11.088  10.782  67.625  0.00  0.00    +0.012 C 
ATOM     17  C   UNL     1     -11.368  14.058  65.413  0.00  0.00    -0.031 C 
ATOM     18  C   UNL     1      -9.645  16.397  65.608  0.00  0.00    +0.004 C 
ATOM     19  C   UNL     1      -7.897  15.204  66.898  0.00  0.00    +0.004 C 
ATOM     20  C   UNL     1      -9.381  14.946  68.917  0.00  0.00    +0.004 C 
ATOM     21  C   UNL     1      -9.068  17.591  66.323  0.00  0.00    +0.047 C 
ENDROOT
BRANCH   1  22
ATOM     22  C   UNL     1      -7.501  17.531  68.231  0.00  0.00    +0.187 C 
ATOM     23  O   UNL     1      -7.050  17.264  69.311  0.00  0.00    -0.292 OA
ATOM     24  C   UNL     1      -6.607  18.161  67.223  0.00  0.00    +0.076 C 
ENDBRANCH   1  22
BRANCH   1  25
ATOM     25  O   UNL     1      -9.797  17.932  68.508  0.00  0.00    -0.449 OA
BRANCH  25  27
ATOM     26  C   UNL     1      -9.403  20.362  68.000  0.00  0.00    +0.121 C 
ATOM     27  C   UNL     1     -10.188  19.120  67.878  0.00  0.00    +0.318 C 
ATOM     28  O   UNL     1     -11.316  19.231  67.304  0.00  0.00    -0.250 OA
ENDBRANCH  25  27
ENDBRANCH   1  25
TORSDOF 3
ENDMDL
MODEL 3
REMARK VINA RESULT:      -6.7      2.253      7.257
REMARK  Name = 
REMARK  3 active torsions:
REMARK  status: ('A' for Active; 'I' for Inactive)
REMARK    1  A    between atoms: C_2  and  O_4
REMARK    2  A    between atoms: O_4  and  C_5
REMARK    3  A    between atoms: C_5  and  C_6
REMARK                            x       y       z     vdW  Elec       q    Type
REMARK                         _______ _______ _______ _____ _____    ______ ____
ROOT
ATOM      1  C   UNL     1      -9.869  15.913  66.745  0.00  0.00    +0.186 C 
ATOM      2  C   UNL     1      -8.589  16.207  67.356  0.00  0.00    +0.040 C 
ATOM      3  C   UNL     1      -8.152  17.465  66.418  0.00  0.00    +0.008 C 
ATOM      4  C   UNL     1      -7.184  18.164  67.629  0.00  0.00    +0.022 C 
ATOM      5  C   UNL     1      -5.811  17.238  67.227  0.00  0.00    +0.008 C 
ATOM      6  C   UNL     1      -6.347  15.948  68.083  0.00  0.00    +0.001 C 
ATOM      7  C   UNL     1      -4.938  17.891  68.430  0.00  0.00    +0.019 C 
ATOM      8  C   UNL     1      -5.125  19.363  68.343  0.00  0.00    -0.024 C 
ATOM      9  C   UNL     1      -4.472  20.056  69.264  0.00  0.00    +0.033 C 
ATOM     10  C   UNL     1      -3.442  19.292  69.981  0.00  0.00    +0.173 C 
ATOM     11  C   UNL     1      -2.733  18.182  69.316  0.00  0.00    +0.069 C 
ATOM     12  O   UNL     1      -3.185  19.533  71.194  0.00  0.00    -0.291 OA
ATOM     13  C   UNL     1      -5.700  19.995  67.150  0.00  0.00    -0.030 C 
ATOM     14  C   UNL     1      -5.505  21.452  67.014  0.00  0.00    +0.030 C 
ATOM     15  C   UNL     1      -5.218  17.294  69.726  0.00  0.00    +0.004 C 
ATOM     16  C   UNL     1      -3.475  17.651  68.095  0.00  0.00    +0.012 C 
ATOM     17  C   UNL     1      -6.757  19.344  66.658  0.00  0.00    -0.031 C 
ATOM     18  C   UNL     1      -9.463  18.302  66.912  0.00  0.00    +0.004 C 
ATOM     19  C   UNL     1      -8.861  16.731  68.733  0.00  0.00    +0.004 C 
ATOM     20  C   UNL     1      -7.435  15.315  67.215  0.00  0.00    +0.004 C 
ATOM     21  C   UNL     1     -10.543  17.281  66.667  0.00  0.00    +0.047 C 
ENDROOT
BRANCH   1  22
ATOM     22  C   UNL     1     -10.662  15.018  67.650  0.00  0.00    +0.187 C 
ATOM     23  O   UNL     1     -11.640  15.362  68.256  0.00  0.00    -0.292 OA
ATOM     24  C   UNL     1     -10.259  13.587  67.703  0.00  0.00    +0.076 C 
ENDBRANCH   1  22
BRANCH   1  25
ATOM     25  O   UNL     1      -9.916  15.392  65.456  0.00  0.00    -0.449 OA
BRANCH  25  27
ATOM     26  C   UNL     1     -12.155  14.636  64.596  0.00  0.00    +0.121 C 
ATOM     27  C   UNL     1     -11.110  15.661  64.772  0.00  0.00    +0.318 C 
ATOM     28  O   UNL     1     -11.283  16.745  64.134  0.00  0.00    -0.250 OA
ENDBRANCH  25  27
ENDBRANCH   1  25
TORSDOF 3
ENDMDL
MODEL 4
REMARK VINA RESULT:      -6.6      1.887      7.311
REMARK  Name = 
REMARK  3 active torsions:
REMARK  status: ('A' for Active; 'I' for Inactive)
REMARK    1  A    between atoms: C_2  and  O_4
REMARK    2  A    between atoms: O_4  and  C_5
REMARK    3  A    between atoms: C_5  and  C_6
REMARK                            x       y       z     vdW  Elec       q    Type
REMARK                         _______ _______ _______ _____ _____    ______ ____
ROOT
ATOM      1  C   UNL     1     -11.056  12.137  66.351  0.00  0.00    +0.186 C 
ATOM      2  C   UNL     1     -10.861  13.552  66.594  0.00  0.00    +0.040 C 
ATOM      3  C   UNL     1      -9.787  13.445  67.814  0.00  0.00    +0.008 C 
ATOM      4  C   UNL     1      -9.082  14.954  67.462  0.00  0.00    +0.022 C 
ATOM      5  C   UNL     1     -10.218  15.828  68.383  0.00  0.00    +0.008 C 
ATOM      6  C   UNL     1     -11.320  15.805  67.172  0.00  0.00    +0.001 C 
ATOM      7  C   UNL     1      -9.549  17.250  67.979  0.00  0.00    +0.019 C 
ATOM      8  C   UNL     1      -8.084  17.110  68.196  0.00  0.00    -0.024 C 
ATOM      9  C   UNL     1      -7.379  18.194  67.910  0.00  0.00    +0.033 C 
ATOM     10  C   UNL     1      -8.182  19.415  67.752  0.00  0.00    +0.173 C 
ATOM     11  C   UNL     1      -9.443  19.585  68.498  0.00  0.00    +0.069 C 
ATOM     12  O   UNL     1      -7.837  20.315  66.935  0.00  0.00    -0.291 OA
ATOM     13  C   UNL     1      -7.526  15.995  68.970  0.00  0.00    -0.030 C 
ATOM     14  C   UNL     1      -6.132  16.144  69.432  0.00  0.00    +0.030 C 
ATOM     15  C   UNL     1      -9.950  17.715  66.661  0.00  0.00    +0.004 C 
ATOM     16  C   UNL     1     -10.011  18.267  69.009  0.00  0.00    +0.012 C 
ATOM     17  C   UNL     1      -8.087  14.817  68.691  0.00  0.00    -0.031 C 
ATOM     18  C   UNL     1      -8.736  12.670  66.835  0.00  0.00    +0.004 C 
ATOM     19  C   UNL     1     -10.150  14.116  65.402  0.00  0.00    +0.004 C 
ATOM     20  C   UNL     1     -11.904  14.391  67.188  0.00  0.00    +0.004 C 
ATOM     21  C   UNL     1      -9.631  11.594  66.278  0.00  0.00    +0.047 C 
ENDROOT
BRANCH   1  22
ATOM     22  C   UNL     1     -11.730  11.946  65.025  0.00  0.00    +0.187 C 
ATOM     23  O   UNL     1     -12.830  12.349  64.760  0.00  0.00    -0.292 OA
ATOM     24  C   UNL     1     -10.928  11.307  63.948  0.00  0.00    +0.076 C 
ENDBRANCH   1  22
BRANCH   1  25
ATOM     25  O   UNL     1     -11.712  11.357  67.298  0.00  0.00    -0.449 OA
BRANCH  25  27
ATOM     26  C   UNL     1     -10.801   9.034  66.992  0.00  0.00    +0.121 C 
ATOM     27  C   UNL     1     -10.957  10.275  67.772  0.00  0.00    +0.318 C 
ATOM     28  O   UNL     1     -10.505  10.247  68.957  0.00  0.00    -0.250 OA
ENDBRANCH  25  27
ENDBRANCH   1  25
TORSDOF 3
ENDMDL
MODEL 5
REMARK VINA RESULT:      -6.6      2.159      3.780
REMARK  Name = 
REMARK  3 active torsions:
REMARK  status: ('A' for Active; 'I' for Inactive)
REMARK    1  A    between atoms: C_2  and  O_4
REMARK    2  A    between atoms: O_4  and  C_5
REMARK    3  A    between atoms: C_5  and  C_6
REMARK                            x       y       z     vdW  Elec       q    Type
REMARK                         _______ _______ _______ _____ _____    ______ ____
ROOT
ATOM      1  C   UNL     1      -4.291  19.207  69.843  0.00  0.00    +0.186 C 
ATOM      2  C   UNL     1      -5.247  18.256  69.314  0.00  0.00    +0.040 C 
ATOM      3  C   UNL     1      -6.589  19.173  69.416  0.00  0.00    +0.008 C 
ATOM      4  C   UNL     1      -7.362  18.365  68.134  0.00  0.00    +0.022 C 
ATOM      5  C   UNL     1      -7.986  17.135  69.133  0.00  0.00    +0.008 C 
ATOM      6  C   UNL     1      -6.575  16.303  69.105  0.00  0.00    +0.001 C 
ATOM      7  C   UNL     1      -8.663  16.365  67.873  0.00  0.00    +0.019 C 
ATOM      8  C   UNL     1      -9.400  17.393  67.092  0.00  0.00    -0.024 C 
ATOM      9  C   UNL     1     -10.018  16.928  66.017  0.00  0.00    +0.033 C 
ATOM     10  C   UNL     1     -10.139  15.464  65.973  0.00  0.00    +0.173 C 
ATOM     11  C   UNL     1     -10.233  14.682  67.220  0.00  0.00    +0.069 C 
ATOM     12  O   UNL     1     -10.108  14.846  64.872  0.00  0.00    -0.291 OA
ATOM     13  C   UNL     1      -9.691  18.720  67.649  0.00  0.00    -0.030 C 
ATOM     14  C   UNL     1     -10.723  19.516  66.957  0.00  0.00    +0.030 C 
ATOM     15  C   UNL     1      -7.715  15.561  67.122  0.00  0.00    +0.004 C 
ATOM     16  C   UNL     1      -9.733  15.447  68.439  0.00  0.00    +0.012 C 
ATOM     17  C   UNL     1      -8.662  19.260  68.306  0.00  0.00    -0.031 C 
ATOM     18  C   UNL     1      -5.932  20.266  68.399  0.00  0.00    +0.004 C 
ATOM     19  C   UNL     1      -4.928  18.064  67.863  0.00  0.00    +0.004 C 
ATOM     20  C   UNL     1      -5.646  17.058  70.058  0.00  0.00    +0.004 C 
ATOM     21  C   UNL     1      -4.597  20.483  69.061  0.00  0.00    +0.047 C 
ENDROOT
BRANCH   1  22
ATOM     22  C   UNL     1      -2.899  18.749  69.525  0.00  0.00    +0.187 C 
ATOM     23  O   UNL     1      -2.367  17.798  70.028  0.00  0.00    -0.292 OA
ATOM     24  C   UNL     1      -2.188  19.467  68.433  0.00  0.00    +0.076 C 
ENDBRANCH   1  22
BRANCH   1  25
ATOM     25  O   UNL     1      -4.343  19.564  71.187  0.00  0.00    -0.449 OA
BRANCH  25  27
ATOM     26  C   UNL     1      -2.284  20.837  71.868  0.00  0.00    +0.121 C 
ATOM     27  C   UNL     1      -3.706  20.777  71.483  0.00  0.00    +0.318 C 
ATOM     28  O   UNL     1      -4.356  21.862  71.591  0.00  0.00    -0.250 OA
ENDBRANCH  25  27
ENDBRANCH   1  25
TORSDOF 3
ENDMDL
MODEL 6
REMARK VINA RESULT:      -6.5      4.625      8.847
REMARK  Name = 
REMARK  3 active torsions:
REMARK  status: ('A' for Active; 'I' for Inactive)
REMARK    1  A    between atoms: C_2  and  O_4
REMARK    2  A    between atoms: O_4  and  C_5
REMARK    3  A    between atoms: C_5  and  C_6
REMARK                            x       y       z     vdW  Elec       q    Type
REMARK                         _______ _______ _______ _____ _____    ______ ____
ROOT
ATOM      1  C   UNL     1      -9.796   7.991  68.584  0.00  0.00    +0.186 C 
ATOM      2  C   UNL     1      -9.932   9.216  67.823  0.00  0.00    +0.040 C 
ATOM      3  C   UNL     1     -11.054   9.955  68.743  0.00  0.00    +0.008 C 
ATOM      4  C   UNL     1     -10.547  11.514  68.291  0.00  0.00    +0.022 C 
ATOM      5  C   UNL     1     -11.509  11.546  66.886  0.00  0.00    +0.008 C 
ATOM      6  C   UNL     1     -10.405  10.692  66.029  0.00  0.00    +0.001 C 
ATOM      7  C   UNL     1     -10.957  13.013  66.462  0.00  0.00    +0.019 C 
ATOM      8  C   UNL     1     -11.051  13.870  67.674  0.00  0.00    -0.024 C 
ATOM      9  C   UNL     1     -10.635  15.116  67.499  0.00  0.00    +0.033 C 
ATOM     10  C   UNL     1     -10.473  15.510  66.093  0.00  0.00    +0.173 C 
ATOM     11  C   UNL     1     -11.317  14.907  65.044  0.00  0.00    +0.069 C 
ATOM     12  O   UNL     1      -9.573  16.327  65.750  0.00  0.00    -0.291 OA
ATOM     13  C   UNL     1     -11.840  13.465  68.842  0.00  0.00    -0.030 C 
ATOM     14  C   UNL     1     -12.166  14.523  69.819  0.00  0.00    +0.030 C 
ATOM     15  C   UNL     1      -9.655  12.968  65.820  0.00  0.00    +0.004 C 
ATOM     16  C   UNL     1     -11.959  13.596  65.480  0.00  0.00    +0.012 C 
ATOM     17  C   UNL     1     -11.688  12.181  69.171  0.00  0.00    -0.031 C 
ATOM     18  C   UNL     1     -10.036   9.937  70.018  0.00  0.00    +0.004 C 
ATOM     19  C   UNL     1      -8.647   9.974  67.965  0.00  0.00    +0.004 C 
ATOM     20  C   UNL     1     -10.563   9.246  66.501  0.00  0.00    +0.004 C 
ATOM     21  C   UNL     1      -9.631   8.487  70.019  0.00  0.00    +0.047 C 
ENDROOT
BRANCH   1  22
ATOM     22  C   UNL     1      -8.552   7.272  68.159  0.00  0.00    +0.187 C 
ATOM     23  O   UNL     1      -7.548   7.208  68.815  0.00  0.00    -0.292 OA
ATOM     24  C   UNL     1      -8.620   6.503  66.887  0.00  0.00    +0.076 C 
ENDBRANCH   1  22
BRANCH   1  25
ATOM     25  O   UNL     1     -10.846   7.078  68.617  0.00  0.00    -0.449 OA
BRANCH  25  27
ATOM     26  C   UNL     1     -10.190   5.149  70.089  0.00  0.00    +0.121 C 
ATOM     27  C   UNL     1     -10.960   6.378  69.826  0.00  0.00    +0.318 C 
ATOM     28  O   UNL     1     -11.844   6.675  70.687  0.00  0.00    -0.250 OA
ENDBRANCH  25  27
ENDBRANCH   1  25
TORSDOF 3
ENDMDL
MODEL 7
REMARK VINA RESULT:      -6.5      1.676      7.280
REMARK  Name = 
REMARK  3 active torsions:
REMARK  status: ('A' for Active; 'I' for Inactive)
REMARK    1  A    between atoms: C_2  and  O_4
REMARK    2  A    between atoms: O_4  and  C_5
REMARK    3  A    between atoms: C_5  and  C_6
REMARK                            x       y       z     vdW  Elec       q    Type
REMARK                         _______ _______ _______ _____ _____    ______ ____
ROOT
ATOM      1  C   UNL     1     -10.867  13.314  66.220  0.00  0.00    +0.186 C 
ATOM      2  C   UNL     1      -9.794  14.098  66.798  0.00  0.00    +0.040 C 
ATOM      3  C   UNL     1     -10.044  15.490  65.989  0.00  0.00    +0.008 C 
ATOM      4  C   UNL     1      -9.370  16.447  67.224  0.00  0.00    +0.022 C 
ATOM      5  C   UNL     1      -7.775  16.266  66.653  0.00  0.00    +0.008 C 
ATOM      6  C   UNL     1      -7.609  14.808  67.382  0.00  0.00    +0.001 C 
ATOM      7  C   UNL     1      -7.168  17.140  67.879  0.00  0.00    +0.019 C 
ATOM      8  C   UNL     1      -7.989  18.376  67.969  0.00  0.00    -0.024 C 
ATOM      9  C   UNL     1      -7.623  19.211  68.931  0.00  0.00    +0.033 C 
ATOM     10  C   UNL     1      -6.300  18.930  69.505  0.00  0.00    +0.173 C 
ATOM     11  C   UNL     1      -5.242  18.311  68.685  0.00  0.00    +0.069 C 
ATOM     12  O   UNL     1      -6.062  19.162  70.724  0.00  0.00    -0.291 OA
ATOM     13  C   UNL     1      -8.892  18.780  66.886  0.00  0.00    -0.030 C 
ATOM     14  C   UNL     1      -9.369  20.176  66.907  0.00  0.00    +0.030 C 
ATOM     15  C   UNL     1      -7.035  16.379  69.110  0.00  0.00    +0.004 C 
ATOM     16  C   UNL     1      -5.787  17.606  67.449  0.00  0.00    +0.012 C 
ATOM     17  C   UNL     1      -9.598  17.768  66.374  0.00  0.00    -0.031 C 
ATOM     18  C   UNL     1     -11.536  15.612  66.639  0.00  0.00    +0.004 C 
ATOM     19  C   UNL     1     -10.138  14.332  68.237  0.00  0.00    +0.004 C 
ATOM     20  C   UNL     1      -8.385  13.828  66.500  0.00  0.00    +0.004 C 
ATOM     21  C   UNL     1     -12.076  14.240  66.331  0.00  0.00    +0.047 C 
ENDROOT
BRANCH   1  22
ATOM     22  C   UNL     1     -11.098  12.090  67.054  0.00  0.00    +0.187 C 
ATOM     23  O   UNL     1     -12.062  11.916  67.749  0.00  0.00    -0.292 OA
ATOM     24  C   UNL     1     -10.112  10.985  66.915  0.00  0.00    +0.076 C 
ENDBRANCH   1  22
BRANCH   1  25
ATOM     25  O   UNL     1     -10.802  12.933  64.884  0.00  0.00    -0.449 OA
BRANCH  25  27
ATOM     26  C   UNL     1     -12.813  11.812  63.873  0.00  0.00    +0.121 C 
ATOM     27  C   UNL     1     -12.025  13.014  64.204  0.00  0.00    +0.318 C 
ATOM     28  O   UNL     1     -12.438  14.104  63.701  0.00  0.00    -0.250 OA
ENDBRANCH  25  27
ENDBRANCH   1  25
TORSDOF 3
ENDMDL
MODEL 8
REMARK VINA RESULT:      -6.4      1.991      3.207
REMARK  Name = 
REMARK  3 active torsions:
REMARK  status: ('A' for Active; 'I' for Inactive)
REMARK    1  A    between atoms: C_2  and  O_4
REMARK    2  A    between atoms: O_4  and  C_5
REMARK    3  A    between atoms: C_5  and  C_6
REMARK                            x       y       z     vdW  Elec       q    Type
REMARK                         _______ _______ _______ _____ _____    ______ ____
ROOT
ATOM      1  C   UNL     1      -8.774  18.390  66.978  0.00  0.00    +0.186 C 
ATOM      2  C   UNL     1      -9.409  17.089  66.911  0.00  0.00    +0.040 C 
ATOM      3  C   UNL     1      -8.080  16.159  67.059  0.00  0.00    +0.008 C 
ATOM      4  C   UNL     1      -8.939  14.862  67.748  0.00  0.00    +0.022 C 
ATOM      5  C   UNL     1      -9.377  14.200  66.241  0.00  0.00    +0.008 C 
ATOM      6  C   UNL     1     -10.632  15.239  66.073  0.00  0.00    +0.001 C 
ATOM      7  C   UNL     1     -10.232  13.010  66.938  0.00  0.00    +0.019 C 
ATOM      8  C   UNL     1      -9.365  12.425  67.995  0.00  0.00    -0.024 C 
ATOM      9  C   UNL     1      -9.917  11.428  68.670  0.00  0.00    +0.033 C 
ATOM     10  C   UNL     1     -11.128  10.873  68.049  0.00  0.00    +0.173 C 
ATOM     11  C   UNL     1     -11.297  10.896  66.584  0.00  0.00    +0.069 C 
ATOM     12  O   UNL     1     -12.068  10.418  68.759  0.00  0.00    -0.291 OA
ATOM     13  C   UNL     1      -7.925  12.703  68.049  0.00  0.00    -0.030 C 
ATOM     14  C   UNL     1      -7.108  11.803  68.887  0.00  0.00    +0.030 C 
ATOM     15  C   UNL     1     -11.553  13.435  67.369  0.00  0.00    +0.004 C 
ATOM     16  C   UNL     1     -10.393  11.913  65.899  0.00  0.00    +0.012 C 
ATOM     17  C   UNL     1      -7.620  13.983  67.829  0.00  0.00    -0.031 C 
ATOM     18  C   UNL     1      -7.778  16.806  68.526  0.00  0.00    +0.004 C 
ATOM     19  C   UNL     1     -10.226  16.927  68.156  0.00  0.00    +0.004 C 
ATOM     20  C   UNL     1      -9.998  16.573  65.673  0.00  0.00    +0.004 C 
ATOM     21  C   UNL     1      -7.863  18.273  68.197  0.00  0.00    +0.047 C 
ENDROOT
BRANCH   1  22
ATOM     22  C   UNL     1      -9.812  19.441  67.230  0.00  0.00    +0.187 C 
ATOM     23  O   UNL     1      -9.992  19.975  68.291  0.00  0.00    -0.292 OA
ATOM     24  C   UNL     1     -10.587  19.919  66.054  0.00  0.00    +0.076 C 
ENDBRANCH   1  22
BRANCH   1  25
ATOM     25  O   UNL     1      -7.959  18.815  65.934  0.00  0.00    -0.449 OA
BRANCH  25  27
ATOM     26  C   UNL     1      -6.711  20.863  66.688  0.00  0.00    +0.121 C 
ATOM     27  C   UNL     1      -6.769  19.429  66.349  0.00  0.00    +0.318 C 
ATOM     28  O   UNL     1      -5.654  18.825  66.300  0.00  0.00    -0.250 OA
ENDBRANCH  25  27
ENDBRANCH   1  25
TORSDOF 3
ENDMDL
MODEL 9
REMARK VINA RESULT:      -6.4      4.922      8.417
REMARK  Name = 
REMARK  3 active torsions:
REMARK  status: ('A' for Active; 'I' for Inactive)
REMARK    1  A    between atoms: C_2  and  O_4
REMARK    2  A    between atoms: O_4  and  C_5
REMARK    3  A    between atoms: C_5  and  C_6
REMARK                            x       y       z     vdW  Elec       q    Type
REMARK                         _______ _______ _______ _____ _____    ______ ____
ROOT
ATOM      1  C   UNL     1     -11.052  12.629  66.697  0.00  0.00    +0.186 C 
ATOM      2  C   UNL     1     -10.757  11.682  67.753  0.00  0.00    +0.040 C 
ATOM      3  C   UNL     1     -11.109  10.306  66.955  0.00  0.00    +0.008 C 
ATOM      4  C   UNL     1     -10.035   9.371  67.886  0.00  0.00    +0.022 C 
ATOM      5  C   UNL     1     -11.173   9.083  69.121  0.00  0.00    +0.008 C 
ATOM      6  C   UNL     1     -10.877  10.533  69.824  0.00  0.00    +0.001 C 
ATOM      7  C   UNL     1     -10.101   8.243  70.003  0.00  0.00    +0.019 C 
ATOM      8  C   UNL     1      -9.461   7.267  69.082  0.00  0.00    -0.024 C 
ATOM      9  C   UNL     1      -8.549   6.492  69.649  0.00  0.00    +0.033 C 
ATOM     10  C   UNL     1      -8.569   6.507  71.118  0.00  0.00    +0.173 C 
ATOM     11  C   UNL     1      -9.829   6.742  71.848  0.00  0.00    +0.069 C 
ATOM     12  O   UNL     1      -7.502   6.373  71.781  0.00  0.00    -0.291 OA
ATOM     13  C   UNL     1     -10.030   6.969  67.763  0.00  0.00    -0.030 C 
ATOM     14  C   UNL     1      -9.545   5.746  67.094  0.00  0.00    +0.030 C 
ATOM     15  C   UNL     1      -9.191   9.092  70.754  0.00  0.00    +0.004 C 
ATOM     16  C   UNL     1     -10.898   7.403  70.987  0.00  0.00    +0.012 C 
ATOM     17  C   UNL     1     -10.447   8.053  67.104  0.00  0.00    -0.031 C 
ATOM     18  C   UNL     1      -9.949  10.635  65.856  0.00  0.00    +0.004 C 
ATOM     19  C   UNL     1      -9.277  11.717  67.982  0.00  0.00    +0.004 C 
ATOM     20  C   UNL     1     -11.598  11.558  68.947  0.00  0.00    +0.004 C 
ATOM     21  C   UNL     1     -10.317  12.050  65.491  0.00  0.00    +0.047 C 
ENDROOT
BRANCH   1  22
ATOM     22  C   UNL     1     -10.466  13.964  67.044  0.00  0.00    +0.187 C 
ATOM     23  O   UNL     1      -9.476  14.421  66.542  0.00  0.00    -0.292 OA
ATOM     24  C   UNL     1     -11.235  14.810  67.996  0.00  0.00    +0.076 C 
ENDBRANCH   1  22
BRANCH   1  25
ATOM     25  O   UNL     1     -12.368  12.816  66.285  0.00  0.00    -0.449 OA
BRANCH  25  27
ATOM     26  C   UNL     1     -12.322  14.504  64.423  0.00  0.00    +0.121 C 
ATOM     27  C   UNL     1     -12.504  13.130  64.927  0.00  0.00    +0.318 C 
ATOM     28  O   UNL     1     -12.946  12.286  64.088  0.00  0.00    -0.250 OA
ENDBRANCH  25  27
ENDBRANCH   1  25
TORSDOF 3
ENDMDL
