MODEL 1
REMARK VINA RESULT:      -8.5      0.000      0.000
REMARK  Name = 
REMARK  3 active torsions:
REMARK  status: ('A' for Active; 'I' for Inactive)
REMARK    1  A    between atoms: C_4  and  O_5
REMARK    2  A    between atoms: O_5  and  C_6
REMARK    3  A    between atoms: C_35  and  C_36
REMARK                            x       y       z     vdW  Elec       q    Type
REMARK                         _______ _______ _______ _____ _____    ______ ____
ROOT
ATOM      1  C   UNL     1      -6.261  17.460  67.533  0.00  0.00    +0.142 C 
ATOM      2  C   UNL     1      -7.714  16.673  67.735  0.00  0.00    +0.064 C 
ATOM      3  C   UNL     1      -8.594  17.865  68.446  0.00  0.00    +0.134 C 
ATOM      4  O   UNL     1      -9.814  17.023  68.606  0.00  0.00    -0.334 OA
ATOM      5  C   UNL     1     -10.273  16.295  67.651  0.00  0.00    +0.224 C 
ATOM      6  C   UNL     1     -10.672  17.015  66.398  0.00  0.00    +0.093 C 
ATOM      7  C   UNL     1     -10.605  18.547  67.003  0.00  0.00    +0.170 C 
ATOM      8  O   UNL     1     -10.648  19.134  65.607  0.00  0.00    -0.222 OA
ATOM      9  O   UNL     1     -11.543  15.888  68.151  0.00  0.00    -0.195 OA
ATOM     10  C   UNL     1      -9.682  14.914  67.373  0.00  0.00    +0.092 C 
ATOM     11  C   UNL     1     -10.391  14.496  65.940  0.00  0.00    +0.159 C 
ATOM     12  O   UNL     1      -9.367  13.400  65.681  0.00  0.00    -0.223 OA
ATOM     13  C   UNL     1     -11.463  13.479  66.667  0.00  0.00    +0.065 C 
ATOM     14  C   UNL     1     -10.463  12.643  67.687  0.00  0.00    +0.149 C 
ATOM     15  C   UNL     1     -11.047  11.158  67.107  0.00  0.00    +0.164 C 
ATOM     16  C   UNL     1     -10.023  10.335  68.041  0.00  0.00    +0.012 C 
ATOM     17  C   UNL     1      -9.062  10.155  67.104  0.00  0.00    +0.080 C 
ATOM     18  C   UNL     1      -8.775   8.714  67.027  0.00  0.00    +0.341 C 
ATOM     19  O   UNL     1      -8.886   7.979  66.048  0.00  0.00    -0.245 OA
ATOM     20  O   UNL     1      -8.970   8.350  68.370  0.00  0.00    -0.449 OA
ATOM     21  C   UNL     1      -8.016   9.006  69.381  0.00  0.00    +0.174 C 
ATOM     22  C   UNL     1      -9.123   9.677  70.425  0.00  0.00    +0.048 C 
ATOM     23  C   UNL     1      -7.544  10.377  68.589  0.00  0.00    +0.070 C 
ATOM     24  C   UNL     1      -6.249  10.746  69.183  0.00  0.00    -0.022 C 
ATOM     25  C   UNL     1      -6.156  11.210  70.402  0.00  0.00    -0.004 C 
ATOM     26  C   UNL     1      -5.604  12.529  70.658  0.00  0.00    -0.000 C 
ATOM     27  C   UNL     1      -4.642  12.948  69.829  0.00  0.00    -0.000 C 
ATOM     28  C   UNL     1      -4.794  14.341  69.501  0.00  0.00    -0.000 C 
ATOM     29  C   UNL     1      -6.000  14.745  69.096  0.00  0.00    -0.000 C 
ATOM     30  C   UNL     1      -5.940  14.956  67.666  0.00  0.00    -0.002 C 
ATOM     31  O   UNL     1     -11.765  11.905  68.418  0.00  0.00    -0.349 OA
ATOM     32  C   UNL     1      -8.916  18.532  66.913  0.00  0.00    +0.161 C 
ATOM     33  C   UNL     1      -5.474  16.058  67.256  0.00  0.00    +0.003 C 
ENDROOT
BRANCH  32  34
ATOM     34  C   UNL     1      -8.827  20.021  67.434  0.00  0.00    +0.369 C 
ATOM     35  O   UNL     1      -7.759  20.719  66.847  0.00  0.00    -0.245 OA
ATOM     36  O   UNL     1      -9.861  20.691  67.524  0.00  0.00    -0.245 OA
ENDBRANCH  32  34
BRANCH   1  37
ATOM     37  O   UNL     1      -6.001  17.397  69.009  0.00  0.00    -0.327 OA
BRANCH  37  46
ATOM     38  C   UNL     1      -3.658  21.198  67.978  0.00  0.00    +0.035 C 
ATOM     39  C   UNL     1      -4.885  20.596  68.890  0.00  0.00    +0.150 C 
ATOM     40  C   UNL     1      -3.898  20.713  70.296  0.00  0.00    +0.199 C 
ATOM     41  O   UNL     1      -4.561  22.018  70.661  0.00  0.00    -0.219 OA
ATOM     42  C   UNL     1      -4.951  19.906  71.356  0.00  0.00    +0.160 C 
ATOM     43  N   UNL     1      -3.833  19.794  72.428  0.00  0.00    -0.127 NA
ATOM     44  C   UNL     1      -4.652  18.323  70.797  0.00  0.00    +0.228 C 
ATOM     45  O   UNL     1      -3.312  18.556  70.178  0.00  0.00    -0.216 OA
ATOM     46  C   UNL     1      -5.685  18.801  69.478  0.00  0.00    +0.268 C 
ATOM     47  O   UNL     1      -4.541  19.155  68.522  0.00  0.00    -0.328 OA
ENDBRANCH  37  46
ENDBRANCH   1  37
TORSDOF 3
ENDMDL
MODEL 2
REMARK VINA RESULT:      -8.2      1.262      1.496
REMARK  Name = 
REMARK  3 active torsions:
REMARK  status: ('A' for Active; 'I' for Inactive)
REMARK    1  A    between atoms: C_4  and  O_5
REMARK    2  A    between atoms: O_5  and  C_6
REMARK    3  A    between atoms: C_35  and  C_36
REMARK                            x       y       z     vdW  Elec       q    Type
REMARK                         _______ _______ _______ _____ _____    ______ ____
ROOT
ATOM      1  C   UNL     1      -6.504  16.363  67.318  0.00  0.00    +0.142 C 
ATOM      2  C   UNL     1      -7.846  15.393  67.489  0.00  0.00    +0.064 C 
ATOM      3  C   UNL     1      -8.957  16.511  67.952  0.00  0.00    +0.134 C 
ATOM      4  O   UNL     1     -10.058  15.517  68.110  0.00  0.00    -0.334 OA
ATOM      5  C   UNL     1     -10.301  14.620  67.222  0.00  0.00    +0.224 C 
ATOM      6  C   UNL     1     -10.658  15.119  65.853  0.00  0.00    +0.093 C 
ATOM      7  C   UNL     1     -10.873  16.703  66.253  0.00  0.00    +0.170 C 
ATOM      8  O   UNL     1     -10.844  17.108  64.795  0.00  0.00    -0.222 OA
ATOM      9  O   UNL     1     -11.549  14.085  67.653  0.00  0.00    -0.195 OA
ATOM     10  C   UNL     1      -9.496  13.323  67.184  0.00  0.00    +0.092 C 
ATOM     11  C   UNL     1      -9.977  12.636  65.760  0.00  0.00    +0.159 C 
ATOM     12  O   UNL     1      -8.788  11.687  65.744  0.00  0.00    -0.223 OA
ATOM     13  C   UNL     1     -10.970  11.560  66.514  0.00  0.00    +0.065 C 
ATOM     14  C   UNL     1      -9.981  11.012  67.723  0.00  0.00    +0.149 C 
ATOM     15  C   UNL     1     -10.283   9.398  67.295  0.00  0.00    +0.164 C 
ATOM     16  C   UNL     1      -9.263   8.857  68.419  0.00  0.00    +0.012 C 
ATOM     17  C   UNL     1      -8.189   8.717  67.606  0.00  0.00    +0.080 C 
ATOM     18  C   UNL     1      -7.696   7.338  67.747  0.00  0.00    +0.341 C 
ATOM     19  O   UNL     1      -7.595   6.484  66.867  0.00  0.00    -0.245 OA
ATOM     20  O   UNL     1      -7.985   7.108  69.103  0.00  0.00    -0.449 OA
ATOM     21  C   UNL     1      -7.249   8.016  70.102  0.00  0.00    +0.174 C 
ATOM     22  C   UNL     1      -8.548   8.629  70.941  0.00  0.00    +0.048 C 
ATOM     23  C   UNL     1      -6.890   9.342  69.181  0.00  0.00    +0.070 C 
ATOM     24  C   UNL     1      -5.732   9.971  69.837  0.00  0.00    -0.022 C 
ATOM     25  C   UNL     1      -5.840  10.584  70.987  0.00  0.00    -0.004 C 
ATOM     26  C   UNL     1      -5.511  11.993  71.115  0.00  0.00    -0.000 C 
ATOM     27  C   UNL     1      -4.532  12.454  70.330  0.00  0.00    -0.000 C 
ATOM     28  C   UNL     1      -4.840  13.759  69.807  0.00  0.00    -0.000 C 
ATOM     29  C   UNL     1      -6.039  13.923  69.244  0.00  0.00    -0.000 C 
ATOM     30  C   UNL     1      -5.852  13.971  67.810  0.00  0.00    -0.002 C 
ATOM     31  O   UNL     1     -11.239  10.175  68.424  0.00  0.00    -0.349 OA
ATOM     32  C   UNL     1      -9.199  16.936  66.321  0.00  0.00    +0.161 C 
ATOM     33  C   UNL     1      -5.503  15.076  67.302  0.00  0.00    +0.003 C 
ENDROOT
BRANCH  32  34
ATOM     34  C   UNL     1      -9.378  18.472  66.646  0.00  0.00    +0.369 C 
ATOM     35  O   UNL     1      -8.543  19.276  65.853  0.00  0.00    -0.245 OA
ATOM     36  O   UNL     1     -10.517  18.931  66.782  0.00  0.00    -0.245 OA
ENDBRANCH  32  34
BRANCH   1  37
ATOM     37  O   UNL     1      -6.402  16.515  68.807  0.00  0.00    -0.327 OA
BRANCH  37  46
ATOM     38  C   UNL     1      -3.890  20.132  67.538  0.00  0.00    +0.035 C 
ATOM     39  C   UNL     1      -5.233  19.666  68.362  0.00  0.00    +0.150 C 
ATOM     40  C   UNL     1      -4.433  19.994  69.851  0.00  0.00    +0.199 C 
ATOM     41  O   UNL     1      -5.118  21.336  69.931  0.00  0.00    -0.219 OA
ATOM     42  C   UNL     1      -5.626  19.348  70.874  0.00  0.00    +0.160 C 
ATOM     43  N   UNL     1      -4.656  19.402  72.086  0.00  0.00    -0.127 NA
ATOM     44  C   UNL     1      -5.281  17.702  70.598  0.00  0.00    +0.228 C 
ATOM     45  O   UNL     1      -3.869  17.847  70.130  0.00  0.00    -0.216 OA
ATOM     46  C   UNL     1      -6.128  17.974  69.100  0.00  0.00    +0.268 C 
ATOM     47  O   UNL     1      -4.866  18.187  68.258  0.00  0.00    -0.328 OA
ENDBRANCH  37  46
ENDBRANCH   1  37
TORSDOF 3
ENDMDL
MODEL 3
REMARK VINA RESULT:      -8.0      2.803      8.717
REMARK  Name = 
REMARK  3 active torsions:
REMARK  status: ('A' for Active; 'I' for Inactive)
REMARK    1  A    between atoms: C_4  and  O_5
REMARK    2  A    between atoms: O_5  and  C_6
REMARK    3  A    between atoms: C_35  and  C_36
REMARK                            x       y       z     vdW  Elec       q    Type
REMARK                         _______ _______ _______ _____ _____    ______ ____
ROOT
ATOM      1  C   UNL     1      -9.330  11.911  67.200  0.00  0.00    +0.142 C 
ATOM      2  C   UNL     1      -9.430  13.485  66.670  0.00  0.00    +0.064 C 
ATOM      3  C   UNL     1      -9.999  13.246  65.148  0.00  0.00    +0.134 C 
ATOM      4  O   UNL     1      -9.990  14.695  64.795  0.00  0.00    -0.334 OA
ATOM      5  C   UNL     1     -10.465  15.593  65.582  0.00  0.00    +0.224 C 
ATOM      6  C   UNL     1     -11.918  15.467  65.935  0.00  0.00    +0.093 C 
ATOM      7  C   UNL     1     -12.309  14.319  64.820  0.00  0.00    +0.170 C 
ATOM      8  O   UNL     1     -13.621  14.039  65.523  0.00  0.00    -0.222 OA
ATOM      9  O   UNL     1     -10.483  16.754  64.757  0.00  0.00    -0.195 OA
ATOM     10  C   UNL     1      -9.626  16.142  66.734  0.00  0.00    +0.092 C 
ATOM     11  C   UNL     1     -10.719  17.039  67.588  0.00  0.00    +0.159 C 
ATOM     12  O   UNL     1      -9.822  17.078  68.817  0.00  0.00    -0.223 OA
ATOM     13  C   UNL     1     -10.152  18.464  66.988  0.00  0.00    +0.065 C 
ATOM     14  C   UNL     1      -8.520  18.253  67.167  0.00  0.00    +0.149 C 
ATOM     15  C   UNL     1      -8.376  19.739  67.974  0.00  0.00    +0.164 C 
ATOM     16  C   UNL     1      -6.800  19.508  68.221  0.00  0.00    +0.012 C 
ATOM     17  C   UNL     1      -6.907  19.005  69.474  0.00  0.00    +0.080 C 
ATOM     18  C   UNL     1      -6.034  19.801  70.352  0.00  0.00    +0.341 C 
ATOM     19  O   UNL     1      -6.362  20.457  71.340  0.00  0.00    -0.245 OA
ATOM     20  O   UNL     1      -4.991  20.102  69.460  0.00  0.00    -0.449 OA
ATOM     21  C   UNL     1      -4.207  18.894  68.923  0.00  0.00    +0.174 C 
ATOM     22  C   UNL     1      -4.365  19.154  67.288  0.00  0.00    +0.048 C 
ATOM     23  C   UNL     1      -5.294  17.659  69.093  0.00  0.00    +0.070 C 
ATOM     24  C   UNL     1      -4.484  16.433  69.166  0.00  0.00    -0.022 C 
ATOM     25  C   UNL     1      -3.850  15.962  68.123  0.00  0.00    -0.004 C 
ATOM     26  C   UNL     1      -4.142  14.636  67.609  0.00  0.00    -0.000 C 
ATOM     27  C   UNL     1      -4.502  13.711  68.504  0.00  0.00    -0.000 C 
ATOM     28  C   UNL     1      -5.567  12.879  68.009  0.00  0.00    -0.000 C 
ATOM     29  C   UNL     1      -6.630  13.494  67.486  0.00  0.00    -0.000 C 
ATOM     30  C   UNL     1      -7.711  13.402  68.442  0.00  0.00    -0.002 C 
ATOM     31  O   UNL     1      -8.209  19.650  66.314  0.00  0.00    -0.349 OA
ATOM     32  C   UNL     1     -11.580  13.121  65.767  0.00  0.00    +0.161 C 
ATOM     33  C   UNL     1      -8.387  12.333  68.462  0.00  0.00    +0.003 C 
ENDROOT
BRANCH  32  34
ATOM     34  C   UNL     1     -11.996  11.991  64.743  0.00  0.00    +0.369 C 
ATOM     35  O   UNL     1     -12.516  12.528  63.553  0.00  0.00    -0.245 OA
ATOM     36  O   UNL     1     -11.237  11.034  64.559  0.00  0.00    -0.245 OA
ENDBRANCH  32  34
BRANCH   1  37
ATOM     37  O   UNL     1      -8.149  11.667  66.306  0.00  0.00    -0.327 OA
BRANCH  37  46
ATOM     38  C   UNL     1     -10.193   7.629  67.031  0.00  0.00    +0.035 C 
ATOM     39  C   UNL     1      -9.340   8.514  65.940  0.00  0.00    +0.150 C 
ATOM     40  C   UNL     1      -7.951   7.540  66.235  0.00  0.00    +0.199 C 
ATOM     41  O   UNL     1      -8.255   6.722  65.005  0.00  0.00    -0.219 OA
ATOM     42  C   UNL     1      -6.854   8.463  65.325  0.00  0.00    +0.160 C 
ATOM     43  N   UNL     1      -5.653   7.696  65.942  0.00  0.00    -0.127 NA
ATOM     44  C   UNL     1      -6.677   9.746  66.433  0.00  0.00    +0.228 C 
ATOM     45  O   UNL     1      -7.099   9.027  67.674  0.00  0.00    -0.216 OA
ATOM     46  C   UNL     1      -8.232  10.235  65.820  0.00  0.00    +0.268 C 
ATOM     47  O   UNL     1      -9.039   9.608  66.961  0.00  0.00    -0.328 OA
ENDBRANCH  37  46
ENDBRANCH   1  37
TORSDOF 3
ENDMDL
MODEL 4
REMARK VINA RESULT:      -7.7      2.583      5.888
REMARK  Name = 
REMARK  3 active torsions:
REMARK  status: ('A' for Active; 'I' for Inactive)
REMARK    1  A    between atoms: C_4  and  O_5
REMARK    2  A    between atoms: O_5  and  C_6
REMARK    3  A    between atoms: C_35  and  C_36
REMARK                            x       y       z     vdW  Elec       q    Type
REMARK                         _______ _______ _______ _____ _____    ______ ____
ROOT
ATOM      1  C   UNL     1      -7.770  15.657  69.427  0.00  0.00    +0.142 C 
ATOM      2  C   UNL     1      -6.760  14.358  69.173  0.00  0.00    +0.064 C 
ATOM      3  C   UNL     1      -5.347  15.142  68.875  0.00  0.00    +0.134 C 
ATOM      4  O   UNL     1      -4.575  13.890  68.625  0.00  0.00    -0.334 OA
ATOM      5  C   UNL     1      -4.654  12.871  69.404  0.00  0.00    +0.224 C 
ATOM      6  C   UNL     1      -4.249  13.092  70.832  0.00  0.00    +0.093 C 
ATOM      7  C   UNL     1      -3.561  14.575  70.631  0.00  0.00    +0.170 C 
ATOM      8  O   UNL     1      -3.557  14.811  72.127  0.00  0.00    -0.222 OA
ATOM      9  O   UNL     1      -3.593  12.042  68.942  0.00  0.00    -0.195 OA
ATOM     10  C   UNL     1      -5.802  11.873  69.266  0.00  0.00    +0.092 C 
ATOM     11  C   UNL     1      -5.626  10.925  70.608  0.00  0.00    +0.159 C 
ATOM     12  O   UNL     1      -7.038  10.374  70.481  0.00  0.00    -0.223 OA
ATOM     13  C   UNL     1      -4.945   9.692  69.754  0.00  0.00    +0.065 C 
ATOM     14  C   UNL     1      -5.978   9.595  68.464  0.00  0.00    +0.149 C 
ATOM     15  C   UNL     1      -6.183   7.927  68.702  0.00  0.00    +0.164 C 
ATOM     16  C   UNL     1      -7.249   7.836  67.496  0.00  0.00    +0.012 C 
ATOM     17  C   UNL     1      -8.363   7.932  68.260  0.00  0.00    +0.080 C 
ATOM     18  C   UNL     1      -9.226   6.784  67.942  0.00  0.00    +0.341 C 
ATOM     19  O   UNL     1      -9.621   5.908  68.710  0.00  0.00    -0.245 OA
ATOM     20  O   UNL     1      -8.937   6.627  66.576  0.00  0.00    -0.449 OA
ATOM     21  C   UNL     1      -9.317   7.814  65.676  0.00  0.00    +0.174 C 
ATOM     22  C   UNL     1      -7.850   8.103  64.948  0.00  0.00    +0.048 C 
ATOM     23  C   UNL     1      -9.330   9.079  66.741  0.00  0.00    +0.070 C 
ATOM     24  C   UNL     1     -10.214  10.089  66.138  0.00  0.00    -0.022 C 
ATOM     25  C   UNL     1      -9.866  10.763  65.073  0.00  0.00    -0.004 C 
ATOM     26  C   UNL     1      -9.764  12.212  65.108  0.00  0.00    -0.000 C 
ATOM     27  C   UNL     1     -10.612  12.853  65.919  0.00  0.00    -0.000 C 
ATOM     28  C   UNL     1      -9.969  13.944  66.603  0.00  0.00    -0.000 C 
ATOM     29  C   UNL     1      -8.810  13.686  67.210  0.00  0.00    -0.000 C 
ATOM     30  C   UNL     1      -9.058  13.631  68.634  0.00  0.00    -0.002 C 
ATOM     31  O   UNL     1      -4.979   8.505  67.698  0.00  0.00    -0.349 OA
ATOM     32  C   UNL     1      -5.089  15.298  70.551  0.00  0.00    +0.161 C 
ATOM     33  C   UNL     1      -9.101  14.728  69.264  0.00  0.00    +0.003 C 
ENDROOT
BRANCH  32  34
ATOM     34  C   UNL     1      -4.453  16.738  70.418  0.00  0.00    +0.369 C 
ATOM     35  O   UNL     1      -5.003  17.642  71.342  0.00  0.00    -0.245 OA
ATOM     36  O   UNL     1      -3.228  16.848  70.294  0.00  0.00    -0.245 OA
ENDBRANCH  32  34
BRANCH   1  37
ATOM     37  O   UNL     1      -7.736  15.992  67.965  0.00  0.00    -0.327 OA
BRANCH  37  46
ATOM     38  C   UNL     1     -10.018  19.963  68.150  0.00  0.00    +0.035 C 
ATOM     39  C   UNL     1      -8.523  19.281  68.208  0.00  0.00    +0.150 C 
ATOM     40  C   UNL     1      -8.190  19.875  66.627  0.00  0.00    +0.199 C 
ATOM     41  O   UNL     1      -7.439  21.043  67.217  0.00  0.00    -0.219 OA
ATOM     42  C   UNL     1      -6.714  19.063  66.408  0.00  0.00    +0.160 C 
ATOM     43  N   UNL     1      -6.717  19.406  64.893  0.00  0.00    -0.127 NA
ATOM     44  C   UNL     1      -7.359  17.513  66.116  0.00  0.00    +0.228 C 
ATOM     45  O   UNL     1      -8.728  17.921  65.677  0.00  0.00    -0.216 OA
ATOM     46  C   UNL     1      -7.586  17.493  67.843  0.00  0.00    +0.268 C 
ATOM     47  O   UNL     1      -9.059  17.910  67.799  0.00  0.00    -0.328 OA
ENDBRANCH  37  46
ENDBRANCH   1  37
TORSDOF 3
ENDMDL
MODEL 5
REMARK VINA RESULT:      -7.6      2.615      8.716
REMARK  Name = 
REMARK  3 active torsions:
REMARK  status: ('A' for Active; 'I' for Inactive)
REMARK    1  A    between atoms: C_4  and  O_5
REMARK    2  A    between atoms: O_5  and  C_6
REMARK    3  A    between atoms: C_35  and  C_36
REMARK                            x       y       z     vdW  Elec       q    Type
REMARK                         _______ _______ _______ _____ _____    ______ ____
ROOT
ATOM      1  C   UNL     1      -8.181  12.412  68.243  0.00  0.00    +0.142 C 
ATOM      2  C   UNL     1      -8.458  13.883  67.515  0.00  0.00    +0.064 C 
ATOM      3  C   UNL     1      -9.287  13.396  66.182  0.00  0.00    +0.134 C 
ATOM      4  O   UNL     1      -9.418  14.773  65.623  0.00  0.00    -0.334 OA
ATOM      5  C   UNL     1      -9.785  15.772  66.344  0.00  0.00    +0.224 C 
ATOM      6  C   UNL     1     -11.138  15.670  66.983  0.00  0.00    +0.093 C 
ATOM      7  C   UNL     1     -11.670  14.353  66.147  0.00  0.00    +0.170 C 
ATOM      8  O   UNL     1     -12.812  14.156  67.121  0.00  0.00    -0.222 OA
ATOM      9  O   UNL     1     -10.015  16.789  65.375  0.00  0.00    -0.195 OA
ATOM     10  C   UNL     1      -8.776  16.512  67.220  0.00  0.00    +0.092 C 
ATOM     11  C   UNL     1      -9.737  17.506  68.125  0.00  0.00    +0.159 C 
ATOM     12  O   UNL     1      -8.631  17.755  69.140  0.00  0.00    -0.223 OA
ATOM     13  C   UNL     1      -9.365  18.832  67.223  0.00  0.00    +0.065 C 
ATOM     14  C   UNL     1      -7.720  18.689  67.116  0.00  0.00    +0.149 C 
ATOM     15  C   UNL     1      -7.505  20.286  67.651  0.00  0.00    +0.164 C 
ATOM     16  C   UNL     1      -5.901  20.132  67.624  0.00  0.00    +0.012 C 
ATOM     17  C   UNL     1      -5.748  19.827  68.935  0.00  0.00    +0.080 C 
ATOM     18  C   UNL     1      -4.770  20.769  69.502  0.00  0.00    +0.341 C 
ATOM     19  O   UNL     1      -4.942  21.563  70.426  0.00  0.00    -0.245 OA
ATOM     20  O   UNL     1      -3.927  20.952  68.393  0.00  0.00    -0.449 OA
ATOM     21  C   UNL     1      -3.195  19.692  67.901  0.00  0.00    +0.174 C 
ATOM     22  C   UNL     1      -3.666  19.692  66.306  0.00  0.00    +0.048 C 
ATOM     23  C   UNL     1      -4.166  18.475  68.457  0.00  0.00    +0.070 C 
ATOM     24  C   UNL     1      -3.295  17.293  68.554  0.00  0.00    -0.022 C 
ATOM     25  C   UNL     1      -2.841  16.681  67.492  0.00  0.00    -0.004 C 
ATOM     26  C   UNL     1      -3.155  15.284  67.245  0.00  0.00    -0.000 C 
ATOM     27  C   UNL     1      -3.295  14.502  68.320  0.00  0.00    -0.000 C 
ATOM     28  C   UNL     1      -4.389  13.579  68.167  0.00  0.00    -0.000 C 
ATOM     29  C   UNL     1      -5.560  14.082  67.770  0.00  0.00    -0.000 C 
ATOM     30  C   UNL     1      -6.439  14.115  68.918  0.00  0.00    -0.002 C 
ATOM     31  O   UNL     1      -7.645  19.943  66.022  0.00  0.00    -0.349 OA
ATOM     32  C   UNL     1     -10.717  13.333  67.103  0.00  0.00    +0.161 C 
ATOM     33  C   UNL     1      -7.043  13.046  69.225  0.00  0.00    +0.003 C 
ENDROOT
BRANCH  32  34
ATOM     34  C   UNL     1     -11.257  12.050  66.357  0.00  0.00    +0.369 C 
ATOM     35  O   UNL     1     -11.688  11.061  67.257  0.00  0.00    -0.245 OA
ATOM     36  O   UNL     1     -12.008  12.189  65.385  0.00  0.00    -0.245 OA
ENDBRANCH  32  34
BRANCH   1  37
ATOM     37  O   UNL     1      -7.175  12.059  67.187  0.00  0.00    -0.327 OA
BRANCH  37  46
ATOM     38  C   UNL     1      -9.671   8.325  68.099  0.00  0.00    +0.035 C 
ATOM     39  C   UNL     1      -8.775   9.079  66.947  0.00  0.00    +0.150 C 
ATOM     40  C   UNL     1      -7.506   7.941  67.187  0.00  0.00    +0.199 C 
ATOM     41  O   UNL     1      -7.979   7.152  65.991  0.00  0.00    -0.219 OA
ATOM     42  C   UNL     1      -6.353   8.704  66.202  0.00  0.00    +0.160 C 
ATOM     43  N   UNL     1      -5.226   7.797  66.769  0.00  0.00    -0.127 NA
ATOM     44  C   UNL     1      -5.953   9.968  67.274  0.00  0.00    +0.228 C 
ATOM     45  O   UNL     1      -6.394   9.325  68.549  0.00  0.00    -0.216 OA
ATOM     46  C   UNL     1      -7.465  10.644  66.734  0.00  0.00    +0.268 C 
ATOM     47  O   UNL     1      -8.282  10.140  67.928  0.00  0.00    -0.328 OA
ENDBRANCH  37  46
ENDBRANCH   1  37
TORSDOF 3
ENDMDL
MODEL 6
REMARK VINA RESULT:      -7.6      3.295     10.019
REMARK  Name = 
REMARK  3 active torsions:
REMARK  status: ('A' for Active; 'I' for Inactive)
REMARK    1  A    between atoms: C_4  and  O_5
REMARK    2  A    between atoms: O_5  and  C_6
REMARK    3  A    between atoms: C_35  and  C_36
REMARK                            x       y       z     vdW  Elec       q    Type
REMARK                         _______ _______ _______ _____ _____    ______ ____
ROOT
ATOM      1  C   UNL     1      -7.151   9.648  68.178  0.00  0.00    +0.142 C 
ATOM      2  C   UNL     1      -6.670  11.058  68.920  0.00  0.00    +0.064 C 
ATOM      3  C   UNL     1      -6.430  10.514  70.452  0.00  0.00    +0.134 C 
ATOM      4  O   UNL     1      -6.063  11.856  70.991  0.00  0.00    -0.334 OA
ATOM      5  C   UNL     1      -5.232  12.630  70.389  0.00  0.00    +0.224 C 
ATOM      6  C   UNL     1      -3.846  12.093  70.190  0.00  0.00    +0.093 C 
ATOM      7  C   UNL     1      -3.981  10.782  71.179  0.00  0.00    +0.170 C 
ATOM      8  O   UNL     1      -2.722  10.174  70.599  0.00  0.00    -0.222 OA
ATOM      9  O   UNL     1      -4.995  13.647  71.358  0.00  0.00    -0.195 OA
ATOM     10  C   UNL     1      -5.691  13.516  69.233  0.00  0.00    +0.092 C 
ATOM     11  C   UNL     1      -4.267  14.104  68.635  0.00  0.00    +0.159 C 
ATOM     12  O   UNL     1      -4.920  14.532  67.329  0.00  0.00    -0.223 OA
ATOM     13  C   UNL     1      -4.471  15.573  69.352  0.00  0.00    +0.065 C 
ATOM     14  C   UNL     1      -6.047  15.897  68.962  0.00  0.00    +0.149 C 
ATOM     15  C   UNL     1      -5.624  17.422  68.349  0.00  0.00    +0.164 C 
ATOM     16  C   UNL     1      -7.143  17.716  67.896  0.00  0.00    +0.012 C 
ATOM     17  C   UNL     1      -7.004  17.322  66.607  0.00  0.00    +0.080 C 
ATOM     18  C   UNL     1      -7.462  18.426  65.750  0.00  0.00    +0.341 C 
ATOM     19  O   UNL     1      -6.812  19.036  64.902  0.00  0.00    -0.245 OA
ATOM     20  O   UNL     1      -8.490  18.953  66.550  0.00  0.00    -0.449 OA
ATOM     21  C   UNL     1      -9.667  18.004  66.829  0.00  0.00    +0.174 C 
ATOM     22  C   UNL     1      -9.684  18.051  68.492  0.00  0.00    +0.048 C 
ATOM     23  C   UNL     1      -8.981  16.514  66.621  0.00  0.00    +0.070 C 
ATOM     24  C   UNL     1     -10.096  15.612  66.294  0.00  0.00    -0.022 C 
ATOM     25  C   UNL     1     -10.989  15.268  67.186  0.00  0.00    -0.004 C 
ATOM     26  C   UNL     1     -11.181  13.875  67.549  0.00  0.00    -0.000 C 
ATOM     27  C   UNL     1     -10.981  12.970  66.585  0.00  0.00    -0.000 C 
ATOM     28  C   UNL     1     -10.295  11.807  67.083  0.00  0.00    -0.000 C 
ATOM     29  C   UNL     1      -9.189  12.011  67.801  0.00  0.00    -0.000 C 
ATOM     30  C   UNL     1      -8.053  11.676  66.969  0.00  0.00    -0.002 C 
ATOM     31  O   UNL     1      -6.055  17.236  69.952  0.00  0.00    -0.349 OA
ATOM     32  C   UNL     1      -4.882   9.962  70.005  0.00  0.00    +0.161 C 
ATOM     33  C   UNL     1      -7.729  10.456  66.885  0.00  0.00    +0.003 C 
ENDROOT
BRANCH  32  34
ATOM     34  C   UNL     1      -4.975   8.670  70.910  0.00  0.00    +0.369 C 
ATOM     35  O   UNL     1      -4.603   7.511  70.210  0.00  0.00    -0.245 OA
ATOM     36  O   UNL     1      -4.535   8.709  72.064  0.00  0.00    -0.245 OA
ENDBRANCH  32  34
BRANCH   1  37
ATOM     37  O   UNL     1      -8.470   9.702  68.891  0.00  0.00    -0.327 OA
BRANCH  37  46
ATOM     38  C   UNL     1     -10.937   6.203  67.255  0.00  0.00    +0.035 C 
ATOM     39  C   UNL     1      -9.752   6.616  68.315  0.00  0.00    +0.150 C 
ATOM     40  C   UNL     1     -10.848   6.403  69.625  0.00  0.00    +0.199 C 
ATOM     41  O   UNL     1     -10.290   5.024  69.877  0.00  0.00    -0.219 OA
ATOM     42  C   UNL     1      -9.835   7.013  70.844  0.00  0.00    +0.160 C 
ATOM     43  N   UNL     1     -11.024   7.074  71.841  0.00  0.00    -0.127 NA
ATOM     44  C   UNL     1     -10.001   8.665  70.458  0.00  0.00    +0.228 C 
ATOM     45  O   UNL     1     -11.301   8.592  69.724  0.00  0.00    -0.216 OA
ATOM     46  C   UNL     1      -8.899   8.276  69.166  0.00  0.00    +0.268 C 
ATOM     47  O   UNL     1      -9.985   8.109  68.098  0.00  0.00    -0.328 OA
ENDBRANCH  37  46
ENDBRANCH   1  37
TORSDOF 3
ENDMDL
MODEL 7
REMARK VINA RESULT:      -7.5      4.003      7.863
REMARK  Name = 
REMARK  3 active torsions:
REMARK  status: ('A' for Active; 'I' for Inactive)
REMARK    1  A    between atoms: C_4  and  O_5
REMARK    2  A    between atoms: O_5  and  C_6
REMARK    3  A    between atoms: C_35  and  C_36
REMARK                            x       y       z     vdW  Elec       q    Type
REMARK                         _______ _______ _______ _____ _____    ______ ____
ROOT
ATOM      1  C   UNL     1     -11.322  11.297  67.714  0.00  0.00    +0.142 C 
ATOM      2  C   UNL     1     -10.745   9.976  68.547  0.00  0.00    +0.064 C 
ATOM      3  C   UNL     1     -10.595  10.622  70.050  0.00  0.00    +0.134 C 
ATOM      4  O   UNL     1     -10.040   9.375  70.653  0.00  0.00    -0.334 OA
ATOM      5  C   UNL     1     -10.564   8.222  70.441  0.00  0.00    +0.224 C 
ATOM      6  C   UNL     1     -11.991   8.050  70.869  0.00  0.00    +0.093 C 
ATOM      7  C   UNL     1     -12.118   9.440  71.746  0.00  0.00    +0.170 C 
ATOM      8  O   UNL     1     -13.627   9.318  71.779  0.00  0.00    -0.222 OA
ATOM      9  O   UNL     1      -9.892   7.395  71.386  0.00  0.00    -0.195 OA
ATOM     10  C   UNL     1     -10.233   7.437  69.173  0.00  0.00    +0.092 C 
ATOM     11  C   UNL     1     -11.313   6.187  69.223  0.00  0.00    +0.159 C 
ATOM     12  O   UNL     1     -11.103   5.865  67.751  0.00  0.00    -0.223 OA
ATOM     13  C   UNL     1     -10.177   5.112  69.738  0.00  0.00    +0.065 C 
ATOM     14  C   UNL     1      -8.931   5.450  68.703  0.00  0.00    +0.149 C 
ATOM     15  C   UNL     1      -8.782   3.812  68.282  0.00  0.00    +0.164 C 
ATOM     16  C   UNL     1      -7.620   4.140  67.215  0.00  0.00    +0.012 C 
ATOM     17  C   UNL     1      -8.418   4.196  66.122  0.00  0.00    +0.080 C 
ATOM     18  C   UNL     1      -7.868   3.273  65.117  0.00  0.00    +0.341 C 
ATOM     19  O   UNL     1      -8.424   2.299  64.610  0.00  0.00    -0.245 OA
ATOM     20  O   UNL     1      -6.495   3.403  65.385  0.00  0.00    -0.449 OA
ATOM     21  C   UNL     1      -5.906   4.806  65.163  0.00  0.00    +0.174 C 
ATOM     22  C   UNL     1      -5.222   5.068  66.656  0.00  0.00    +0.048 C 
ATOM     23  C   UNL     1      -7.234   5.779  65.314  0.00  0.00    +0.070 C 
ATOM     24  C   UNL     1      -6.907   7.005  64.569  0.00  0.00    -0.022 C 
ATOM     25  C   UNL     1      -6.017   7.860  65.004  0.00  0.00    -0.004 C 
ATOM     26  C   UNL     1      -6.383   9.235  65.293  0.00  0.00    -0.000 C 
ATOM     27  C   UNL     1      -7.345   9.772  64.535  0.00  0.00    -0.000 C 
ATOM     28  C   UNL     1      -8.244  10.583  65.314  0.00  0.00    -0.000 C 
ATOM     29  C   UNL     1      -8.741  10.045  66.429  0.00  0.00    -0.000 C 
ATOM     30  C   UNL     1     -10.120   9.692  66.174  0.00  0.00    -0.002 C 
ATOM     31  O   UNL     1      -7.904   4.450  69.552  0.00  0.00    -0.349 OA
ATOM     32  C   UNL     1     -12.253  10.349  70.325  0.00  0.00    +0.161 C 
ATOM     33  C   UNL     1     -10.987  10.609  66.274  0.00  0.00    +0.003 C 
ENDROOT
BRANCH  32  34
ATOM     34  C   UNL     1     -12.438  11.688  71.143  0.00  0.00    +0.369 C 
ATOM     35  O   UNL     1     -12.611  12.798  70.300  0.00  0.00    -0.245 OA
ATOM     36  O   UNL     1     -13.188  11.696  72.125  0.00  0.00    -0.245 OA
ENDBRANCH  32  34
BRANCH   1  37
ATOM     37  O   UNL     1      -9.976  11.956  67.793  0.00  0.00    -0.327 OA
BRANCH  37  46
ATOM     38  C   UNL     1     -10.563  15.735  65.266  0.00  0.00    +0.035 C 
ATOM     39  C   UNL     1     -10.754  15.093  66.767  0.00  0.00    +0.150 C 
ATOM     40  C   UNL     1      -9.425  16.026  67.336  0.00  0.00    +0.199 C 
ATOM     41  O   UNL     1     -10.377  17.054  67.894  0.00  0.00    -0.219 OA
ATOM     42  C   UNL     1      -9.319  15.318  68.877  0.00  0.00    +0.160 C 
ATOM     43  N   UNL     1      -7.938  15.983  69.120  0.00  0.00    -0.127 NA
ATOM     44  C   UNL     1      -8.593  13.853  68.393  0.00  0.00    +0.228 C 
ATOM     45  O   UNL     1      -8.002  14.315  67.100  0.00  0.00    -0.216 OA
ATOM     46  C   UNL     1     -10.204  13.451  67.866  0.00  0.00    +0.268 C 
ATOM     47  O   UNL     1      -9.974  13.832  66.400  0.00  0.00    -0.328 OA
ENDBRANCH  37  46
ENDBRANCH   1  37
TORSDOF 3
ENDMDL
MODEL 8
REMARK VINA RESULT:      -7.5      5.557      9.223
REMARK  Name = 
REMARK  3 active torsions:
REMARK  status: ('A' for Active; 'I' for Inactive)
REMARK    1  A    between atoms: C_4  and  O_5
REMARK    2  A    between atoms: O_5  and  C_6
REMARK    3  A    between atoms: C_35  and  C_36
REMARK                            x       y       z     vdW  Elec       q    Type
REMARK                         _______ _______ _______ _____ _____    ______ ____
ROOT
ATOM      1  C   UNL     1      -8.134  10.857  66.496  0.00  0.00    +0.142 C 
ATOM      2  C   UNL     1      -8.220   9.210  66.723  0.00  0.00    +0.064 C 
ATOM      3  C   UNL     1      -8.595   8.725  65.198  0.00  0.00    +0.134 C 
ATOM      4  O   UNL     1      -8.685   7.281  65.559  0.00  0.00    -0.334 OA
ATOM      5  C   UNL     1      -7.791   6.698  66.275  0.00  0.00    +0.224 C 
ATOM      6  C   UNL     1      -6.396   6.694  65.724  0.00  0.00    +0.093 C 
ATOM      7  C   UNL     1      -6.765   7.221  64.207  0.00  0.00    +0.170 C 
ATOM      8  O   UNL     1      -5.308   7.519  63.921  0.00  0.00    -0.222 OA
ATOM      9  O   UNL     1      -8.139   5.322  66.150  0.00  0.00    -0.195 OA
ATOM     10  C   UNL     1      -7.821   6.805  67.798  0.00  0.00    +0.092 C 
ATOM     11  C   UNL     1      -6.374   6.141  68.240  0.00  0.00    +0.159 C 
ATOM     12  O   UNL     1      -6.449   6.749  69.633  0.00  0.00    -0.223 OA
ATOM     13  C   UNL     1      -7.067   4.719  68.699  0.00  0.00    +0.065 C 
ATOM     14  C   UNL     1      -8.347   5.268  69.594  0.00  0.00    +0.149 C 
ATOM     15  C   UNL     1      -7.914   4.271  70.898  0.00  0.00    +0.164 C 
ATOM     16  C   UNL     1      -9.111   4.855  71.806  0.00  0.00    +0.012 C 
ATOM     17  C   UNL     1      -8.376   5.784  72.462  0.00  0.00    +0.080 C 
ATOM     18  C   UNL     1      -8.565   5.567  73.905  0.00  0.00    +0.341 C 
ATOM     19  O   UNL     1      -7.702   5.308  74.743  0.00  0.00    -0.245 OA
ATOM     20  O   UNL     1      -9.899   5.127  73.919  0.00  0.00    -0.449 OA
ATOM     21  C   UNL     1     -10.938   6.144  73.417  0.00  0.00    +0.174 C 
ATOM     22  C   UNL     1     -11.679   5.236  72.237  0.00  0.00    +0.048 C 
ATOM     23  C   UNL     1     -10.032   7.132  72.450  0.00  0.00    +0.070 C 
ATOM     24  C   UNL     1     -10.761   8.410  72.405  0.00  0.00    -0.022 C 
ATOM     25  C   UNL     1     -11.895   8.535  71.766  0.00  0.00    -0.004 C 
ATOM     26  C   UNL     1     -12.032   9.477  70.668  0.00  0.00    -0.000 C 
ATOM     27  C   UNL     1     -11.313  10.601  70.748  0.00  0.00    -0.000 C 
ATOM     28  C   UNL     1     -10.757  10.968  69.472  0.00  0.00    -0.000 C 
ATOM     29  C   UNL     1     -10.110  10.018  68.792  0.00  0.00    -0.000 C 
ATOM     30  C   UNL     1      -8.693  10.288  68.895  0.00  0.00    -0.002 C 
ATOM     31  O   UNL     1      -8.967   3.727  69.721  0.00  0.00    -0.349 OA
ATOM     32  C   UNL     1      -6.947   8.803  64.777  0.00  0.00    +0.161 C 
ATOM     33  C   UNL     1      -8.200  11.141  68.101  0.00  0.00    +0.003 C 
ENDROOT
BRANCH  32  34
ATOM     34  C   UNL     1      -7.245   9.344  63.322  0.00  0.00    +0.369 C 
ATOM     35  O   UNL     1      -6.385  10.397  62.968  0.00  0.00    -0.245 OA
ATOM     36  O   UNL     1      -7.435   8.537  62.406  0.00  0.00    -0.245 OA
ENDBRANCH  32  34
BRANCH   1  37
ATOM     37  O   UNL     1      -9.625  10.933  66.349  0.00  0.00    -0.327 OA
BRANCH  37  46
ATOM     38  C   UNL     1     -11.395  14.996  67.518  0.00  0.00    +0.035 C 
ATOM     39  C   UNL     1     -10.478  14.214  66.401  0.00  0.00    +0.150 C 
ATOM     40  C   UNL     1     -11.779  14.292  65.277  0.00  0.00    +0.199 C 
ATOM     41  O   UNL     1     -11.153  15.499  64.625  0.00  0.00    -0.219 OA
ATOM     42  C   UNL     1     -11.080  13.309  64.081  0.00  0.00    +0.160 C 
ATOM     43  N   UNL     1     -12.437  13.201  63.336  0.00  0.00    -0.127 NA
ATOM     44  C   UNL     1     -11.323  11.813  64.860  0.00  0.00    +0.228 C 
ATOM     45  O   UNL     1     -12.447  12.212  65.762  0.00  0.00    -0.216 OA
ATOM     46  C   UNL     1      -9.963  12.313  65.827  0.00  0.00    +0.268 C 
ATOM     47  O   UNL     1     -10.804  12.844  66.993  0.00  0.00    -0.328 OA
ENDBRANCH  37  46
ENDBRANCH   1  37
TORSDOF 3
ENDMDL
MODEL 9
REMARK VINA RESULT:      -7.4      6.052     12.030
REMARK  Name = 
REMARK  3 active torsions:
REMARK  status: ('A' for Active; 'I' for Inactive)
REMARK    1  A    between atoms: C_4  and  O_5
REMARK    2  A    between atoms: O_5  and  C_6
REMARK    3  A    between atoms: C_35  and  C_36
REMARK                            x       y       z     vdW  Elec       q    Type
REMARK                         _______ _______ _______ _____ _____    ______ ____
ROOT
ATOM      1  C   UNL     1      -9.447   4.887  70.079  0.00  0.00    +0.142 C 
ATOM      2  C   UNL     1      -8.613   6.111  69.319  0.00  0.00    +0.064 C 
ATOM      3  C   UNL     1      -7.094   5.816  69.873  0.00  0.00    +0.134 C 
ATOM      4  O   UNL     1      -6.490   6.984  69.168  0.00  0.00    -0.334 OA
ATOM      5  C   UNL     1      -6.742   7.244  67.935  0.00  0.00    +0.224 C 
ATOM      6  C   UNL     1      -6.376   6.181  66.942  0.00  0.00    +0.093 C 
ATOM      7  C   UNL     1      -5.483   5.240  67.958  0.00  0.00    +0.170 C 
ATOM      8  O   UNL     1      -5.514   4.091  66.972  0.00  0.00    -0.222 OA
ATOM      9  O   UNL     1      -5.784   8.251  67.626  0.00  0.00    -0.195 OA
ATOM     10  C   UNL     1      -8.008   8.003  67.543  0.00  0.00    +0.092 C 
ATOM     11  C   UNL     1      -8.023   7.864  65.897  0.00  0.00    +0.159 C 
ATOM     12  O   UNL     1      -9.490   8.258  65.814  0.00  0.00    -0.223 OA
ATOM     13  C   UNL     1      -7.479   9.402  65.674  0.00  0.00    +0.065 C 
ATOM     14  C   UNL     1      -8.456  10.236  66.718  0.00  0.00    +0.149 C 
ATOM     15  C   UNL     1      -8.897  11.329  65.496  0.00  0.00    +0.164 C 
ATOM     16  C   UNL     1      -9.910  12.101  66.484  0.00  0.00    +0.012 C 
ATOM     17  C   UNL     1     -11.034  11.449  66.102  0.00  0.00    +0.080 C 
ATOM     18  C   UNL     1     -12.030  12.460  65.716  0.00  0.00    +0.341 C 
ATOM     19  O   UNL     1     -12.575  12.596  64.622  0.00  0.00    -0.245 OA
ATOM     20  O   UNL     1     -11.704  13.488  66.618  0.00  0.00    -0.449 OA
ATOM     21  C   UNL     1     -11.878  13.144  68.106  0.00  0.00    +0.174 C 
ATOM     22  C   UNL     1     -10.354  13.507  68.664  0.00  0.00    +0.048 C 
ATOM     23  C   UNL     1     -11.766  11.494  68.107  0.00  0.00    +0.070 C 
ATOM     24  C   UNL     1     -12.476  11.055  69.319  0.00  0.00    -0.022 C 
ATOM     25  C   UNL     1     -11.992  11.262  70.516  0.00  0.00    -0.004 C 
ATOM     26  C   UNL     1     -11.696  10.150  71.403  0.00  0.00    -0.000 C 
ATOM     27  C   UNL     1     -12.483   9.075  71.301  0.00  0.00    -0.000 C 
ATOM     28  C   UNL     1     -11.729   7.853  71.400  0.00  0.00    -0.000 C 
ATOM     29  C   UNL     1     -10.644   7.741  70.631  0.00  0.00    -0.000 C 
ATOM     30  C   UNL     1     -10.962   6.839  69.545  0.00  0.00    -0.002 C 
ATOM     31  O   UNL     1      -7.581  11.633  66.480  0.00  0.00    -0.349 OA
ATOM     32  C   UNL     1      -6.893   4.630  68.668  0.00  0.00    +0.161 C 
ATOM     33  C   UNL     1     -10.883   5.597  69.773  0.00  0.00    +0.003 C 
ENDROOT
BRANCH  32  34
ATOM     34  C   UNL     1      -6.061   3.674  69.612  0.00  0.00    +0.369 C 
ATOM     35  O   UNL     1      -6.544   2.355  69.579  0.00  0.00    -0.245 OA
ATOM     36  O   UNL     1      -4.828   3.745  69.606  0.00  0.00    -0.245 OA
ENDBRANCH  32  34
BRANCH   1  37
ATOM     37  O   UNL     1      -9.302   5.586  71.400  0.00  0.00    -0.327 OA
BRANCH  37  46
ATOM     38  C   UNL     1     -10.692   1.398  72.641  0.00  0.00    +0.035 C 
ATOM     39  C   UNL     1      -9.545   2.549  72.889  0.00  0.00    +0.150 C 
ATOM     40  C   UNL     1     -10.250   2.923  74.414  0.00  0.00    +0.199 C 
ATOM     41  O   UNL     1      -9.222   2.063  75.107  0.00  0.00    -0.219 OA
ATOM     42  C   UNL     1      -9.301   4.292  74.751  0.00  0.00    +0.160 C 
ATOM     43  N   UNL     1     -10.240   4.690  75.922  0.00  0.00    -0.127 NA
ATOM     44  C   UNL     1     -10.083   5.366  73.683  0.00  0.00    +0.228 C 
ATOM     45  O   UNL     1     -11.391   4.653  73.569  0.00  0.00    -0.216 OA
ATOM     46  C   UNL     1      -9.166   4.521  72.467  0.00  0.00    +0.268 C 
ATOM     47  O   UNL     1     -10.305   3.581  72.058  0.00  0.00    -0.328 OA
ENDBRANCH  37  46
ENDBRANCH   1  37
TORSDOF 3
ENDMDL
