MODEL 1
REMARK VINA RESULT:      -6.3      0.000      0.000
REMARK  Name = 
REMARK  4 active torsions:
REMARK  status: ('A' for Active; 'I' for Inactive)
REMARK    1  A    between atoms: C_2  and  C_3
REMARK    2  A    between atoms: C_2  and  N_12
REMARK    3  A    between atoms: C_2  and  C_14
REMARK    4  A    between atoms: C_3  and  C_4
REMARK                            x       y       z     vdW  Elec       q    Type
REMARK                         _______ _______ _______ _____ _____    ______ ____
ROOT
ATOM      1  C   UNL     1     -12.666  13.733  65.788  0.00  0.00    +0.055 C 
ENDROOT
BRANCH   1   2
ATOM      2  C   UNL     1     -11.925  13.866  67.052  0.00  0.00    -0.017 A 
ATOM      3  C   UNL     1     -11.846  15.033  67.788  0.00  0.00    +0.041 A 
ATOM      4  C   UNL     1     -11.791  15.027  69.177  0.00  0.00    +0.234 A 
ATOM      5  O   UNL     1     -11.780  16.203  69.898  0.00  0.00    -0.283 OA
ATOM      6  C   UNL     1     -11.954  13.836  69.873  0.00  0.00    +0.234 A 
ATOM      7  O   UNL     1     -12.705  13.795  71.052  0.00  0.00    -0.283 OA
ATOM      8  C   UNL     1     -11.663  12.683  69.154  0.00  0.00    +0.045 A 
ATOM      9  C   UNL     1     -11.643  12.704  67.764  0.00  0.00    -0.001 A 
ENDBRANCH   1   2
BRANCH   1  11
ATOM     10  C   UNL     1     -10.403  14.225  64.816  0.00  0.00    +0.031 C 
ATOM     11  C   UNL     1     -11.881  14.088  64.565  0.00  0.00    +0.175 C 
BRANCH  11  12
ATOM     12  C   UNL     1     -12.035  12.943  63.611  0.00  0.00    +0.380 C 
ATOM     13  O   UNL     1     -13.174  12.144  63.748  0.00  0.00    -0.244 OA
ATOM     14  O   UNL     1     -10.967  12.303  63.369  0.00  0.00    -0.244 OA
ENDBRANCH  11  12
BRANCH  11  15
ATOM     15  N   UNL     1     -12.463  15.268  63.969  0.00  0.00    -0.104 NA
ATOM     16  N   UNL     1     -11.616  16.379  64.020  0.00  0.00    -0.020 NA
ENDBRANCH  11  15
ENDBRANCH   1  11
TORSDOF 4
ENDMDL
MODEL 2
REMARK VINA RESULT:      -5.6      3.556      5.265
REMARK  Name = 
REMARK  4 active torsions:
REMARK  status: ('A' for Active; 'I' for Inactive)
REMARK    1  A    between atoms: C_2  and  C_3
REMARK    2  A    between atoms: C_2  and  N_12
REMARK    3  A    between atoms: C_2  and  C_14
REMARK    4  A    between atoms: C_3  and  C_4
REMARK                            x       y       z     vdW  Elec       q    Type
REMARK                         _______ _______ _______ _____ _____    ______ ____
ROOT
ATOM      1  C   UNL     1      -9.177  16.395  66.295  0.00  0.00    +0.055 C 
ENDROOT
BRANCH   1   2
ATOM      2  C   UNL     1     -10.540  15.858  66.153  0.00  0.00    -0.017 A 
ATOM      3  C   UNL     1     -11.125  15.532  64.944  0.00  0.00    +0.041 A 
ATOM      4  C   UNL     1     -12.011  14.468  64.816  0.00  0.00    +0.234 A 
ATOM      5  O   UNL     1     -12.534  14.117  63.590  0.00  0.00    -0.283 OA
ATOM      6  C   UNL     1     -12.226  13.611  65.888  0.00  0.00    +0.234 A 
ATOM      7  O   UNL     1     -12.343  12.232  65.687  0.00  0.00    -0.283 OA
ATOM      8  C   UNL     1     -11.945  14.144  67.141  0.00  0.00    +0.045 A 
ATOM      9  C   UNL     1     -11.118  15.256  67.265  0.00  0.00    -0.001 A 
ENDBRANCH   1   2
BRANCH   1  11
ATOM     10  C   UNL     1      -8.904  17.853  68.321  0.00  0.00    +0.031 C 
ATOM     11  C   UNL     1      -9.110  17.789  66.832  0.00  0.00    +0.175 C 
BRANCH  11  12
ATOM     12  C   UNL     1      -7.899  18.425  66.219  0.00  0.00    +0.380 C 
ATOM     13  O   UNL     1      -8.059  19.693  65.651  0.00  0.00    -0.244 OA
ATOM     14  O   UNL     1      -7.163  17.637  65.551  0.00  0.00    -0.244 OA
ENDBRANCH  11  12
BRANCH  11  15
ATOM     15  N   UNL     1     -10.283  18.511  66.394  0.00  0.00    -0.104 NA
ATOM     16  N   UNL     1     -10.930  19.181  67.435  0.00  0.00    -0.020 NA
ENDBRANCH  11  15
ENDBRANCH   1  11
TORSDOF 4
ENDMDL
MODEL 3
REMARK VINA RESULT:      -5.6      3.705      6.597
REMARK  Name = 
REMARK  4 active torsions:
REMARK  status: ('A' for Active; 'I' for Inactive)
REMARK    1  A    between atoms: C_2  and  C_3
REMARK    2  A    between atoms: C_2  and  N_12
REMARK    3  A    between atoms: C_2  and  C_14
REMARK    4  A    between atoms: C_3  and  C_4
REMARK                            x       y       z     vdW  Elec       q    Type
REMARK                         _______ _______ _______ _____ _____    ______ ____
ROOT
ATOM      1  C   UNL     1     -11.735  14.802  71.276  0.00  0.00    +0.055 C 
ENDROOT
BRANCH   1   2
ATOM      2  C   UNL     1     -11.890  14.901  69.816  0.00  0.00    -0.017 A 
ATOM      3  C   UNL     1     -11.461  15.976  69.060  0.00  0.00    +0.041 A 
ATOM      4  C   UNL     1     -10.973  15.821  67.767  0.00  0.00    +0.234 A 
ATOM      5  O   UNL     1     -10.487  16.895  67.053  0.00  0.00    -0.283 OA
ATOM      6  C   UNL     1     -10.775  14.547  67.248  0.00  0.00    +0.234 A 
ATOM      7  O   UNL     1      -9.648  14.259  66.473  0.00  0.00    -0.283 OA
ATOM      8  C   UNL     1     -11.530  13.541  67.840  0.00  0.00    +0.045 A 
ATOM      9  C   UNL     1     -12.082  13.722  69.103  0.00  0.00    -0.001 A 
ENDBRANCH   1   2
BRANCH   1  11
ATOM     10  C   UNL     1     -13.578  13.534  72.417  0.00  0.00    +0.031 C 
ATOM     11  C   UNL     1     -13.016  14.879  72.045  0.00  0.00    +0.175 C 
BRANCH  11  12
ATOM     12  C   UNL     1     -12.697  15.567  73.337  0.00  0.00    +0.380 C 
ATOM     13  O   UNL     1     -11.946  16.745  73.268  0.00  0.00    -0.244 OA
ATOM     14  O   UNL     1     -12.378  14.792  74.290  0.00  0.00    -0.244 OA
ENDBRANCH  11  12
BRANCH  11  15
ATOM     15  N   UNL     1     -13.951  15.696  71.305  0.00  0.00    -0.104 NA
ATOM     16  N   UNL     1     -15.271  15.253  71.422  0.00  0.00    -0.020 NA
ENDBRANCH  11  15
ENDBRANCH   1  11
TORSDOF 4
ENDMDL
MODEL 4
REMARK VINA RESULT:      -5.5      3.086      5.376
REMARK  Name = 
REMARK  4 active torsions:
REMARK  status: ('A' for Active; 'I' for Inactive)
REMARK    1  A    between atoms: C_2  and  C_3
REMARK    2  A    between atoms: C_2  and  N_12
REMARK    3  A    between atoms: C_2  and  C_14
REMARK    4  A    between atoms: C_3  and  C_4
REMARK                            x       y       z     vdW  Elec       q    Type
REMARK                         _______ _______ _______ _____ _____    ______ ____
ROOT
ATOM      1  C   UNL     1      -9.130  16.266  66.314  0.00  0.00    +0.055 C 
ENDROOT
BRANCH   1   2
ATOM      2  C   UNL     1     -10.509  15.774  66.164  0.00  0.00    -0.017 A 
ATOM      3  C   UNL     1     -11.103  15.489  64.949  0.00  0.00    +0.041 A 
ATOM      4  C   UNL     1     -12.021  14.454  64.801  0.00  0.00    +0.234 A 
ATOM      5  O   UNL     1     -12.554  14.142  63.569  0.00  0.00    -0.283 OA
ATOM      6  C   UNL     1     -12.262  13.584  65.858  0.00  0.00    +0.234 A 
ATOM      7  O   UNL     1     -12.420  12.214  65.631  0.00  0.00    -0.283 OA
ATOM      8  C   UNL     1     -11.965  14.085  67.120  0.00  0.00    +0.045 A 
ATOM      9  C   UNL     1     -11.105  15.169  67.265  0.00  0.00    -0.001 A 
ENDBRANCH   1   2
BRANCH   1  11
ATOM     10  C   UNL     1     -10.284  18.494  66.197  0.00  0.00    +0.031 C 
ATOM     11  C   UNL     1      -9.014  17.746  66.502  0.00  0.00    +0.175 C 
BRANCH  11  12
ATOM     12  C   UNL     1      -8.740  17.972  67.958  0.00  0.00    +0.380 C 
ATOM     13  O   UNL     1      -7.972  17.010  68.622  0.00  0.00    -0.244 OA
ATOM     14  O   UNL     1      -9.725  18.414  68.624  0.00  0.00    -0.244 OA
ENDBRANCH  11  12
BRANCH  11  15
ATOM     15  N   UNL     1      -7.883  18.221  65.739  0.00  0.00    -0.104 NA
ATOM     16  N   UNL     1      -7.782  19.615  65.726  0.00  0.00    -0.020 NA
ENDBRANCH  11  15
ENDBRANCH   1  11
TORSDOF 4
ENDMDL
MODEL 5
REMARK VINA RESULT:      -5.4      7.971     10.109
REMARK  Name = 
REMARK  4 active torsions:
REMARK  status: ('A' for Active; 'I' for Inactive)
REMARK    1  A    between atoms: C_2  and  C_3
REMARK    2  A    between atoms: C_2  and  N_12
REMARK    3  A    between atoms: C_2  and  C_14
REMARK    4  A    between atoms: C_3  and  C_4
REMARK                            x       y       z     vdW  Elec       q    Type
REMARK                         _______ _______ _______ _____ _____    ______ ____
ROOT
ATOM      1  C   UNL     1      -6.123  20.168  70.443  0.00  0.00    +0.055 C 
ENDROOT
BRANCH   1   2
ATOM      2  C   UNL     1      -6.401  19.716  69.071  0.00  0.00    -0.017 A 
ATOM      3  C   UNL     1      -7.106  18.569  68.758  0.00  0.00    +0.041 A 
ATOM      4  C   UNL     1      -7.931  18.492  67.642  0.00  0.00    +0.234 A 
ATOM      5  O   UNL     1      -8.678  17.363  67.382  0.00  0.00    -0.283 OA
ATOM      6  C   UNL     1      -8.176  19.628  66.880  0.00  0.00    +0.234 A 
ATOM      7  O   UNL     1      -9.454  19.888  66.377  0.00  0.00    -0.283 OA
ATOM      8  C   UNL     1      -7.212  20.625  66.973  0.00  0.00    +0.045 A 
ATOM      9  C   UNL     1      -6.336  20.660  68.052  0.00  0.00    -0.001 A 
ENDBRANCH   1   2
BRANCH   1  11
ATOM     10  C   UNL     1      -3.816  19.262  70.040  0.00  0.00    +0.031 C 
ATOM     11  C   UNL     1      -4.881  19.595  71.049  0.00  0.00    +0.175 C 
BRANCH  11  12
ATOM     12  C   UNL     1      -4.302  20.661  71.927  0.00  0.00    +0.380 C 
ATOM     13  O   UNL     1      -4.296  21.968  71.428  0.00  0.00    -0.244 OA
ATOM     14  O   UNL     1      -3.246  20.328  72.547  0.00  0.00    -0.244 OA
ENDBRANCH  11  12
BRANCH  11  15
ATOM     15  N   UNL     1      -5.248  18.466  71.874  0.00  0.00    -0.104 NA
ATOM     16  N   UNL     1      -4.891  17.239  71.307  0.00  0.00    -0.020 NA
ENDBRANCH  11  15
ENDBRANCH   1  11
TORSDOF 4
ENDMDL
MODEL 6
REMARK VINA RESULT:      -5.4      3.001      5.295
REMARK  Name = 
REMARK  4 active torsions:
REMARK  status: ('A' for Active; 'I' for Inactive)
REMARK    1  A    between atoms: C_2  and  C_3
REMARK    2  A    between atoms: C_2  and  N_12
REMARK    3  A    between atoms: C_2  and  C_14
REMARK    4  A    between atoms: C_3  and  C_4
REMARK                            x       y       z     vdW  Elec       q    Type
REMARK                         _______ _______ _______ _____ _____    ______ ____
ROOT
ATOM      1  C   UNL     1     -10.075  13.862  65.170  0.00  0.00    +0.055 C 
ENDROOT
BRANCH   1   2
ATOM      2  C   UNL     1     -10.408  12.470  64.827  0.00  0.00    -0.017 A 
ATOM      3  C   UNL     1     -10.194  11.904  63.583  0.00  0.00    +0.041 A 
ATOM      4  C   UNL     1      -9.844  10.568  63.432  0.00  0.00    +0.234 A 
ATOM      5  O   UNL     1      -9.570  10.037  62.189  0.00  0.00    -0.283 OA
ATOM      6  C   UNL     1      -9.563   9.793  64.551  0.00  0.00    +0.234 A 
ATOM      7  O   UNL     1      -8.506   8.877  64.537  0.00  0.00    -0.283 OA
ATOM      8  C   UNL     1     -10.124  10.241  65.740  0.00  0.00    +0.045 A 
ATOM      9  C   UNL     1     -10.545  11.560  65.869  0.00  0.00    -0.001 A 
ENDBRANCH   1   2
BRANCH   1  11
ATOM     10  C   UNL     1     -11.612  14.652  66.992  0.00  0.00    +0.031 C 
ATOM     11  C   UNL     1     -11.251  14.712  65.533  0.00  0.00    +0.175 C 
BRANCH  11  12
ATOM     12  C   UNL     1     -10.853  16.131  65.263  0.00  0.00    +0.380 C 
ATOM     13  O   UNL     1     -11.386  16.741  64.123  0.00  0.00    -0.244 OA
ATOM     14  O   UNL     1      -9.630  16.392  65.478  0.00  0.00    -0.244 OA
ENDBRANCH  11  12
BRANCH  11  15
ATOM     15  N   UNL     1     -12.355  14.369  64.665  0.00  0.00    -0.104 NA
ATOM     16  N   UNL     1     -13.489  13.950  65.366  0.00  0.00    -0.020 NA
ENDBRANCH  11  15
ENDBRANCH   1  11
TORSDOF 4
ENDMDL
MODEL 7
REMARK VINA RESULT:      -5.4      3.260      3.941
REMARK  Name = 
REMARK  4 active torsions:
REMARK  status: ('A' for Active; 'I' for Inactive)
REMARK    1  A    between atoms: C_2  and  C_3
REMARK    2  A    between atoms: C_2  and  N_12
REMARK    3  A    between atoms: C_2  and  C_14
REMARK    4  A    between atoms: C_3  and  C_4
REMARK                            x       y       z     vdW  Elec       q    Type
REMARK                         _______ _______ _______ _____ _____    ______ ____
ROOT
ATOM      1  C   UNL     1     -11.695  15.982  68.365  0.00  0.00    +0.055 C 
ENDROOT
BRANCH   1   2
ATOM      2  C   UNL     1     -11.580  15.372  69.699  0.00  0.00    -0.017 A 
ATOM      3  C   UNL     1     -11.706  16.070  70.887  0.00  0.00    +0.041 A 
ATOM      4  C   UNL     1     -12.273  15.500  72.021  0.00  0.00    +0.234 A 
ATOM      5  O   UNL     1     -12.451  16.231  73.176  0.00  0.00    -0.283 OA
ATOM      6  C   UNL     1     -12.858  14.242  71.946  0.00  0.00    +0.234 A 
ATOM      7  O   UNL     1     -14.053  13.970  72.620  0.00  0.00    -0.283 OA
ATOM      8  C   UNL     1     -12.409  13.438  70.905  0.00  0.00    +0.045 A 
ATOM      9  C   UNL     1     -11.774  13.999  69.803  0.00  0.00    -0.001 A 
ENDBRANCH   1   2
BRANCH   1  11
ATOM     10  C   UNL     1      -9.213  16.279  68.610  0.00  0.00    +0.031 C 
ATOM     11  C   UNL     1     -10.471  16.709  67.906  0.00  0.00    +0.175 C 
BRANCH  11  12
ATOM     12  C   UNL     1     -10.280  16.354  66.463  0.00  0.00    +0.380 C 
ATOM     13  O   UNL     1     -10.462  17.373  65.522  0.00  0.00    -0.244 OA
ATOM     14  O   UNL     1     -10.757  15.229  66.122  0.00  0.00    -0.244 OA
ENDBRANCH  11  12
BRANCH  11  15
ATOM     15  N   UNL     1     -10.713  18.131  68.004  0.00  0.00    -0.104 NA
ATOM     16  N   UNL     1      -9.753  18.795  68.772  0.00  0.00    -0.020 NA
ENDBRANCH  11  15
ENDBRANCH   1  11
TORSDOF 4
ENDMDL
MODEL 8
REMARK VINA RESULT:      -5.3      3.041      5.074
REMARK  Name = 
REMARK  4 active torsions:
REMARK  status: ('A' for Active; 'I' for Inactive)
REMARK    1  A    between atoms: C_2  and  C_3
REMARK    2  A    between atoms: C_2  and  N_12
REMARK    3  A    between atoms: C_2  and  C_14
REMARK    4  A    between atoms: C_3  and  C_4
REMARK                            x       y       z     vdW  Elec       q    Type
REMARK                         _______ _______ _______ _____ _____    ______ ____
ROOT
ATOM      1  C   UNL     1     -10.160  16.049  66.234  0.00  0.00    +0.055 C 
ENDROOT
BRANCH   1   2
ATOM      2  C   UNL     1     -10.786  14.736  66.458  0.00  0.00    -0.017 A 
ATOM      3  C   UNL     1     -11.917  14.292  65.799  0.00  0.00    +0.041 A 
ATOM      4  C   UNL     1     -12.101  12.955  65.467  0.00  0.00    +0.234 A 
ATOM      5  O   UNL     1     -13.204  12.540  64.752  0.00  0.00    -0.283 OA
ATOM      6  C   UNL     1     -11.073  12.042  65.672  0.00  0.00    +0.234 A 
ATOM      7  O   UNL     1     -10.805  11.046  64.727  0.00  0.00    -0.283 OA
ATOM      8  C   UNL     1     -10.138  12.405  66.634  0.00  0.00    +0.045 A 
ATOM      9  C   UNL     1     -10.005  13.733  67.022  0.00  0.00    -0.001 A 
ENDBRANCH   1   2
BRANCH   1  11
ATOM     10  C   UNL     1      -8.988  16.981  68.250  0.00  0.00    +0.031 C 
ATOM     11  C   UNL     1     -10.231  16.980  67.402  0.00  0.00    +0.175 C 
BRANCH  11  12
ATOM     12  C   UNL     1     -10.350  18.364  66.839  0.00  0.00    +0.380 C 
ATOM     13  O   UNL     1     -11.070  19.301  67.588  0.00  0.00    -0.244 OA
ATOM     14  O   UNL     1     -10.557  18.415  65.589  0.00  0.00    -0.244 OA
ENDBRANCH  11  12
BRANCH  11  15
ATOM     15  N   UNL     1     -11.427  16.684  68.158  0.00  0.00    -0.104 NA
ATOM     16  N   UNL     1     -11.187  16.551  69.528  0.00  0.00    -0.020 NA
ENDBRANCH  11  15
ENDBRANCH   1  11
TORSDOF 4
ENDMDL
MODEL 9
REMARK VINA RESULT:      -5.2      3.875      6.702
REMARK  Name = 
REMARK  4 active torsions:
REMARK  status: ('A' for Active; 'I' for Inactive)
REMARK    1  A    between atoms: C_2  and  C_3
REMARK    2  A    between atoms: C_2  and  N_12
REMARK    3  A    between atoms: C_2  and  C_14
REMARK    4  A    between atoms: C_3  and  C_4
REMARK                            x       y       z     vdW  Elec       q    Type
REMARK                         _______ _______ _______ _____ _____    ______ ____
ROOT
ATOM      1  C   UNL     1     -13.181  14.758  70.590  0.00  0.00    +0.055 C 
ENDROOT
BRANCH   1   2
ATOM      2  C   UNL     1     -12.235  14.123  69.658  0.00  0.00    -0.017 A 
ATOM      3  C   UNL     1     -12.094  12.757  69.505  0.00  0.00    +0.041 A 
ATOM      4  C   UNL     1     -11.793  12.179  68.277  0.00  0.00    +0.234 A 
ATOM      5  O   UNL     1     -11.722  10.810  68.129  0.00  0.00    -0.283 OA
ATOM      6  C   UNL     1     -11.760  12.964  67.131  0.00  0.00    +0.234 A 
ATOM      7  O   UNL     1     -12.286  12.488  65.925  0.00  0.00    -0.283 OA
ATOM      8  C   UNL     1     -11.536  14.318  67.344  0.00  0.00    +0.045 A 
ATOM      9  C   UNL     1     -11.765  14.884  68.593  0.00  0.00    -0.001 A 
ENDBRANCH   1   2
BRANCH   1  11
ATOM     10  C   UNL     1     -11.422  15.335  72.288  0.00  0.00    +0.031 C 
ATOM     11  C   UNL     1     -12.767  14.711  72.027  0.00  0.00    +0.175 C 
BRANCH  11  12
ATOM     12  C   UNL     1     -13.761  15.535  72.786  0.00  0.00    +0.380 C 
ATOM     13  O   UNL     1     -14.832  16.072  72.064  0.00  0.00    -0.244 OA
ATOM     14  O   UNL     1     -13.258  16.320  73.646  0.00  0.00    -0.244 OA
ENDBRANCH  11  12
BRANCH  11  15
ATOM     15  N   UNL     1     -12.852  13.344  72.488  0.00  0.00    -0.104 NA
ATOM     16  N   UNL     1     -14.159  12.849  72.485  0.00  0.00    -0.020 NA
ENDBRANCH  11  15
ENDBRANCH   1  11
TORSDOF 4
ENDMDL
