MODEL 1
REMARK VINA RESULT:      -7.3      0.000      0.000
REMARK  Name = 
REMARK  17 active torsions:
REMARK  status: ('A' for Active; 'I' for Inactive)
REMARK    1  A    between atoms: C_2  and  C_18
REMARK    2  A    between atoms: C_3  and  C_4
REMARK    3  A    between atoms: C_4  and  O_6
REMARK    4  A    between atoms: O_6  and  C_7
REMARK    5  A    between atoms: C_7  and  C_8
REMARK    6  A    between atoms: C_8  and  C_9
REMARK    7  A    between atoms: C_9  and  C_10
REMARK    8  A    between atoms: C_10  and  C_11
REMARK    9  A    between atoms: C_11  and  C_12
REMARK   10  A    between atoms: C_12  and  C_13
REMARK   11  A    between atoms: C_13  and  C_14
REMARK   12  A    between atoms: C_14  and  C_15
REMARK   13  A    between atoms: C_18  and  C_19
REMARK   14  A    between atoms: C_22  and  C_23
REMARK   15  A    between atoms: C_23  and  C_24
REMARK   16  A    between atoms: C_26  and  C_27
REMARK   17  A    between atoms: C_27  and  C_29
REMARK                            x       y       z     vdW  Elec       q    Type
REMARK                         _______ _______ _______ _____ _____    ______ ____
ROOT
ATOM      1  C   UNL     1      -9.345  16.067  66.673  0.00  0.00    +0.054 C 
ENDROOT
BRANCH   1   2
ATOM      2  C   UNL     1      -9.552  17.646  66.261  0.00  0.00    +0.152 C 
ATOM      3  C   UNL     1      -9.456  18.140  67.911  0.00  0.00    +0.209 C 
ATOM      4  O   UNL     1     -10.943  18.066  68.105  0.00  0.00    -0.218 OA
ATOM      5  C   UNL     1      -9.577  19.821  67.593  0.00  0.00    +0.187 C 
ATOM      6  O   UNL     1     -10.575  19.711  66.464  0.00  0.00    -0.220 OA
ATOM      7  C   UNL     1      -8.252  19.891  66.517  0.00  0.00    +0.065 C 
ATOM      8  C   UNL     1      -7.523  18.518  67.000  0.00  0.00    +0.145 C 
ATOM      9  O   UNL     1      -8.058  17.751  65.999  0.00  0.00    -0.353 OA
BRANCH   7  10
ATOM     10  C   UNL     1      -7.350  20.791  67.522  0.00  0.00    +0.037 C 
BRANCH  10  11
ATOM     11  C   UNL     1      -6.258  19.664  68.101  0.00  0.00    +0.142 C 
ATOM     12  C   UNL     1      -5.382  20.813  69.006  0.00  0.00    +0.145 C 
ATOM     13  O   UNL     1      -6.629  19.949  69.704  0.00  0.00    -0.354 OA
BRANCH  12  14
ATOM     14  C   UNL     1      -4.200  19.684  69.525  0.00  0.00    +0.060 C 
ATOM     15  C   UNL     1      -3.153  20.116  68.393  0.00  0.00    +0.005 C 
BRANCH  14  16
ATOM     16  C   UNL     1      -3.612  20.674  70.794  0.00  0.00    +0.154 C 
ATOM     17  O   UNL     1      -4.218  19.808  71.889  0.00  0.00    -0.223 OA
ATOM     18  C   UNL     1      -2.144  19.918  70.911  0.00  0.00    +0.036 C 
ENDBRANCH  14  16
ENDBRANCH  12  14
ENDBRANCH  10  11
ENDBRANCH   7  10
ENDBRANCH   1   2
BRANCH   1  20
ATOM     19  C   UNL     1     -10.653  15.354  66.055  0.00  0.00    +0.027 C 
ATOM     20  C   UNL     1     -10.351  15.287  66.077  0.00  0.00    -0.035 C 
ATOM     21  C   UNL     1     -10.518  14.579  65.060  0.00  0.00    +0.073 C 
BRANCH  21  22
ATOM     22  C   UNL     1     -11.813  13.966  64.764  0.00  0.00    +0.341 C 
ATOM     23  O   UNL     1     -12.501  14.398  63.786  0.00  0.00    -0.245 OA
BRANCH  22  24
ATOM     24  O   UNL     1     -12.166  12.788  65.393  0.00  0.00    -0.445 OA
BRANCH  24  25
ATOM     25  C   UNL     1     -11.192  11.763  65.381  0.00  0.00    +0.209 C 
BRANCH  25  26
ATOM     26  C   UNL     1     -10.590  11.567  66.760  0.00  0.00    +0.047 C 
BRANCH  26  27
ATOM     27  C   UNL     1     -11.711  11.887  67.733  0.00  0.00    +0.004 C 
BRANCH  27  28
ATOM     28  C   UNL     1     -11.163  12.771  68.841  0.00  0.00    +0.000 C 
BRANCH  28  29
ATOM     29  C   UNL     1     -12.098  13.902  69.126  0.00  0.00    +0.000 C 
BRANCH  29  30
ATOM     30  C   UNL     1     -11.363  14.976  69.919  0.00  0.00    +0.001 C 
BRANCH  30  31
ATOM     31  C   UNL     1     -12.279  15.737  70.826  0.00  0.00    +0.012 C 
BRANCH  31  32
ATOM     32  C   UNL     1     -11.848  15.383  72.242  0.00  0.00    +0.114 C 
BRANCH  32  33
ATOM     33  C   UNL     1     -13.006  15.674  73.144  0.00  0.00    +0.365 C 
ATOM     34  O   UNL     1     -12.754  16.390  74.319  0.00  0.00    -0.246 OA
ATOM     35  O   UNL     1     -14.091  15.985  72.565  0.00  0.00    -0.246 OA
ENDBRANCH  32  33
ENDBRANCH  31  32
ENDBRANCH  30  31
ENDBRANCH  29  30
ENDBRANCH  28  29
ENDBRANCH  27  28
ENDBRANCH  26  27
ENDBRANCH  25  26
ENDBRANCH  24  25
ENDBRANCH  22  24
ENDBRANCH  21  22
ENDBRANCH   1  20
TORSDOF 17
ENDMDL
MODEL 2
REMARK VINA RESULT:      -7.2      2.648      4.899
REMARK  Name = 
REMARK  17 active torsions:
REMARK  status: ('A' for Active; 'I' for Inactive)
REMARK    1  A    between atoms: C_2  and  C_18
REMARK    2  A    between atoms: C_3  and  C_4
REMARK    3  A    between atoms: C_4  and  O_6
REMARK    4  A    between atoms: O_6  and  C_7
REMARK    5  A    between atoms: C_7  and  C_8
REMARK    6  A    between atoms: C_8  and  C_9
REMARK    7  A    between atoms: C_9  and  C_10
REMARK    8  A    between atoms: C_10  and  C_11
REMARK    9  A    between atoms: C_11  and  C_12
REMARK   10  A    between atoms: C_12  and  C_13
REMARK   11  A    between atoms: C_13  and  C_14
REMARK   12  A    between atoms: C_14  and  C_15
REMARK   13  A    between atoms: C_18  and  C_19
REMARK   14  A    between atoms: C_22  and  C_23
REMARK   15  A    between atoms: C_23  and  C_24
REMARK   16  A    between atoms: C_26  and  C_27
REMARK   17  A    between atoms: C_27  and  C_29
REMARK                            x       y       z     vdW  Elec       q    Type
REMARK                         _______ _______ _______ _____ _____    ______ ____
ROOT
ATOM      1  C   UNL     1     -11.689  12.283  67.697  0.00  0.00    +0.054 C 
ENDROOT
BRANCH   1   2
ATOM      2  C   UNL     1     -10.899  12.969  66.428  0.00  0.00    +0.152 C 
ATOM      3  C   UNL     1     -12.240  13.999  66.086  0.00  0.00    +0.209 C 
ATOM      4  O   UNL     1     -12.837  13.031  65.104  0.00  0.00    -0.218 OA
ATOM      5  C   UNL     1     -11.483  14.843  64.799  0.00  0.00    +0.187 C 
ATOM      6  O   UNL     1     -10.747  13.656  64.223  0.00  0.00    -0.220 OA
ATOM      7  C   UNL     1     -10.122  15.349  65.699  0.00  0.00    +0.065 C 
ATOM      8  C   UNL     1     -10.776  15.169  67.180  0.00  0.00    +0.145 C 
ATOM      9  O   UNL     1     -10.228  13.932  67.393  0.00  0.00    -0.353 OA
BRANCH   7  10
ATOM     10  C   UNL     1     -10.535  16.916  65.643  0.00  0.00    +0.037 C 
BRANCH  10  11
ATOM     11  C   UNL     1     -10.055  17.449  67.154  0.00  0.00    +0.142 C 
ATOM     12  C   UNL     1      -8.731  18.334  66.544  0.00  0.00    +0.145 C 
ATOM     13  O   UNL     1     -10.215  19.066  66.768  0.00  0.00    -0.354 OA
BRANCH  12  14
ATOM     14  C   UNL     1      -8.173  18.804  68.096  0.00  0.00    +0.060 C 
ATOM     15  C   UNL     1      -7.401  17.423  68.341  0.00  0.00    +0.005 C 
BRANCH  14  16
ATOM     16  C   UNL     1      -6.854  19.719  67.497  0.00  0.00    +0.154 C 
ATOM     17  O   UNL     1      -7.667  21.000  67.371  0.00  0.00    -0.223 OA
ATOM     18  C   UNL     1      -6.276  20.149  68.987  0.00  0.00    +0.036 C 
ENDBRANCH  14  16
ENDBRANCH  12  14
ENDBRANCH  10  11
ENDBRANCH   7  10
ENDBRANCH   1   2
BRANCH   1  20
ATOM     19  C   UNL     1     -11.434  10.701  67.884  0.00  0.00    +0.027 C 
ATOM     20  C   UNL     1     -11.258  10.955  67.860  0.00  0.00    -0.035 C 
ATOM     21  C   UNL     1     -10.366  10.193  67.426  0.00  0.00    +0.073 C 
BRANCH  21  22
ATOM     22  C   UNL     1     -10.309   8.785  67.824  0.00  0.00    +0.341 C 
ATOM     23  O   UNL     1     -10.814   7.899  67.067  0.00  0.00    -0.245 OA
BRANCH  22  24
ATOM     24  O   UNL     1      -9.511   8.415  68.890  0.00  0.00    -0.445 OA
BRANCH  24  25
ATOM     25  C   UNL     1     -10.190   7.978  70.050  0.00  0.00    +0.209 C 
BRANCH  25  26
ATOM     26  C   UNL     1     -10.272   9.088  71.084  0.00  0.00    +0.047 C 
BRANCH  26  27
ATOM     27  C   UNL     1     -11.627   8.914  71.746  0.00  0.00    +0.004 C 
BRANCH  27  28
ATOM     28  C   UNL     1     -12.640   9.793  71.031  0.00  0.00    +0.000 C 
BRANCH  28  29
ATOM     29  C   UNL     1     -13.241  10.784  71.975  0.00  0.00    +0.000 C 
BRANCH  29  30
ATOM     30  C   UNL     1     -12.896  12.194  71.513  0.00  0.00    +0.001 C 
BRANCH  30  31
ATOM     31  C   UNL     1     -13.751  13.231  72.171  0.00  0.00    +0.012 C 
BRANCH  31  32
ATOM     32  C   UNL     1     -12.804  14.352  72.576  0.00  0.00    +0.114 C 
BRANCH  32  33
ATOM     33  C   UNL     1     -13.331  15.616  71.973  0.00  0.00    +0.365 C 
ATOM     34  O   UNL     1     -12.879  15.968  70.698  0.00  0.00    -0.246 OA
ATOM     35  O   UNL     1     -14.560  15.854  72.176  0.00  0.00    -0.246 OA
ENDBRANCH  32  33
ENDBRANCH  31  32
ENDBRANCH  30  31
ENDBRANCH  29  30
ENDBRANCH  28  29
ENDBRANCH  27  28
ENDBRANCH  26  27
ENDBRANCH  25  26
ENDBRANCH  24  25
ENDBRANCH  22  24
ENDBRANCH  21  22
ENDBRANCH   1  20
TORSDOF 17
ENDMDL
MODEL 3
REMARK VINA RESULT:      -7.0      2.046      2.793
REMARK  Name = 
REMARK  17 active torsions:
REMARK  status: ('A' for Active; 'I' for Inactive)
REMARK    1  A    between atoms: C_2  and  C_18
REMARK    2  A    between atoms: C_3  and  C_4
REMARK    3  A    between atoms: C_4  and  O_6
REMARK    4  A    between atoms: O_6  and  C_7
REMARK    5  A    between atoms: C_7  and  C_8
REMARK    6  A    between atoms: C_8  and  C_9
REMARK    7  A    between atoms: C_9  and  C_10
REMARK    8  A    between atoms: C_10  and  C_11
REMARK    9  A    between atoms: C_11  and  C_12
REMARK   10  A    between atoms: C_12  and  C_13
REMARK   11  A    between atoms: C_13  and  C_14
REMARK   12  A    between atoms: C_14  and  C_15
REMARK   13  A    between atoms: C_18  and  C_19
REMARK   14  A    between atoms: C_22  and  C_23
REMARK   15  A    between atoms: C_23  and  C_24
REMARK   16  A    between atoms: C_26  and  C_27
REMARK   17  A    between atoms: C_27  and  C_29
REMARK                            x       y       z     vdW  Elec       q    Type
REMARK                         _______ _______ _______ _____ _____    ______ ____
ROOT
ATOM      1  C   UNL     1      -9.776  15.850  66.369  0.00  0.00    +0.054 C 
ENDROOT
BRANCH   1   2
ATOM      2  C   UNL     1     -10.111  17.460  66.413  0.00  0.00    +0.152 C 
ATOM      3  C   UNL     1      -9.513  17.591  68.025  0.00  0.00    +0.209 C 
ATOM      4  O   UNL     1     -10.867  17.361  68.633  0.00  0.00    -0.218 OA
ATOM      5  C   UNL     1      -9.739  19.286  68.154  0.00  0.00    +0.187 C 
ATOM      6  O   UNL     1     -11.037  19.346  67.383  0.00  0.00    -0.220 OA
ATOM      7  C   UNL     1      -8.812  19.691  66.777  0.00  0.00    +0.065 C 
ATOM      8  C   UNL     1      -7.960  18.306  66.689  0.00  0.00    +0.145 C 
ATOM      9  O   UNL     1      -8.773  17.735  65.747  0.00  0.00    -0.353 OA
BRANCH   7  10
ATOM     10  C   UNL     1      -7.651  20.419  67.644  0.00  0.00    +0.037 C 
BRANCH  10  11
ATOM     11  C   UNL     1      -6.264  19.794  66.947  0.00  0.00    +0.142 C 
ATOM     12  C   UNL     1      -5.582  21.330  66.659  0.00  0.00    +0.145 C 
ATOM     13  O   UNL     1      -5.241  20.495  68.064  0.00  0.00    -0.354 OA
BRANCH  12  14
ATOM     14  C   UNL     1      -4.204  20.703  65.854  0.00  0.00    +0.060 C 
ATOM     15  C   UNL     1      -4.847  20.896  64.401  0.00  0.00    +0.005 C 
BRANCH  14  16
ATOM     16  C   UNL     1      -3.322  22.169  65.929  0.00  0.00    +0.154 C 
ATOM     17  O   UNL     1      -2.510  21.740  67.143  0.00  0.00    -0.223 OA
ATOM     18  C   UNL     1      -2.136  21.689  64.878  0.00  0.00    +0.036 C 
ENDBRANCH  14  16
ENDBRANCH  12  14
ENDBRANCH  10  11
ENDBRANCH   7  10
ENDBRANCH   1   2
BRANCH   1  20
ATOM     19  C   UNL     1     -10.682  14.996  65.343  0.00  0.00    +0.027 C 
ATOM     20  C   UNL     1     -10.734  15.189  65.581  0.00  0.00    -0.035 C 
ATOM     21  C   UNL     1     -11.821  14.588  65.723  0.00  0.00    +0.073 C 
BRANCH  21  22
ATOM     22  C   UNL     1     -12.493  13.953  64.589  0.00  0.00    +0.341 C 
ATOM     23  O   UNL     1     -12.710  14.625  63.532  0.00  0.00    -0.245 OA
BRANCH  22  24
ATOM     24  O   UNL     1     -12.673  12.583  64.588  0.00  0.00    -0.445 OA
BRANCH  24  25
ATOM     25  C   UNL     1     -12.136  11.888  63.481  0.00  0.00    +0.209 C 
BRANCH  25  26
ATOM     26  C   UNL     1     -10.630  11.744  63.606  0.00  0.00    +0.047 C 
BRANCH  26  27
ATOM     27  C   UNL     1     -10.418  10.743  64.728  0.00  0.00    +0.004 C 
BRANCH  27  28
ATOM     28  C   UNL     1      -9.861  11.474  65.939  0.00  0.00    +0.000 C 
BRANCH  28  29
ATOM     29  C   UNL     1     -10.626  11.114  67.172  0.00  0.00    +0.000 C 
BRANCH  29  30
ATOM     30  C   UNL     1     -10.394  12.177  68.238  0.00  0.00    +0.001 C 
BRANCH  30  31
ATOM     31  C   UNL     1     -11.649  12.525  68.976  0.00  0.00    +0.012 C 
BRANCH  31  32
ATOM     32  C   UNL     1     -11.583  14.025  69.225  0.00  0.00    +0.114 C 
BRANCH  32  33
ATOM     33  C   UNL     1     -12.134  14.271  70.595  0.00  0.00    +0.365 C 
ATOM     34  O   UNL     1     -12.767  15.495  70.832  0.00  0.00    -0.246 OA
ATOM     35  O   UNL     1     -12.691  13.278  71.152  0.00  0.00    -0.246 OA
ENDBRANCH  32  33
ENDBRANCH  31  32
ENDBRANCH  30  31
ENDBRANCH  29  30
ENDBRANCH  28  29
ENDBRANCH  27  28
ENDBRANCH  26  27
ENDBRANCH  25  26
ENDBRANCH  24  25
ENDBRANCH  22  24
ENDBRANCH  21  22
ENDBRANCH   1  20
TORSDOF 17
ENDMDL
MODEL 4
REMARK VINA RESULT:      -6.8      4.401      9.188
REMARK  Name = 
REMARK  17 active torsions:
REMARK  status: ('A' for Active; 'I' for Inactive)
REMARK    1  A    between atoms: C_2  and  C_18
REMARK    2  A    between atoms: C_3  and  C_4
REMARK    3  A    between atoms: C_4  and  O_6
REMARK    4  A    between atoms: O_6  and  C_7
REMARK    5  A    between atoms: C_7  and  C_8
REMARK    6  A    between atoms: C_8  and  C_9
REMARK    7  A    between atoms: C_9  and  C_10
REMARK    8  A    between atoms: C_10  and  C_11
REMARK    9  A    between atoms: C_11  and  C_12
REMARK   10  A    between atoms: C_12  and  C_13
REMARK   11  A    between atoms: C_13  and  C_14
REMARK   12  A    between atoms: C_14  and  C_15
REMARK   13  A    between atoms: C_18  and  C_19
REMARK   14  A    between atoms: C_22  and  C_23
REMARK   15  A    between atoms: C_23  and  C_24
REMARK   16  A    between atoms: C_26  and  C_27
REMARK   17  A    between atoms: C_27  and  C_29
REMARK                            x       y       z     vdW  Elec       q    Type
REMARK                         _______ _______ _______ _____ _____    ______ ____
ROOT
ATOM      1  C   UNL     1     -11.949  13.031  67.590  0.00  0.00    +0.054 C 
ENDROOT
BRANCH   1   2
ATOM      2  C   UNL     1     -11.078  11.677  67.249  0.00  0.00    +0.152 C 
ATOM      3  C   UNL     1     -10.026  11.957  68.586  0.00  0.00    +0.209 C 
ATOM      4  O   UNL     1      -9.037  12.722  67.753  0.00  0.00    -0.218 OA
ATOM      5  C   UNL     1      -9.101  10.528  68.379  0.00  0.00    +0.187 C 
ATOM      6  O   UNL     1      -9.098  10.543  66.868  0.00  0.00    -0.220 OA
ATOM      7  C   UNL     1     -10.427   9.452  68.442  0.00  0.00    +0.065 C 
ATOM      8  C   UNL     1     -11.469  10.454  69.192  0.00  0.00    +0.145 C 
ATOM      9  O   UNL     1     -12.086  10.856  68.037  0.00  0.00    -0.353 OA
BRANCH   7  10
ATOM     10  C   UNL     1      -9.960   8.792  69.848  0.00  0.00    +0.037 C 
BRANCH  10  11
ATOM     11  C   UNL     1     -10.501   7.219  69.681  0.00  0.00    +0.142 C 
ATOM     12  C   UNL     1      -9.832   6.714  71.167  0.00  0.00    +0.145 C 
ATOM     13  O   UNL     1     -11.410   7.254  71.081  0.00  0.00    -0.354 OA
BRANCH  12  14
ATOM     14  C   UNL     1     -10.295   5.076  70.959  0.00  0.00    +0.060 C 
ATOM     15  C   UNL     1      -8.873   4.650  70.361  0.00  0.00    +0.005 C 
BRANCH  14  16
ATOM     16  C   UNL     1     -10.014   4.645  72.593  0.00  0.00    +0.154 C 
ATOM     17  O   UNL     1     -11.469   4.824  72.999  0.00  0.00    -0.223 OA
ATOM     18  C   UNL     1     -10.206   3.018  72.358  0.00  0.00    +0.036 C 
ENDBRANCH  14  16
ENDBRANCH  12  14
ENDBRANCH  10  11
ENDBRANCH   7  10
ENDBRANCH   1   2
BRANCH   1  20
ATOM     19  C   UNL     1     -12.093  14.160  66.447  0.00  0.00    +0.027 C 
ATOM     20  C   UNL     1     -11.948  13.887  66.475  0.00  0.00    -0.035 C 
ATOM     21  C   UNL     1     -11.148  14.316  65.616  0.00  0.00    +0.073 C 
BRANCH  21  22
ATOM     22  C   UNL     1     -11.561  15.300  64.615  0.00  0.00    +0.341 C 
ATOM     23  O   UNL     1     -12.597  15.082  63.912  0.00  0.00    -0.245 OA
BRANCH  22  24
ATOM     24  O   UNL     1     -10.968  16.548  64.606  0.00  0.00    -0.445 OA
BRANCH  24  25
ATOM     25  C   UNL     1     -10.094  16.826  65.682  0.00  0.00    +0.209 C 
BRANCH  25  26
ATOM     26  C   UNL     1     -10.483  18.118  66.380  0.00  0.00    +0.047 C 
BRANCH  26  27
ATOM     27  C   UNL     1     -10.342  17.826  67.863  0.00  0.00    +0.004 C 
BRANCH  27  28
ATOM     28  C   UNL     1      -9.583  16.520  68.037  0.00  0.00    +0.000 C 
BRANCH  28  29
ATOM     29  C   UNL     1     -10.047  15.798  69.261  0.00  0.00    +0.000 C 
BRANCH  29  30
ATOM     30  C   UNL     1     -11.491  16.183  69.556  0.00  0.00    +0.001 C 
BRANCH  30  31
ATOM     31  C   UNL     1     -11.922  15.757  70.926  0.00  0.00    +0.012 C 
BRANCH  31  32
ATOM     32  C   UNL     1     -12.754  14.498  70.726  0.00  0.00    +0.114 C 
BRANCH  32  33
ATOM     33  C   UNL     1     -13.939  14.602  71.633  0.00  0.00    +0.365 C 
ATOM     34  O   UNL     1     -14.059  13.661  72.660  0.00  0.00    -0.246 OA
ATOM     35  O   UNL     1     -14.283  15.778  71.960  0.00  0.00    -0.246 OA
ENDBRANCH  32  33
ENDBRANCH  31  32
ENDBRANCH  30  31
ENDBRANCH  29  30
ENDBRANCH  28  29
ENDBRANCH  27  28
ENDBRANCH  26  27
ENDBRANCH  25  26
ENDBRANCH  24  25
ENDBRANCH  22  24
ENDBRANCH  21  22
ENDBRANCH   1  20
TORSDOF 17
ENDMDL
MODEL 5
REMARK VINA RESULT:      -6.8      2.241      2.845
REMARK  Name = 
REMARK  17 active torsions:
REMARK  status: ('A' for Active; 'I' for Inactive)
REMARK    1  A    between atoms: C_2  and  C_18
REMARK    2  A    between atoms: C_3  and  C_4
REMARK    3  A    between atoms: C_4  and  O_6
REMARK    4  A    between atoms: O_6  and  C_7
REMARK    5  A    between atoms: C_7  and  C_8
REMARK    6  A    between atoms: C_8  and  C_9
REMARK    7  A    between atoms: C_9  and  C_10
REMARK    8  A    between atoms: C_10  and  C_11
REMARK    9  A    between atoms: C_11  and  C_12
REMARK   10  A    between atoms: C_12  and  C_13
REMARK   11  A    between atoms: C_13  and  C_14
REMARK   12  A    between atoms: C_14  and  C_15
REMARK   13  A    between atoms: C_18  and  C_19
REMARK   14  A    between atoms: C_22  and  C_23
REMARK   15  A    between atoms: C_23  and  C_24
REMARK   16  A    between atoms: C_26  and  C_27
REMARK   17  A    between atoms: C_27  and  C_29
REMARK                            x       y       z     vdW  Elec       q    Type
REMARK                         _______ _______ _______ _____ _____    ______ ____
ROOT
ATOM      1  C   UNL     1      -9.587  15.818  66.494  0.00  0.00    +0.054 C 
ENDROOT
BRANCH   1   2
ATOM      2  C   UNL     1      -9.987  17.413  66.438  0.00  0.00    +0.152 C 
ATOM      3  C   UNL     1      -9.521  17.639  68.083  0.00  0.00    +0.209 C 
ATOM      4  O   UNL     1     -10.908  17.378  68.597  0.00  0.00    -0.218 OA
ATOM      5  C   UNL     1      -9.823  19.327  68.116  0.00  0.00    +0.187 C 
ATOM      6  O   UNL     1     -11.058  19.298  67.246  0.00  0.00    -0.220 OA
ATOM      7  C   UNL     1      -8.809  19.710  66.795  0.00  0.00    +0.065 C 
ATOM      8  C   UNL     1      -7.898  18.361  66.836  0.00  0.00    +0.145 C 
ATOM      9  O   UNL     1      -8.613  17.716  65.863  0.00  0.00    -0.353 OA
BRANCH   7  10
ATOM     10  C   UNL     1      -7.747  20.524  67.712  0.00  0.00    +0.037 C 
BRANCH  10  11
ATOM     11  C   UNL     1      -6.499  19.419  67.850  0.00  0.00    +0.142 C 
ATOM     12  C   UNL     1      -5.490  20.497  68.705  0.00  0.00    +0.145 C 
ATOM     13  O   UNL     1      -6.499  19.444  69.520  0.00  0.00    -0.354 OA
BRANCH  12  14
ATOM     14  C   UNL     1      -4.169  19.406  68.764  0.00  0.00    +0.060 C 
ATOM     15  C   UNL     1      -3.451  20.058  67.490  0.00  0.00    +0.005 C 
BRANCH  14  16
ATOM     16  C   UNL     1      -3.332  20.269  69.986  0.00  0.00    +0.154 C 
ATOM     17  O   UNL     1      -3.869  19.398  71.113  0.00  0.00    -0.223 OA
ATOM     18  C   UNL     1      -1.938  19.385  69.871  0.00  0.00    +0.036 C 
ENDBRANCH  14  16
ENDBRANCH  12  14
ENDBRANCH  10  11
ENDBRANCH   7  10
ENDBRANCH   1   2
BRANCH   1  20
ATOM     19  C   UNL     1     -10.819  14.898  66.005  0.00  0.00    +0.027 C 
ATOM     20  C   UNL     1     -10.589  15.057  65.869  0.00  0.00    -0.035 C 
ATOM     21  C   UNL     1     -11.340  15.123  64.871  0.00  0.00    +0.073 C 
BRANCH  21  22
ATOM     22  C   UNL     1     -12.344  14.092  64.605  0.00  0.00    +0.341 C 
ATOM     23  O   UNL     1     -13.413  14.065  65.293  0.00  0.00    -0.245 OA
BRANCH  22  24
ATOM     24  O   UNL     1     -12.230  13.313  63.469  0.00  0.00    -0.445 OA
BRANCH  24  25
ATOM     25  C   UNL     1     -12.120  11.920  63.681  0.00  0.00    +0.209 C 
BRANCH  25  26
ATOM     26  C   UNL     1     -10.753  11.412  63.259  0.00  0.00    +0.047 C 
BRANCH  26  27
ATOM     27  C   UNL     1      -9.861  11.619  64.470  0.00  0.00    +0.004 C 
BRANCH  27  28
ATOM     28  C   UNL     1     -10.331  10.705  65.590  0.00  0.00    +0.000 C 
BRANCH  28  29
ATOM     29  C   UNL     1     -10.209  11.385  66.915  0.00  0.00    +0.000 C 
BRANCH  29  30
ATOM     30  C   UNL     1     -11.600  11.632  67.485  0.00  0.00    +0.001 C 
BRANCH  30  31
ATOM     31  C   UNL     1     -11.577  11.835  68.968  0.00  0.00    +0.012 C 
BRANCH  31  32
ATOM     32  C   UNL     1     -11.056  10.531  69.557  0.00  0.00    +0.114 C 
BRANCH  32  33
ATOM     33  C   UNL     1     -11.783  10.306  70.846  0.00  0.00    +0.365 C 
ATOM     34  O   UNL     1     -13.181  10.337  70.820  0.00  0.00    -0.246 OA
ATOM     35  O   UNL     1     -11.294   9.417  71.607  0.00  0.00    -0.246 OA
ENDBRANCH  32  33
ENDBRANCH  31  32
ENDBRANCH  30  31
ENDBRANCH  29  30
ENDBRANCH  28  29
ENDBRANCH  27  28
ENDBRANCH  26  27
ENDBRANCH  25  26
ENDBRANCH  24  25
ENDBRANCH  22  24
ENDBRANCH  21  22
ENDBRANCH   1  20
TORSDOF 17
ENDMDL
MODEL 6
REMARK VINA RESULT:      -6.7      3.902      8.707
REMARK  Name = 
REMARK  17 active torsions:
REMARK  status: ('A' for Active; 'I' for Inactive)
REMARK    1  A    between atoms: C_2  and  C_18
REMARK    2  A    between atoms: C_3  and  C_4
REMARK    3  A    between atoms: C_4  and  O_6
REMARK    4  A    between atoms: O_6  and  C_7
REMARK    5  A    between atoms: C_7  and  C_8
REMARK    6  A    between atoms: C_8  and  C_9
REMARK    7  A    between atoms: C_9  and  C_10
REMARK    8  A    between atoms: C_10  and  C_11
REMARK    9  A    between atoms: C_11  and  C_12
REMARK   10  A    between atoms: C_12  and  C_13
REMARK   11  A    between atoms: C_13  and  C_14
REMARK   12  A    between atoms: C_14  and  C_15
REMARK   13  A    between atoms: C_18  and  C_19
REMARK   14  A    between atoms: C_22  and  C_23
REMARK   15  A    between atoms: C_23  and  C_24
REMARK   16  A    between atoms: C_26  and  C_27
REMARK   17  A    between atoms: C_27  and  C_29
REMARK                            x       y       z     vdW  Elec       q    Type
REMARK                         _______ _______ _______ _____ _____    ______ ____
ROOT
ATOM      1  C   UNL     1      -9.018  13.733  66.597  0.00  0.00    +0.054 C 
ENDROOT
BRANCH   1   2
ATOM      2  C   UNL     1     -10.235  12.866  67.286  0.00  0.00    +0.152 C 
ATOM      3  C   UNL     1      -9.798  11.453  66.399  0.00  0.00    +0.209 C 
ATOM      4  O   UNL     1     -10.745  11.765  65.276  0.00  0.00    -0.218 OA
ATOM      5  C   UNL     1     -10.974  10.430  67.114  0.00  0.00    +0.187 C 
ATOM      6  O   UNL     1     -12.073  11.464  67.194  0.00  0.00    -0.220 OA
ATOM      7  C   UNL     1     -10.489  10.708  68.728  0.00  0.00    +0.065 C 
ATOM      8  C   UNL     1      -8.987  11.247  68.401  0.00  0.00    +0.145 C 
ATOM      9  O   UNL     1      -9.327  12.572  68.469  0.00  0.00    -0.353 OA
BRANCH   7  10
ATOM     10  C   UNL     1      -9.960   9.190  68.941  0.00  0.00    +0.037 C 
BRANCH  10  11
ATOM     11  C   UNL     1     -10.373   8.907  70.537  0.00  0.00    +0.142 C 
ATOM     12  C   UNL     1     -10.458   7.216  70.331  0.00  0.00    +0.145 C 
ATOM     13  O   UNL     1      -9.043   7.943  70.837  0.00  0.00    -0.354 OA
BRANCH  12  14
ATOM     14  C   UNL     1     -10.979   6.923  71.939  0.00  0.00    +0.060 C 
ATOM     15  C   UNL     1     -12.520   6.809  71.520  0.00  0.00    +0.005 C 
BRANCH  14  16
ATOM     16  C   UNL     1     -10.592   5.255  71.908  0.00  0.00    +0.154 C 
ATOM     17  O   UNL     1      -9.209   5.459  72.509  0.00  0.00    -0.223 OA
ATOM     18  C   UNL     1     -11.260   4.914  73.383  0.00  0.00    +0.036 C 
ENDBRANCH  14  16
ENDBRANCH  12  14
ENDBRANCH  10  11
ENDBRANCH   7  10
ENDBRANCH   1   2
BRANCH   1  20
ATOM     19  C   UNL     1      -9.469  15.005  65.715  0.00  0.00    +0.027 C 
ATOM     20  C   UNL     1      -9.545  14.886  65.991  0.00  0.00    -0.035 C 
ATOM     21  C   UNL     1     -10.650  15.451  65.839  0.00  0.00    +0.073 C 
BRANCH  21  22
ATOM     22  C   UNL     1     -10.777  16.669  65.037  0.00  0.00    +0.341 C 
ATOM     23  O   UNL     1     -11.650  16.723  64.115  0.00  0.00    -0.245 OA
BRANCH  22  24
ATOM     24  O   UNL     1     -10.118  17.816  65.436  0.00  0.00    -0.445 OA
BRANCH  24  25
ATOM     25  C   UNL     1     -10.674  18.496  66.544  0.00  0.00    +0.209 C 
BRANCH  25  26
ATOM     26  C   UNL     1      -9.649  18.662  67.651  0.00  0.00    +0.047 C 
BRANCH  26  27
ATOM     27  C   UNL     1     -10.172  17.826  68.806  0.00  0.00    +0.004 C 
BRANCH  27  28
ATOM     28  C   UNL     1      -9.260  16.626  68.996  0.00  0.00    +0.000 C 
BRANCH  28  29
ATOM     29  C   UNL     1      -9.959  15.545  69.756  0.00  0.00    +0.000 C 
BRANCH  29  30
ATOM     30  C   UNL     1     -11.461  15.797  69.724  0.00  0.00    +0.001 C 
BRANCH  30  31
ATOM     31  C   UNL     1     -12.176  15.102  70.840  0.00  0.00    +0.012 C 
BRANCH  31  32
ATOM     32  C   UNL     1     -11.894  15.924  72.090  0.00  0.00    +0.114 C 
BRANCH  32  33
ATOM     33  C   UNL     1     -13.087  15.796  72.984  0.00  0.00    +0.365 C 
ATOM     34  O   UNL     1     -12.964  16.241  74.304  0.00  0.00    -0.246 OA
ATOM     35  O   UNL     1     -14.208  16.053  72.448  0.00  0.00    -0.246 OA
ENDBRANCH  32  33
ENDBRANCH  31  32
ENDBRANCH  30  31
ENDBRANCH  29  30
ENDBRANCH  28  29
ENDBRANCH  27  28
ENDBRANCH  26  27
ENDBRANCH  25  26
ENDBRANCH  24  25
ENDBRANCH  22  24
ENDBRANCH  21  22
ENDBRANCH   1  20
TORSDOF 17
ENDMDL
MODEL 7
REMARK VINA RESULT:      -6.7      3.780      9.069
REMARK  Name = 
REMARK  17 active torsions:
REMARK  status: ('A' for Active; 'I' for Inactive)
REMARK    1  A    between atoms: C_2  and  C_18
REMARK    2  A    between atoms: C_3  and  C_4
REMARK    3  A    between atoms: C_4  and  O_6
REMARK    4  A    between atoms: O_6  and  C_7
REMARK    5  A    between atoms: C_7  and  C_8
REMARK    6  A    between atoms: C_8  and  C_9
REMARK    7  A    between atoms: C_9  and  C_10
REMARK    8  A    between atoms: C_10  and  C_11
REMARK    9  A    between atoms: C_11  and  C_12
REMARK   10  A    between atoms: C_12  and  C_13
REMARK   11  A    between atoms: C_13  and  C_14
REMARK   12  A    between atoms: C_14  and  C_15
REMARK   13  A    between atoms: C_18  and  C_19
REMARK   14  A    between atoms: C_22  and  C_23
REMARK   15  A    between atoms: C_23  and  C_24
REMARK   16  A    between atoms: C_26  and  C_27
REMARK   17  A    between atoms: C_27  and  C_29
REMARK                            x       y       z     vdW  Elec       q    Type
REMARK                         _______ _______ _______ _____ _____    ______ ____
ROOT
ATOM      1  C   UNL     1     -10.946  12.580  68.108  0.00  0.00    +0.054 C 
ENDROOT
BRANCH   1   2
ATOM      2  C   UNL     1     -11.672  12.107  66.709  0.00  0.00    +0.152 C 
ATOM      3  C   UNL     1     -10.886  13.359  65.820  0.00  0.00    +0.209 C 
ATOM      4  O   UNL     1     -12.025  14.320  66.009  0.00  0.00    -0.218 OA
ATOM      5  C   UNL     1     -11.517  12.905  64.292  0.00  0.00    +0.187 C 
ATOM      6  O   UNL     1     -12.889  12.508  64.783  0.00  0.00    -0.220 OA
ATOM      7  C   UNL     1     -10.949  11.295  64.340  0.00  0.00    +0.065 C 
ATOM      8  C   UNL     1      -9.794  11.518  65.466  0.00  0.00    +0.145 C 
ATOM      9  O   UNL     1     -10.569  11.081  66.507  0.00  0.00    -0.353 OA
BRANCH   7  10
ATOM     10  C   UNL     1      -9.893  11.519  63.129  0.00  0.00    +0.037 C 
BRANCH  10  11
ATOM     11  C   UNL     1      -9.333   9.965  62.873  0.00  0.00    +0.142 C 
ATOM     12  C   UNL     1      -8.522  10.375  61.430  0.00  0.00    +0.145 C 
ATOM     13  O   UNL     1      -7.724  10.411  62.896  0.00  0.00    -0.354 OA
BRANCH  12  14
ATOM     14  C   UNL     1      -8.027   8.766  61.106  0.00  0.00    +0.060 C 
ATOM     15  C   UNL     1      -9.254   8.486  60.116  0.00  0.00    +0.005 C 
BRANCH  14  16
ATOM     16  C   UNL     1      -6.862   9.214  59.932  0.00  0.00    +0.154 C 
ATOM     17  O   UNL     1      -5.703   9.177  60.918  0.00  0.00    -0.223 OA
ATOM     18  C   UNL     1      -6.563   7.670  59.415  0.00  0.00    +0.036 C 
ENDBRANCH  14  16
ENDBRANCH  12  14
ENDBRANCH  10  11
ENDBRANCH   7  10
ENDBRANCH   1   2
BRANCH   1  20
ATOM     19  C   UNL     1     -12.014  12.108  69.220  0.00  0.00    +0.027 C 
ATOM     20  C   UNL     1     -11.706  12.143  69.206  0.00  0.00    -0.035 C 
ATOM     21  C   UNL     1     -11.649  11.282  70.111  0.00  0.00    +0.073 C 
BRANCH  21  22
ATOM     22  C   UNL     1     -12.745  11.107  71.065  0.00  0.00    +0.341 C 
ATOM     23  O   UNL     1     -13.497  10.086  70.976  0.00  0.00    -0.245 OA
BRANCH  22  24
ATOM     24  O   UNL     1     -12.808  11.919  72.181  0.00  0.00    -0.445 OA
BRANCH  24  25
ATOM     25  C   UNL     1     -13.775  12.949  72.145  0.00  0.00    +0.209 C 
BRANCH  25  26
ATOM     26  C   UNL     1     -13.167  14.282  72.544  0.00  0.00    +0.047 C 
BRANCH  26  27
ATOM     27  C   UNL     1     -13.140  15.104  71.267  0.00  0.00    +0.004 C 
BRANCH  27  28
ATOM     28  C   UNL     1     -11.911  15.999  71.286  0.00  0.00    +0.000 C 
BRANCH  28  29
ATOM     29  C   UNL     1     -10.921  15.560  70.256  0.00  0.00    +0.000 C 
BRANCH  29  30
ATOM     30  C   UNL     1     -11.253  16.220  68.924  0.00  0.00    +0.001 C 
BRANCH  30  31
ATOM     31  C   UNL     1     -10.047  16.825  68.275  0.00  0.00    +0.012 C 
BRANCH  31  32
ATOM     32  C   UNL     1     -10.537  18.092  67.588  0.00  0.00    +0.114 C 
BRANCH  32  33
ATOM     33  C   UNL     1      -9.987  18.083  66.197  0.00  0.00    +0.365 C 
ATOM     34  O   UNL     1      -8.599  18.165  66.044  0.00  0.00    -0.246 OA
ATOM     35  O   UNL     1     -10.556  17.294  65.383  0.00  0.00    -0.246 OA
ENDBRANCH  32  33
ENDBRANCH  31  32
ENDBRANCH  30  31
ENDBRANCH  29  30
ENDBRANCH  28  29
ENDBRANCH  27  28
ENDBRANCH  26  27
ENDBRANCH  25  26
ENDBRANCH  24  25
ENDBRANCH  22  24
ENDBRANCH  21  22
ENDBRANCH   1  20
TORSDOF 17
ENDMDL
MODEL 8
REMARK VINA RESULT:      -6.7      1.993      2.606
REMARK  Name = 
REMARK  17 active torsions:
REMARK  status: ('A' for Active; 'I' for Inactive)
REMARK    1  A    between atoms: C_2  and  C_18
REMARK    2  A    between atoms: C_3  and  C_4
REMARK    3  A    between atoms: C_4  and  O_6
REMARK    4  A    between atoms: O_6  and  C_7
REMARK    5  A    between atoms: C_7  and  C_8
REMARK    6  A    between atoms: C_8  and  C_9
REMARK    7  A    between atoms: C_9  and  C_10
REMARK    8  A    between atoms: C_10  and  C_11
REMARK    9  A    between atoms: C_11  and  C_12
REMARK   10  A    between atoms: C_12  and  C_13
REMARK   11  A    between atoms: C_13  and  C_14
REMARK   12  A    between atoms: C_14  and  C_15
REMARK   13  A    between atoms: C_18  and  C_19
REMARK   14  A    between atoms: C_22  and  C_23
REMARK   15  A    between atoms: C_23  and  C_24
REMARK   16  A    between atoms: C_26  and  C_27
REMARK   17  A    between atoms: C_27  and  C_29
REMARK                            x       y       z     vdW  Elec       q    Type
REMARK                         _______ _______ _______ _____ _____    ______ ____
ROOT
ATOM      1  C   UNL     1     -11.216  16.056  67.716  0.00  0.00    +0.054 C 
ENDROOT
BRANCH   1   2
ATOM      2  C   UNL     1      -9.710  16.406  67.154  0.00  0.00    +0.152 C 
ATOM      3  C   UNL     1     -10.099  18.080  67.010  0.00  0.00    +0.209 C 
ATOM      4  O   UNL     1     -10.530  17.941  65.578  0.00  0.00    -0.218 OA
ATOM      5  C   UNL     1      -8.539  18.575  66.497  0.00  0.00    +0.187 C 
ATOM      6  O   UNL     1      -8.249  17.366  65.638  0.00  0.00    -0.220 OA
ATOM      7  C   UNL     1      -7.701  17.921  67.835  0.00  0.00    +0.065 C 
ATOM      8  C   UNL     1      -8.973  17.824  68.847  0.00  0.00    +0.145 C 
ATOM      9  O   UNL     1      -9.218  16.501  68.589  0.00  0.00    -0.353 OA
BRANCH   7  10
ATOM     10  C   UNL     1      -7.278  19.376  68.414  0.00  0.00    +0.037 C 
BRANCH  10  11
ATOM     11  C   UNL     1      -6.283  18.957  69.691  0.00  0.00    +0.142 C 
ATOM     12  C   UNL     1      -5.289  20.331  69.513  0.00  0.00    +0.145 C 
ATOM     13  O   UNL     1      -6.596  20.354  70.551  0.00  0.00    -0.354 OA
BRANCH  12  14
ATOM     14  C   UNL     1      -4.205  19.861  70.756  0.00  0.00    +0.060 C 
ATOM     15  C   UNL     1      -3.175  19.185  69.733  0.00  0.00    +0.005 C 
BRANCH  14  16
ATOM     16  C   UNL     1      -3.458  21.397  70.877  0.00  0.00    +0.154 C 
ATOM     17  O   UNL     1      -4.308  21.832  72.062  0.00  0.00    -0.223 OA
ATOM     18  C   UNL     1      -2.223  20.892  71.857  0.00  0.00    +0.036 C 
ENDBRANCH  14  16
ENDBRANCH  12  14
ENDBRANCH  10  11
ENDBRANCH   7  10
ENDBRANCH   1   2
BRANCH   1  20
ATOM     19  C   UNL     1     -11.620  14.505  67.898  0.00  0.00    +0.027 C 
ATOM     20  C   UNL     1     -11.357  14.664  67.853  0.00  0.00    -0.035 C 
ATOM     21  C   UNL     1     -10.907  13.615  67.342  0.00  0.00    +0.073 C 
BRANCH  21  22
ATOM     22  C   UNL     1     -11.397  12.298  67.751  0.00  0.00    +0.341 C 
ATOM     23  O   UNL     1     -12.102  11.614  66.945  0.00  0.00    -0.245 OA
BRANCH  22  24
ATOM     24  O   UNL     1     -10.901  11.718  68.903  0.00  0.00    -0.445 OA
BRANCH  24  25
ATOM     25  C   UNL     1     -10.133  10.546  68.725  0.00  0.00    +0.209 C 
BRANCH  25  26
ATOM     26  C   UNL     1     -10.746   9.373  69.469  0.00  0.00    +0.047 C 
BRANCH  26  27
ATOM     27  C   UNL     1     -11.180   9.937  70.811  0.00  0.00    +0.004 C 
BRANCH  27  28
ATOM     28  C   UNL     1     -12.695  10.050  70.830  0.00  0.00    +0.000 C 
BRANCH  28  29
ATOM     29  C   UNL     1     -13.143  10.979  71.911  0.00  0.00    +0.000 C 
BRANCH  29  30
ATOM     30  C   UNL     1     -13.022  12.417  71.422  0.00  0.00    +0.001 C 
BRANCH  30  31
ATOM     31  C   UNL     1     -13.870  13.359  72.218  0.00  0.00    +0.012 C 
BRANCH  31  32
ATOM     32  C   UNL     1     -12.902  14.326  72.886  0.00  0.00    +0.114 C 
BRANCH  32  33
ATOM     33  C   UNL     1     -13.230  15.698  72.386  0.00  0.00    +0.365 C 
ATOM     34  O   UNL     1     -13.214  15.909  71.003  0.00  0.00    -0.246 OA
ATOM     35  O   UNL     1     -14.166  16.298  72.995  0.00  0.00    -0.246 OA
ENDBRANCH  32  33
ENDBRANCH  31  32
ENDBRANCH  30  31
ENDBRANCH  29  30
ENDBRANCH  28  29
ENDBRANCH  27  28
ENDBRANCH  26  27
ENDBRANCH  25  26
ENDBRANCH  24  25
ENDBRANCH  22  24
ENDBRANCH  21  22
ENDBRANCH   1  20
TORSDOF 17
ENDMDL
MODEL 9
REMARK VINA RESULT:      -6.6      5.510     10.080
REMARK  Name = 
REMARK  17 active torsions:
REMARK  status: ('A' for Active; 'I' for Inactive)
REMARK    1  A    between atoms: C_2  and  C_18
REMARK    2  A    between atoms: C_3  and  C_4
REMARK    3  A    between atoms: C_4  and  O_6
REMARK    4  A    between atoms: O_6  and  C_7
REMARK    5  A    between atoms: C_7  and  C_8
REMARK    6  A    between atoms: C_8  and  C_9
REMARK    7  A    between atoms: C_9  and  C_10
REMARK    8  A    between atoms: C_10  and  C_11
REMARK    9  A    between atoms: C_11  and  C_12
REMARK   10  A    between atoms: C_12  and  C_13
REMARK   11  A    between atoms: C_13  and  C_14
REMARK   12  A    between atoms: C_14  and  C_15
REMARK   13  A    between atoms: C_18  and  C_19
REMARK   14  A    between atoms: C_22  and  C_23
REMARK   15  A    between atoms: C_23  and  C_24
REMARK   16  A    between atoms: C_26  and  C_27
REMARK   17  A    between atoms: C_27  and  C_29
REMARK                            x       y       z     vdW  Elec       q    Type
REMARK                         _______ _______ _______ _____ _____    ______ ____
ROOT
ATOM      1  C   UNL     1     -11.128  11.710  68.883  0.00  0.00    +0.054 C 
ENDROOT
BRANCH   1   2
ATOM      2  C   UNL     1     -11.172  10.068  68.796  0.00  0.00    +0.152 C 
ATOM      3  C   UNL     1      -9.532   9.946  69.316  0.00  0.00    +0.209 C 
ATOM      4  O   UNL     1      -9.002   9.939  67.911  0.00  0.00    -0.218 OA
ATOM      5  C   UNL     1      -9.489   8.232  69.345  0.00  0.00    +0.187 C 
ATOM      6  O   UNL     1     -10.343   8.017  68.117  0.00  0.00    -0.220 OA
ATOM      7  C   UNL     1     -10.820   8.042  70.399  0.00  0.00    +0.065 C 
ATOM      8  C   UNL     1     -10.796   9.541  71.033  0.00  0.00    +0.145 C 
ATOM      9  O   UNL     1     -11.763  10.031  70.196  0.00  0.00    -0.353 OA
BRANCH   7  10
ATOM     10  C   UNL     1      -9.913   7.453  71.608  0.00  0.00    +0.037 C 
BRANCH  10  11
ATOM     11  C   UNL     1     -10.890   6.233  72.203  0.00  0.00    +0.142 C 
ATOM     12  C   UNL     1      -9.653   5.560  73.165  0.00  0.00    +0.145 C 
ATOM     13  O   UNL     1     -10.703   6.695  73.797  0.00  0.00    -0.354 OA
BRANCH  12  14
ATOM     14  C   UNL     1     -10.617   4.248  73.704  0.00  0.00    +0.060 C 
ATOM     15  C   UNL     1     -10.091   3.266  72.553  0.00  0.00    +0.005 C 
BRANCH  14  16
ATOM     16  C   UNL     1      -9.531   3.778  74.942  0.00  0.00    +0.154 C 
ATOM     17  O   UNL     1     -10.362   4.406  76.052  0.00  0.00    -0.223 OA
ATOM     18  C   UNL     1     -10.208   2.287  75.183  0.00  0.00    +0.036 C 
ENDBRANCH  14  16
ENDBRANCH  12  14
ENDBRANCH  10  11
ENDBRANCH   7  10
ENDBRANCH   1   2
BRANCH   1  20
ATOM     19  C   UNL     1     -11.739  12.559  67.655  0.00  0.00    +0.027 C 
ATOM     20  C   UNL     1     -11.676  12.260  67.712  0.00  0.00    -0.035 C 
ATOM     21  C   UNL     1     -11.572  12.134  66.472  0.00  0.00    +0.073 C 
BRANCH  21  22
ATOM     22  C   UNL     1     -12.315  12.999  65.555  0.00  0.00    +0.341 C 
ATOM     23  O   UNL     1     -13.130  12.482  64.728  0.00  0.00    -0.245 OA
BRANCH  22  24
ATOM     24  O   UNL     1     -12.301  14.367  65.751  0.00  0.00    -0.445 OA
BRANCH  24  25
ATOM     25  C   UNL     1     -11.372  15.095  64.975  0.00  0.00    +0.209 C 
BRANCH  25  26
ATOM     26  C   UNL     1     -10.113  15.393  65.769  0.00  0.00    +0.047 C 
BRANCH  26  27
ATOM     27  C   UNL     1     -10.601  15.973  67.084  0.00  0.00    +0.004 C 
BRANCH  27  28
ATOM     28  C   UNL     1      -9.558  15.705  68.157  0.00  0.00    +0.000 C 
BRANCH  28  29
ATOM     29  C   UNL     1     -10.212  15.336  69.450  0.00  0.00    +0.000 C 
BRANCH  29  30
ATOM     30  C   UNL     1     -11.650  15.837  69.448  0.00  0.00    +0.001 C 
BRANCH  30  31
ATOM     31  C   UNL     1     -12.475  15.196  70.521  0.00  0.00    +0.012 C 
BRANCH  31  32
ATOM     32  C   UNL     1     -12.159  15.961  71.799  0.00  0.00    +0.114 C 
BRANCH  32  33
ATOM     33  C   UNL     1     -13.211  15.604  72.801  0.00  0.00    +0.365 C 
ATOM     34  O   UNL     1     -13.573  14.257  72.914  0.00  0.00    -0.246 OA
ATOM     35  O   UNL     1     -13.154  16.224  73.906  0.00  0.00    -0.246 OA
ENDBRANCH  32  33
ENDBRANCH  31  32
ENDBRANCH  30  31
ENDBRANCH  29  30
ENDBRANCH  28  29
ENDBRANCH  27  28
ENDBRANCH  26  27
ENDBRANCH  25  26
ENDBRANCH  24  25
ENDBRANCH  22  24
ENDBRANCH  21  22
ENDBRANCH   1  20
TORSDOF 17
ENDMDL
