MODEL 1
REMARK VINA RESULT:      -5.4      0.000      0.000
REMARK  Name = 
REMARK  1 active torsions:
REMARK  status: ('A' for Active; 'I' for Inactive)
REMARK    1  A    between atoms: C_3  and  C_4
REMARK                            x       y       z     vdW  Elec       q    Type
REMARK                         _______ _______ _______ _____ _____    ______ ____
ROOT
ATOM      1  C   UNL     1     -11.443  13.229  68.916  0.00  0.00    +0.020 C 
ATOM      2  C   UNL     1     -10.526  14.570  69.184  0.00  0.00    +0.089 C 
ATOM      3  N   UNL     1     -10.315  14.905  67.666  0.00  0.00    -0.268 NA
ATOM      4  C   UNL     1     -10.569  13.848  66.836  0.00  0.00    +0.090 C 
ATOM      5  C   UNL     1     -10.742  16.207  67.406  0.00  0.00    +0.105 C 
ATOM      6  C   UNL     1     -10.393  17.130  68.538  0.00  0.00    +0.160 C 
ATOM      7  O   UNL     1     -11.072  16.785  69.719  0.00  0.00    -0.349 OA
ATOM      8  C   UNL     1     -11.944  15.591  69.300  0.00  0.00    +0.152 C 
ENDROOT
BRANCH   8   9
ATOM      9  C   UNL     1     -12.209  15.106  70.839  0.00  0.00    +0.006 A 
ATOM     10  C   UNL     1     -11.667  15.900  71.817  0.00  0.00    -0.002 A 
ATOM     11  C   UNL     1     -12.188  15.720  73.095  0.00  0.00    -0.000 A 
ATOM     12  C   UNL     1     -13.567  15.897  73.153  0.00  0.00    -0.000 A 
ATOM     13  C   UNL     1     -14.275  15.325  72.101  0.00  0.00    -0.000 A 
ATOM     14  C   UNL     1     -13.596  14.961  70.943  0.00  0.00    -0.002 A 
ENDBRANCH   8   9
TORSDOF 1
ENDMDL
MODEL 2
REMARK VINA RESULT:      -5.2      1.346      2.575
REMARK  Name = 
REMARK  1 active torsions:
REMARK  status: ('A' for Active; 'I' for Inactive)
REMARK    1  A    between atoms: C_3  and  C_4
REMARK                            x       y       z     vdW  Elec       q    Type
REMARK                         _______ _______ _______ _____ _____    ______ ____
ROOT
ATOM      1  C   UNL     1     -11.284  16.122  68.284  0.00  0.00    +0.020 C 
ATOM      2  C   UNL     1     -12.063  14.674  68.376  0.00  0.00    +0.089 C 
ATOM      3  N   UNL     1     -10.964  13.871  67.594  0.00  0.00    -0.268 NA
ATOM      4  C   UNL     1     -10.126  14.668  66.863  0.00  0.00    +0.090 C 
ATOM      5  C   UNL     1     -10.524  12.797  68.368  0.00  0.00    +0.105 C 
ATOM      6  C   UNL     1     -11.660  12.171  69.123  0.00  0.00    +0.160 C 
ATOM      7  O   UNL     1     -12.211  13.057  70.065  0.00  0.00    -0.349 OA
ATOM      8  C   UNL     1     -11.339  14.316  69.930  0.00  0.00    +0.152 C 
ENDROOT
BRANCH   8   9
ATOM      9  C   UNL     1     -12.421  15.277  70.693  0.00  0.00    +0.006 A 
ATOM     10  C   UNL     1     -13.545  14.652  71.168  0.00  0.00    -0.002 A 
ATOM     11  C   UNL     1     -14.270  15.361  72.122  0.00  0.00    -0.000 A 
ATOM     12  C   UNL     1     -13.511  15.719  73.231  0.00  0.00    -0.000 A 
ATOM     13  C   UNL     1     -12.233  16.187  72.939  0.00  0.00    -0.000 A 
ATOM     14  C   UNL     1     -11.688  15.937  71.683  0.00  0.00    -0.002 A 
ENDBRANCH   8   9
TORSDOF 1
ENDMDL
MODEL 3
REMARK VINA RESULT:      -4.8      2.789      6.089
REMARK  Name = 
REMARK  1 active torsions:
REMARK  status: ('A' for Active; 'I' for Inactive)
REMARK    1  A    between atoms: C_3  and  C_4
REMARK                            x       y       z     vdW  Elec       q    Type
REMARK                         _______ _______ _______ _____ _____    ______ ____
ROOT
ATOM      1  C   UNL     1     -10.134  16.331  65.919  0.00  0.00    +0.020 C 
ATOM      2  C   UNL     1     -10.055  15.110  67.021  0.00  0.00    +0.089 C 
ATOM      3  N   UNL     1     -10.667  15.942  68.202  0.00  0.00    -0.268 NA
ATOM      4  C   UNL     1     -10.616  17.294  67.996  0.00  0.00    +0.090 C 
ATOM      5  C   UNL     1     -11.783  15.284  68.716  0.00  0.00    +0.105 C 
ATOM      6  C   UNL     1     -11.572  13.797  68.743  0.00  0.00    +0.160 C 
ATOM      7  O   UNL     1     -11.439  13.267  67.448  0.00  0.00    -0.349 OA
ATOM      8  C   UNL     1     -11.620  14.491  66.535  0.00  0.00    +0.152 C 
ENDROOT
BRANCH   8   9
ATOM      9  C   UNL     1     -10.961  13.752  65.233  0.00  0.00    +0.006 A 
ATOM     10  C   UNL     1     -10.410  12.517  65.462  0.00  0.00    -0.002 A 
ATOM     11  C   UNL     1     -10.195  11.736  64.331  0.00  0.00    -0.000 A 
ATOM     12  C   UNL     1     -11.348  11.527  63.583  0.00  0.00    -0.000 A 
ATOM     13  C   UNL     1     -12.154  12.649  63.425  0.00  0.00    -0.000 A 
ATOM     14  C   UNL     1     -11.974  13.741  64.269  0.00  0.00    -0.002 A 
ENDBRANCH   8   9
TORSDOF 1
ENDMDL
MODEL 4
REMARK VINA RESULT:      -4.8      3.559      5.052
REMARK  Name = 
REMARK  1 active torsions:
REMARK  status: ('A' for Active; 'I' for Inactive)
REMARK    1  A    between atoms: C_3  and  C_4
REMARK                            x       y       z     vdW  Elec       q    Type
REMARK                         _______ _______ _______ _____ _____    ______ ____
ROOT
ATOM      1  C   UNL     1     -12.065  14.562  64.470  0.00  0.00    +0.020 C 
ATOM      2  C   UNL     1     -12.328  14.035  66.008  0.00  0.00    +0.089 C 
ATOM      3  N   UNL     1     -12.332  12.510  65.638  0.00  0.00    -0.268 NA
ATOM      4  C   UNL     1     -12.532  12.275  64.304  0.00  0.00    +0.090 C 
ATOM      5  C   UNL     1     -11.383  11.835  66.403  0.00  0.00    +0.105 C 
ATOM      6  C   UNL     1     -11.335  12.370  67.805  0.00  0.00    +0.160 C 
ATOM      7  O   UNL     1     -10.902  13.706  67.838  0.00  0.00    -0.349 OA
ATOM      8  C   UNL     1     -10.613  14.030  66.363  0.00  0.00    +0.152 C 
ENDROOT
BRANCH   8   9
ATOM      9  C   UNL     1     -10.624  15.648  66.604  0.00  0.00    +0.006 A 
ATOM     10  C   UNL     1     -10.814  16.057  67.899  0.00  0.00    -0.002 A 
ATOM     11  C   UNL     1     -10.456  17.375  68.171  0.00  0.00    -0.000 A 
ATOM     12  C   UNL     1      -9.133  17.659  67.851  0.00  0.00    -0.000 A 
ATOM     13  C   UNL     1      -8.697  17.129  66.641  0.00  0.00    -0.000 A 
ATOM     14  C   UNL     1      -9.429  16.108  66.042  0.00  0.00    -0.002 A 
ENDBRANCH   8   9
TORSDOF 1
ENDMDL
MODEL 5
REMARK VINA RESULT:      -4.8      2.089      3.297
REMARK  Name = 
REMARK  1 active torsions:
REMARK  status: ('A' for Active; 'I' for Inactive)
REMARK    1  A    between atoms: C_3  and  C_4
REMARK                            x       y       z     vdW  Elec       q    Type
REMARK                         _______ _______ _______ _____ _____    ______ ____
ROOT
ATOM      1  C   UNL     1      -9.607  12.135  67.649  0.00  0.00    +0.020 C 
ATOM      2  C   UNL     1     -10.282  13.312  66.716  0.00  0.00    +0.089 C 
ATOM      3  N   UNL     1     -10.645  12.359  65.524  0.00  0.00    -0.268 NA
ATOM      4  C   UNL     1      -9.955  11.178  65.542  0.00  0.00    +0.090 C 
ATOM      5  C   UNL     1     -12.009  12.448  65.247  0.00  0.00    +0.105 C 
ATOM      6  C   UNL     1     -12.501  13.859  65.388  0.00  0.00    +0.160 C 
ATOM      7  O   UNL     1     -12.399  14.315  66.714  0.00  0.00    -0.349 OA
ATOM      8  C   UNL     1     -11.846  13.099  67.474  0.00  0.00    +0.152 C 
ENDROOT
BRANCH   8   9
ATOM      9  C   UNL     1     -11.378  13.985  68.767  0.00  0.00    +0.006 A 
ATOM     10  C   UNL     1     -11.623  15.332  68.689  0.00  0.00    -0.002 A 
ATOM     11  C   UNL     1     -11.581  16.022  69.896  0.00  0.00    -0.000 A 
ATOM     12  C   UNL     1     -12.455  15.510  70.849  0.00  0.00    -0.000 A 
ATOM     13  C   UNL     1     -12.494  14.122  70.922  0.00  0.00    -0.000 A 
ATOM     14  C   UNL     1     -11.981  13.371  69.868  0.00  0.00    -0.002 A 
ENDBRANCH   8   9
TORSDOF 1
ENDMDL
MODEL 6
REMARK VINA RESULT:      -4.7      2.302      5.103
REMARK  Name = 
REMARK  1 active torsions:
REMARK  status: ('A' for Active; 'I' for Inactive)
REMARK    1  A    between atoms: C_3  and  C_4
REMARK                            x       y       z     vdW  Elec       q    Type
REMARK                         _______ _______ _______ _____ _____    ______ ____
ROOT
ATOM      1  C   UNL     1      -9.655  15.121  65.778  0.00  0.00    +0.020 C 
ATOM      2  C   UNL     1     -10.975  15.573  66.652  0.00  0.00    +0.089 C 
ATOM      3  N   UNL     1     -11.102  14.218  67.432  0.00  0.00    -0.268 NA
ATOM      4  C   UNL     1     -10.430  13.185  66.838  0.00  0.00    +0.090 C 
ATOM      5  C   UNL     1     -11.083  14.459  68.805  0.00  0.00    +0.105 C 
ATOM      6  C   UNL     1     -11.837  15.711  69.147  0.00  0.00    +0.160 C 
ATOM      7  O   UNL     1     -11.227  16.852  68.599  0.00  0.00    -0.349 OA
ATOM      8  C   UNL     1      -9.978  16.295  67.898  0.00  0.00    +0.152 C 
ENDROOT
BRANCH   8   9
ATOM      9  C   UNL     1      -9.756  17.637  66.991  0.00  0.00    +0.006 A 
ATOM     10  C   UNL     1     -10.652  18.654  67.199  0.00  0.00    -0.002 A 
ATOM     11  C   UNL     1     -10.263  19.904  66.728  0.00  0.00    -0.000 A 
ATOM     12  C   UNL     1      -9.045  20.330  67.250  0.00  0.00    -0.000 A 
ATOM     13  C   UNL     1      -8.061  19.349  67.312  0.00  0.00    -0.000 A 
ATOM     14  C   UNL     1      -8.427  18.010  67.211  0.00  0.00    -0.002 A 
ENDBRANCH   8   9
TORSDOF 1
ENDMDL
MODEL 7
REMARK VINA RESULT:      -4.7      2.738      6.252
REMARK  Name = 
REMARK  1 active torsions:
REMARK  status: ('A' for Active; 'I' for Inactive)
REMARK    1  A    between atoms: C_3  and  C_4
REMARK                            x       y       z     vdW  Elec       q    Type
REMARK                         _______ _______ _______ _____ _____    ______ ____
ROOT
ATOM      1  C   UNL     1     -11.702  13.277  68.210  0.00  0.00    +0.020 C 
ATOM      2  C   UNL     1     -11.865  14.434  67.050  0.00  0.00    +0.089 C 
ATOM      3  N   UNL     1     -11.240  15.588  67.909  0.00  0.00    -0.268 NA
ATOM      4  C   UNL     1     -11.220  15.316  69.250  0.00  0.00    +0.090 C 
ATOM      5  C   UNL     1     -10.169  16.161  67.225  0.00  0.00    +0.105 C 
ATOM      6  C   UNL     1     -10.452  16.253  65.753  0.00  0.00    +0.160 C 
ATOM      7  O   UNL     1     -10.582  14.983  65.167  0.00  0.00    -0.349 OA
ATOM      8  C   UNL     1     -10.321  14.017  66.334  0.00  0.00    +0.152 C 
ENDROOT
BRANCH   8   9
ATOM      9  C   UNL     1     -10.986  12.736  65.563  0.00  0.00    +0.006 A 
ATOM     10  C   UNL     1     -11.426  12.970  64.286  0.00  0.00    -0.002 A 
ATOM     11  C   UNL     1     -11.637  11.837  63.506  0.00  0.00    -0.000 A 
ATOM     12  C   UNL     1     -10.511  11.027  63.401  0.00  0.00    -0.000 A 
ATOM     13  C   UNL     1      -9.805  10.849  64.587  0.00  0.00    -0.000 A 
ATOM     14  C   UNL     1     -10.027  11.722  65.648  0.00  0.00    -0.002 A 
ENDBRANCH   8   9
TORSDOF 1
ENDMDL
MODEL 8
REMARK VINA RESULT:      -4.7      3.455      5.123
REMARK  Name = 
REMARK  1 active torsions:
REMARK  status: ('A' for Active; 'I' for Inactive)
REMARK    1  A    between atoms: C_3  and  C_4
REMARK                            x       y       z     vdW  Elec       q    Type
REMARK                         _______ _______ _______ _____ _____    ______ ____
ROOT
ATOM      1  C   UNL     1      -7.671  17.192  66.131  0.00  0.00    +0.020 C 
ATOM      2  C   UNL     1      -8.569  17.907  67.312  0.00  0.00    +0.089 C 
ATOM      3  N   UNL     1      -8.330  19.373  66.806  0.00  0.00    -0.268 NA
ATOM      4  C   UNL     1      -7.257  19.489  65.965  0.00  0.00    +0.090 C 
ATOM      5  C   UNL     1      -9.555  20.001  66.581  0.00  0.00    +0.105 C 
ATOM      6  C   UNL     1     -10.562  19.614  67.625  0.00  0.00    +0.160 C 
ATOM      7  O   UNL     1     -10.874  18.245  67.566  0.00  0.00    -0.349 OA
ATOM      8  C   UNL     1     -10.041  17.735  66.379  0.00  0.00    +0.152 C 
ENDROOT
BRANCH   8   9
ATOM      9  C   UNL     1     -10.177  16.165  66.820  0.00  0.00    +0.006 A 
ATOM     10  C   UNL     1     -10.989  15.915  67.895  0.00  0.00    -0.002 A 
ATOM     11  C   UNL     1     -11.405  14.595  68.041  0.00  0.00    -0.000 A 
ATOM     12  C   UNL     1     -12.062  14.101  66.918  0.00  0.00    -0.000 A 
ATOM     13  C   UNL     1     -11.481  14.445  65.702  0.00  0.00    -0.000 A 
ATOM     14  C   UNL     1     -10.566  15.492  65.657  0.00  0.00    -0.002 A 
ENDBRANCH   8   9
TORSDOF 1
ENDMDL
MODEL 9
REMARK VINA RESULT:      -4.6      5.092      6.722
REMARK  Name = 
REMARK  1 active torsions:
REMARK  status: ('A' for Active; 'I' for Inactive)
REMARK    1  A    between atoms: C_3  and  C_4
REMARK                            x       y       z     vdW  Elec       q    Type
REMARK                         _______ _______ _______ _____ _____    ______ ____
ROOT
ATOM      1  C   UNL     1      -7.592  16.899  66.745  0.00  0.00    +0.020 C 
ATOM      2  C   UNL     1      -8.222  18.329  66.226  0.00  0.00    +0.089 C 
ATOM      3  N   UNL     1      -9.689  17.794  66.079  0.00  0.00    -0.268 NA
ATOM      4  C   UNL     1      -9.767  16.429  66.022  0.00  0.00    +0.090 C 
ATOM      5  C   UNL     1     -10.557  18.584  66.833  0.00  0.00    +0.105 C 
ATOM      6  C   UNL     1     -10.169  20.032  66.768  0.00  0.00    +0.160 C 
ATOM      7  O   UNL     1      -8.913  20.261  67.356  0.00  0.00    -0.349 OA
ATOM      8  C   UNL     1      -8.494  18.874  67.868  0.00  0.00    +0.152 C 
ENDROOT
BRANCH   8   9
ATOM      9  C   UNL     1      -6.920  19.289  68.027  0.00  0.00    +0.006 A 
ATOM     10  C   UNL     1      -6.610  20.588  67.715  0.00  0.00    -0.002 A 
ATOM     11  C   UNL     1      -5.387  21.047  68.194  0.00  0.00    -0.000 A 
ATOM     12  C   UNL     1      -5.260  20.925  69.574  0.00  0.00    -0.000 A 
ATOM     13  C   UNL     1      -5.730  19.726  70.101  0.00  0.00    -0.000 A 
ATOM     14  C   UNL     1      -6.579  18.933  69.335  0.00  0.00    -0.002 A 
ENDBRANCH   8   9
TORSDOF 1
ENDMDL
