MODEL 1
REMARK VINA RESULT:      -7.5      0.000      0.000
REMARK  Name = 
REMARK  20 active torsions:
REMARK  status: ('A' for Active; 'I' for Inactive)
REMARK    1  A    between atoms: C_2  and  C_4
REMARK    2  A    between atoms: C_6  and  C_7
REMARK    3  A    between atoms: C_7  and  N_8
REMARK    4  A    between atoms: N_12  and  C_13
REMARK    5  A    between atoms: C_13  and  C_14
REMARK    6  A    between atoms: C_13  and  C_22
REMARK    7  A    between atoms: C_14  and  C_15
REMARK    8  A    between atoms: C_15  and  N_16
REMARK    9  A    between atoms: N_24  and  C_25
REMARK   10  A    between atoms: C_25  and  C_26
REMARK   11  A    between atoms: C_25  and  C_46
REMARK   12  A    between atoms: C_26  and  C_27
REMARK   13  A    between atoms: C_27  and  C_28
REMARK   14  A    between atoms: C_28  and  C_29
REMARK   15  A    between atoms: C_28  and  N_36
REMARK   16  A    between atoms: C_29  and  C_30
REMARK   17  A    between atoms: C_37  and  O_39
REMARK   18  A    between atoms: O_39  and  C_40
REMARK   19  A    between atoms: C_40  and  C_41
REMARK   20  A    between atoms: C_46  and  C_47
REMARK                            x       y       z     vdW  Elec       q    Type
REMARK                         _______ _______ _______ _____ _____    ______ ____
ROOT
ATOM      1  C   UNL     1      -9.121  13.172  67.452  0.00  0.00    +0.100 C 
ENDROOT
BRANCH   1   3
ATOM      2  C   UNL     1      -7.105  11.736  68.021  0.00  0.00    +0.261 C 
ATOM      3  N   UNL     1      -8.321  12.214  68.418  0.00  0.00    -0.205 NA
ATOM      4  O   UNL     1      -6.505  12.232  67.017  0.00  0.00    -0.271 OA
BRANCH   2   5
ATOM      5  C   UNL     1      -6.713  10.168  68.155  0.00  0.00    +0.176 C 
BRANCH   5   8
ATOM      6  N   UNL     1      -8.242   8.484  71.209  0.00  0.00    -0.255 N 
ATOM      7  C   UNL     1      -7.233   9.084  70.386  0.00  0.00    +0.324 C 
ATOM      8  N   UNL     1      -7.687   9.977  69.395  0.00  0.00    -0.181 NA
ATOM      9  O   UNL     1      -6.123   8.512  70.334  0.00  0.00    -0.251 OA
ATOM     10  C   UNL     1      -7.892   8.211  72.586  0.00  0.00    +0.117 C 
BRANCH   6  11
ATOM     11  C   UNL     1      -9.270   7.683  70.591  0.00  0.00    +0.141 C 
BRANCH  11  15
ATOM     12  C   UNL     1     -12.225   9.631  71.346  0.00  0.00    +0.088 A 
ATOM     13  S   UNL     1     -12.835   8.157  71.987  0.00  0.00    -0.071 S 
ATOM     14  C   UNL     1     -11.431   7.195  71.743  0.00  0.00    +0.053 A 
ATOM     15  C   UNL     1     -10.646   8.092  71.023  0.00  0.00    +0.086 A 
ATOM     16  N   UNL     1     -10.900   9.355  71.404  0.00  0.00    -0.245 NA
BRANCH  12  18
ATOM     17  C   UNL     1     -13.159  11.086  71.714  0.00  0.00    +0.007 C 
ATOM     18  C   UNL     1     -12.862  10.982  71.446  0.00  0.00    +0.047 C 
ATOM     19  C   UNL     1     -12.170  11.915  70.460  0.00  0.00    +0.007 C 
ENDBRANCH  12  18
ENDBRANCH  11  15
ENDBRANCH   6  11
ENDBRANCH   5   8
BRANCH   5  20
ATOM     20  C   UNL     1      -7.814   9.607  67.056  0.00  0.00    +0.048 C 
BRANCH  20  21
ATOM     21  C   UNL     1      -7.561   8.178  66.816  0.00  0.00    +0.075 C 
BRANCH  21  22
ATOM     22  N   UNL     1      -8.713   7.522  66.430  0.00  0.00    -0.268 NA
ATOM     23  C   UNL     1      -8.644   6.283  65.765  0.00  0.00    +0.105 C 
ATOM     24  C   UNL     1      -9.638   5.317  66.397  0.00  0.00    +0.159 C 
ATOM     25  O   UNL     1     -10.884   5.887  66.572  0.00  0.00    -0.351 OA
ATOM     26  C   UNL     1     -10.851   7.062  67.325  0.00  0.00    +0.159 C 
ATOM     27  C   UNL     1      -9.980   8.102  66.630  0.00  0.00    +0.105 C 
ENDBRANCH  21  22
ENDBRANCH  20  21
ENDBRANCH   5  20
ENDBRANCH   2   5
ENDBRANCH   1   3
BRANCH   1  28
ATOM     28  C   UNL     1      -9.726  14.041  68.717  0.00  0.00    +0.024 C 
BRANCH  28  29
ATOM     29  C   UNL     1      -9.965  15.350  67.970  0.00  0.00    +0.024 C 
BRANCH  29  30
ATOM     30  C   UNL     1     -10.545  16.318  69.173  0.00  0.00    +0.103 C 
BRANCH  30  31
ATOM     31  N   UNL     1     -10.955  17.441  68.140  0.00  0.00    -0.170 NA
ATOM     32  C   UNL     1     -10.013  18.516  68.238  0.00  0.00    +0.421 C 
ATOM     33  O   UNL     1      -9.757  19.046  69.361  0.00  0.00    -0.225 OA
BRANCH  32  34
ATOM     34  O   UNL     1      -9.579  19.256  67.142  0.00  0.00    -0.428 OA
BRANCH  34  35
ATOM     35  C   UNL     1      -8.562  18.773  66.264  0.00  0.00    +0.245 C 
BRANCH  35  36
ATOM     36  C   UNL     1      -7.383  19.666  66.498  0.00  0.00    +0.071 A 
ATOM     37  S   UNL     1      -5.720  19.465  66.124  0.00  0.00    -0.065 S 
ATOM     38  C   UNL     1      -5.134  20.921  66.824  0.00  0.00    +0.134 A 
ATOM     39  N   UNL     1      -6.307  21.572  67.022  0.00  0.00    -0.235 NA
ATOM     40  C   UNL     1      -7.280  20.734  67.384  0.00  0.00    +0.105 A 
ENDBRANCH  35  36
ENDBRANCH  34  35
ENDBRANCH  32  34
ENDBRANCH  30  31
BRANCH  30  41
ATOM     41  C   UNL     1     -12.035  15.614  69.101  0.00  0.00    +0.048 C 
BRANCH  41  42
ATOM     42  C   UNL     1     -12.523  15.592  70.500  0.00  0.00    -0.020 A 
ATOM     43  C   UNL     1     -11.615  15.908  71.487  0.00  0.00    -0.004 A 
ATOM     44  C   UNL     1     -11.912  15.706  72.818  0.00  0.00    -0.000 A 
ATOM     45  C   UNL     1     -13.077  15.075  73.156  0.00  0.00    -0.000 A 
ATOM     46  C   UNL     1     -13.985  14.720  72.183  0.00  0.00    -0.000 A 
ATOM     47  C   UNL     1     -13.750  15.128  70.889  0.00  0.00    -0.004 A 
ENDBRANCH  41  42
ENDBRANCH  30  41
ENDBRANCH  29  30
ENDBRANCH  28  29
ENDBRANCH   1  28
BRANCH   1  48
ATOM     48  C   UNL     1     -10.431  12.169  67.442  0.00  0.00    +0.048 C 
BRANCH  48  49
ATOM     49  C   UNL     1     -10.922  12.270  66.047  0.00  0.00    -0.020 A 
ATOM     50  C   UNL     1     -10.381  11.529  65.005  0.00  0.00    -0.004 A 
ATOM     51  C   UNL     1     -11.025  11.421  63.783  0.00  0.00    -0.000 A 
ATOM     52  C   UNL     1     -11.994  12.340  63.471  0.00  0.00    -0.000 A 
ATOM     53  C   UNL     1     -12.321  13.306  64.406  0.00  0.00    -0.000 A 
ATOM     54  C   UNL     1     -12.044  13.020  65.732  0.00  0.00    -0.004 A 
ENDBRANCH  48  49
ENDBRANCH   1  48
TORSDOF 20
ENDMDL
MODEL 2
REMARK VINA RESULT:      -7.3      1.198      1.942
REMARK  Name = 
REMARK  20 active torsions:
REMARK  status: ('A' for Active; 'I' for Inactive)
REMARK    1  A    between atoms: C_2  and  C_4
REMARK    2  A    between atoms: C_6  and  C_7
REMARK    3  A    between atoms: C_7  and  N_8
REMARK    4  A    between atoms: N_12  and  C_13
REMARK    5  A    between atoms: C_13  and  C_14
REMARK    6  A    between atoms: C_13  and  C_22
REMARK    7  A    between atoms: C_14  and  C_15
REMARK    8  A    between atoms: C_15  and  N_16
REMARK    9  A    between atoms: N_24  and  C_25
REMARK   10  A    between atoms: C_25  and  C_26
REMARK   11  A    between atoms: C_25  and  C_46
REMARK   12  A    between atoms: C_26  and  C_27
REMARK   13  A    between atoms: C_27  and  C_28
REMARK   14  A    between atoms: C_28  and  C_29
REMARK   15  A    between atoms: C_28  and  N_36
REMARK   16  A    between atoms: C_29  and  C_30
REMARK   17  A    between atoms: C_37  and  O_39
REMARK   18  A    between atoms: O_39  and  C_40
REMARK   19  A    between atoms: C_40  and  C_41
REMARK   20  A    between atoms: C_46  and  C_47
REMARK                            x       y       z     vdW  Elec       q    Type
REMARK                         _______ _______ _______ _____ _____    ______ ____
ROOT
ATOM      1  C   UNL     1      -9.559  13.092  67.402  0.00  0.00    +0.100 C 
ENDROOT
BRANCH   1   3
ATOM      2  C   UNL     1      -7.956  11.181  67.877  0.00  0.00    +0.261 C 
ATOM      3  N   UNL     1      -9.074  11.863  68.264  0.00  0.00    -0.205 NA
ATOM      4  O   UNL     1      -7.174  11.657  66.996  0.00  0.00    -0.271 OA
BRANCH   2   5
ATOM      5  C   UNL     1      -7.920   9.561  67.803  0.00  0.00    +0.176 C 
BRANCH   5   8
ATOM      6  N   UNL     1      -8.884   7.915  71.098  0.00  0.00    -0.255 N 
ATOM      7  C   UNL     1      -8.031   8.420  70.063  0.00  0.00    +0.324 C 
ATOM      8  N   UNL     1      -8.576   9.429  69.243  0.00  0.00    -0.181 NA
ATOM      9  O   UNL     1      -7.066   7.705  69.717  0.00  0.00    -0.251 OA
ATOM     10  C   UNL     1      -8.251   7.509  72.334  0.00  0.00    +0.117 C 
BRANCH   6  11
ATOM     11  C   UNL     1     -10.140   7.305  70.740  0.00  0.00    +0.141 C 
BRANCH  11  15
ATOM     12  C   UNL     1     -12.326  10.164  71.121  0.00  0.00    +0.088 A 
ATOM     13  S   UNL     1     -13.353   9.063  71.952  0.00  0.00    -0.071 S 
ATOM     14  C   UNL     1     -12.324   7.687  71.890  0.00  0.00    +0.053 A 
ATOM     15  C   UNL     1     -11.312   8.180  71.069  0.00  0.00    +0.086 A 
ATOM     16  N   UNL     1     -11.152   9.501  71.256  0.00  0.00    -0.245 NA
BRANCH  12  18
ATOM     17  C   UNL     1     -12.345  11.883  70.710  0.00  0.00    +0.007 C 
ATOM     18  C   UNL     1     -12.508  11.646  71.007  0.00  0.00    +0.047 C 
ATOM     19  C   UNL     1     -13.455  12.101  72.110  0.00  0.00    +0.007 C 
ENDBRANCH  12  18
ENDBRANCH  11  15
ENDBRANCH   6  11
ENDBRANCH   5   8
BRANCH   5  20
ATOM     20  C   UNL     1      -9.357   9.380  67.005  0.00  0.00    +0.048 C 
BRANCH  20  21
ATOM     21  C   UNL     1      -9.316   8.132  66.227  0.00  0.00    +0.075 C 
BRANCH  21  22
ATOM     22  N   UNL     1      -8.464   8.243  65.146  0.00  0.00    -0.268 NA
ATOM     23  C   UNL     1      -8.652   9.256  64.186  0.00  0.00    +0.105 C 
ATOM     24  C   UNL     1      -7.314   9.921  63.888  0.00  0.00    +0.159 C 
ATOM     25  O   UNL     1      -6.309   8.999  63.667  0.00  0.00    -0.351 OA
ATOM     26  C   UNL     1      -6.144   8.100  64.721  0.00  0.00    +0.159 C 
ATOM     27  C   UNL     1      -7.431   7.311  64.938  0.00  0.00    +0.105 C 
ENDBRANCH  21  22
ENDBRANCH  20  21
ENDBRANCH   5  20
ENDBRANCH   2   5
ENDBRANCH   1   3
BRANCH   1  28
ATOM     28  C   UNL     1      -9.767  14.028  68.744  0.00  0.00    +0.024 C 
BRANCH  28  29
ATOM     29  C   UNL     1      -9.944  15.367  68.034  0.00  0.00    +0.024 C 
BRANCH  29  30
ATOM     30  C   UNL     1     -10.521  16.316  69.253  0.00  0.00    +0.103 C 
BRANCH  30  31
ATOM     31  N   UNL     1     -10.994  17.426  68.233  0.00  0.00    -0.170 NA
ATOM     32  C   UNL     1     -10.069  18.518  68.286  0.00  0.00    +0.421 C 
ATOM     33  O   UNL     1      -9.775  19.059  69.395  0.00  0.00    -0.225 OA
BRANCH  32  34
ATOM     34  O   UNL     1      -9.694  19.259  67.169  0.00  0.00    -0.428 OA
BRANCH  34  35
ATOM     35  C   UNL     1      -8.743  18.768  66.225  0.00  0.00    +0.245 C 
BRANCH  35  36
ATOM     36  C   UNL     1      -7.577  19.702  66.316  0.00  0.00    +0.071 A 
ATOM     37  S   UNL     1      -6.132  19.801  65.396  0.00  0.00    -0.065 S 
ATOM     38  C   UNL     1      -5.382  21.085  66.256  0.00  0.00    +0.134 A 
ATOM     39  N   UNL     1      -6.436  21.522  66.990  0.00  0.00    -0.235 NA
ATOM     40  C   UNL     1      -7.210  20.510  67.388  0.00  0.00    +0.105 A 
ENDBRANCH  35  36
ENDBRANCH  34  35
ENDBRANCH  32  34
ENDBRANCH  30  31
BRANCH  30  41
ATOM     41  C   UNL     1     -11.990  15.566  69.221  0.00  0.00    +0.048 C 
BRANCH  41  42
ATOM     42  C   UNL     1     -12.408  15.467  70.639  0.00  0.00    -0.020 A 
ATOM     43  C   UNL     1     -13.759  15.382  70.891  0.00  0.00    -0.004 A 
ATOM     44  C   UNL     1     -14.253  15.504  72.173  0.00  0.00    -0.000 A 
ATOM     45  C   UNL     1     -13.401  15.830  73.191  0.00  0.00    -0.000 A 
ATOM     46  C   UNL     1     -12.048  15.952  72.955  0.00  0.00    -0.000 A 
ATOM     47  C   UNL     1     -11.568  15.616  71.710  0.00  0.00    -0.004 A 
ENDBRANCH  41  42
ENDBRANCH  30  41
ENDBRANCH  29  30
ENDBRANCH  28  29
ENDBRANCH   1  28
BRANCH   1  48
ATOM     48  C   UNL     1     -11.128  12.583  67.445  0.00  0.00    +0.048 C 
BRANCH  48  49
ATOM     49  C   UNL     1     -11.563  12.708  66.034  0.00  0.00    -0.020 A 
ATOM     50  C   UNL     1     -12.303  13.787  65.569  0.00  0.00    -0.004 A 
ATOM     51  C   UNL     1     -12.455  14.029  64.213  0.00  0.00    -0.000 A 
ATOM     52  C   UNL     1     -12.202  13.008  63.334  0.00  0.00    -0.000 A 
ATOM     53  C   UNL     1     -11.760  11.795  63.831  0.00  0.00    -0.000 A 
ATOM     54  C   UNL     1     -11.138  11.810  65.069  0.00  0.00    -0.004 A 
ENDBRANCH  48  49
ENDBRANCH   1  48
TORSDOF 20
ENDMDL
MODEL 3
REMARK VINA RESULT:      -7.0      2.627      6.228
REMARK  Name = 
REMARK  20 active torsions:
REMARK  status: ('A' for Active; 'I' for Inactive)
REMARK    1  A    between atoms: C_2  and  C_4
REMARK    2  A    between atoms: C_6  and  C_7
REMARK    3  A    between atoms: C_7  and  N_8
REMARK    4  A    between atoms: N_12  and  C_13
REMARK    5  A    between atoms: C_13  and  C_14
REMARK    6  A    between atoms: C_13  and  C_22
REMARK    7  A    between atoms: C_14  and  C_15
REMARK    8  A    between atoms: C_15  and  N_16
REMARK    9  A    between atoms: N_24  and  C_25
REMARK   10  A    between atoms: C_25  and  C_26
REMARK   11  A    between atoms: C_25  and  C_46
REMARK   12  A    between atoms: C_26  and  C_27
REMARK   13  A    between atoms: C_27  and  C_28
REMARK   14  A    between atoms: C_28  and  C_29
REMARK   15  A    between atoms: C_28  and  N_36
REMARK   16  A    between atoms: C_29  and  C_30
REMARK   17  A    between atoms: C_37  and  O_39
REMARK   18  A    between atoms: O_39  and  C_40
REMARK   19  A    between atoms: C_40  and  C_41
REMARK   20  A    between atoms: C_46  and  C_47
REMARK                            x       y       z     vdW  Elec       q    Type
REMARK                         _______ _______ _______ _____ _____    ______ ____
ROOT
ATOM      1  C   UNL     1     -11.898  13.151  68.923  0.00  0.00    +0.100 C 
ENDROOT
BRANCH   1   3
ATOM      2  C   UNL     1     -10.774  11.282  67.622  0.00  0.00    +0.261 C 
ATOM      3  N   UNL     1     -10.640  12.497  68.231  0.00  0.00    -0.205 NA
ATOM      4  O   UNL     1     -11.923  10.791  67.392  0.00  0.00    -0.271 OA
BRANCH   2   5
ATOM      5  C   UNL     1      -9.719  10.076  67.870  0.00  0.00    +0.176 C 
BRANCH   5   8
ATOM      6  N   UNL     1      -6.252  10.804  66.473  0.00  0.00    -0.255 N 
ATOM      7  C   UNL     1      -7.564  10.230  66.546  0.00  0.00    +0.324 C 
ATOM      8  N   UNL     1      -8.515  10.942  67.303  0.00  0.00    -0.181 NA
ATOM      9  O   UNL     1      -7.670   9.012  66.286  0.00  0.00    -0.251 OA
ATOM     10  C   UNL     1      -5.517  10.613  65.242  0.00  0.00    +0.117 C 
BRANCH   6  11
ATOM     11  C   UNL     1      -5.508  11.014  67.691  0.00  0.00    +0.141 C 
BRANCH  11  15
ATOM     12  C   UNL     1      -5.562  14.622  67.964  0.00  0.00    +0.088 A 
ATOM     13  S   UNL     1      -3.851  14.480  68.045  0.00  0.00    -0.071 S 
ATOM     14  C   UNL     1      -3.745  12.778  67.825  0.00  0.00    +0.053 A 
ATOM     15  C   UNL     1      -5.097  12.445  67.866  0.00  0.00    +0.086 A 
ATOM     16  N   UNL     1      -5.845  13.442  67.363  0.00  0.00    -0.245 NA
BRANCH  12  18
ATOM     17  C   UNL     1      -6.368  16.133  67.524  0.00  0.00    +0.007 C 
ATOM     18  C   UNL     1      -6.351  15.891  67.858  0.00  0.00    +0.047 C 
ATOM     19  C   UNL     1      -7.136  16.079  69.150  0.00  0.00    +0.007 C 
ENDBRANCH  12  18
ENDBRANCH  11  15
ENDBRANCH   6  11
ENDBRANCH   5   8
BRANCH   5  20
ATOM     20  C   UNL     1      -9.389  10.439  69.449  0.00  0.00    +0.048 C 
BRANCH  20  21
ATOM     21  C   UNL     1      -9.409   9.198  70.238  0.00  0.00    +0.075 C 
BRANCH  21  22
ATOM     22  N   UNL     1     -10.421   9.217  71.177  0.00  0.00    -0.268 NA
ATOM     23  C   UNL     1     -11.495  10.120  71.054  0.00  0.00    +0.105 C 
ATOM     24  C   UNL     1     -12.805   9.379  71.292  0.00  0.00    +0.159 C 
ATOM     25  O   UNL     1     -12.758   8.580  72.417  0.00  0.00    -0.351 OA
ATOM     26  C   UNL     1     -11.712   7.656  72.393  0.00  0.00    +0.159 C 
ATOM     27  C   UNL     1     -10.376   8.385  72.310  0.00  0.00    +0.105 C 
ENDBRANCH  21  22
ENDBRANCH  20  21
ENDBRANCH   5  20
ENDBRANCH   2   5
ENDBRANCH   1   3
BRANCH   1  28
ATOM     28  C   UNL     1     -12.138  14.177  67.654  0.00  0.00    +0.024 C 
BRANCH  28  29
ATOM     29  C   UNL     1     -10.726  14.752  67.585  0.00  0.00    +0.024 C 
BRANCH  29  30
ATOM     30  C   UNL     1     -10.759  15.541  66.137  0.00  0.00    +0.103 C 
BRANCH  30  31
ATOM     31  N   UNL     1      -9.650  16.562  66.612  0.00  0.00    -0.170 NA
ATOM     32  C   UNL     1     -10.192  17.886  66.545  0.00  0.00    +0.421 C 
ATOM     33  O   UNL     1     -10.728  18.309  65.476  0.00  0.00    -0.225 OA
BRANCH  32  34
ATOM     34  O   UNL     1      -9.896  18.882  67.471  0.00  0.00    -0.428 OA
BRANCH  34  35
ATOM     35  C   UNL     1      -9.357  20.143  67.073  0.00  0.00    +0.245 C 
BRANCH  35  36
ATOM     36  C   UNL     1      -7.873  19.949  67.056  0.00  0.00    +0.071 A 
ATOM     37  S   UNL     1      -6.725  19.891  68.331  0.00  0.00    -0.065 S 
ATOM     38  C   UNL     1      -5.306  19.727  67.376  0.00  0.00    +0.134 A 
ATOM     39  N   UNL     1      -5.866  19.435  66.176  0.00  0.00    -0.235 NA
ATOM     40  C   UNL     1      -7.000  20.111  65.984  0.00  0.00    +0.105 A 
ENDBRANCH  35  36
ENDBRANCH  34  35
ENDBRANCH  32  34
ENDBRANCH  30  31
BRANCH  30  41
ATOM     41  C   UNL     1      -9.637  14.520  65.489  0.00  0.00    +0.048 C 
BRANCH  41  42
ATOM     42  C   UNL     1     -10.403  13.606  64.611  0.00  0.00    -0.020 A 
ATOM     43  C   UNL     1     -11.649  14.026  64.202  0.00  0.00    -0.004 A 
ATOM     44  C   UNL     1     -12.518  13.163  63.568  0.00  0.00    -0.000 A 
ATOM     45  C   UNL     1     -12.184  11.843  63.449  0.00  0.00    -0.000 A 
ATOM     46  C   UNL     1     -10.955  11.394  63.881  0.00  0.00    -0.000 A 
ATOM     47  C   UNL     1     -10.034  12.322  64.313  0.00  0.00    -0.004 A 
ENDBRANCH  41  42
ENDBRANCH  30  41
ENDBRANCH  29  30
ENDBRANCH  28  29
ENDBRANCH   1  28
BRANCH   1  48
ATOM     48  C   UNL     1     -10.965  14.259  69.714  0.00  0.00    +0.048 C 
BRANCH  48  49
ATOM     49  C   UNL     1     -11.772  14.583  70.915  0.00  0.00    -0.020 A 
ATOM     50  C   UNL     1     -12.836  13.800  71.338  0.00  0.00    -0.004 A 
ATOM     51  C   UNL     1     -13.390  13.953  72.600  0.00  0.00    -0.000 A 
ATOM     52  C   UNL     1     -13.147  15.115  73.284  0.00  0.00    -0.000 A 
ATOM     53  C   UNL     1     -12.321  16.066  72.710  0.00  0.00    -0.000 A 
ATOM     54  C   UNL     1     -11.417  15.624  71.758  0.00  0.00    -0.004 A 
ENDBRANCH  48  49
ENDBRANCH   1  48
TORSDOF 20
ENDMDL
MODEL 4
REMARK VINA RESULT:      -7.0      2.295      3.763
REMARK  Name = 
REMARK  20 active torsions:
REMARK  status: ('A' for Active; 'I' for Inactive)
REMARK    1  A    between atoms: C_2  and  C_4
REMARK    2  A    between atoms: C_6  and  C_7
REMARK    3  A    between atoms: C_7  and  N_8
REMARK    4  A    between atoms: N_12  and  C_13
REMARK    5  A    between atoms: C_13  and  C_14
REMARK    6  A    between atoms: C_13  and  C_22
REMARK    7  A    between atoms: C_14  and  C_15
REMARK    8  A    between atoms: C_15  and  N_16
REMARK    9  A    between atoms: N_24  and  C_25
REMARK   10  A    between atoms: C_25  and  C_26
REMARK   11  A    between atoms: C_25  and  C_46
REMARK   12  A    between atoms: C_26  and  C_27
REMARK   13  A    between atoms: C_27  and  C_28
REMARK   14  A    between atoms: C_28  and  C_29
REMARK   15  A    between atoms: C_28  and  N_36
REMARK   16  A    between atoms: C_29  and  C_30
REMARK   17  A    between atoms: C_37  and  O_39
REMARK   18  A    between atoms: O_39  and  C_40
REMARK   19  A    between atoms: C_40  and  C_41
REMARK   20  A    between atoms: C_46  and  C_47
REMARK                            x       y       z     vdW  Elec       q    Type
REMARK                         _______ _______ _______ _____ _____    ______ ____
ROOT
ATOM      1  C   UNL     1      -9.796  11.972  67.731  0.00  0.00    +0.100 C 
ENDROOT
BRANCH   1   3
ATOM      2  C   UNL     1      -8.766  10.194  69.222  0.00  0.00    +0.261 C 
ATOM      3  N   UNL     1      -9.787  11.081  69.033  0.00  0.00    -0.205 NA
ATOM      4  O   UNL     1      -7.716  10.245  68.509  0.00  0.00    -0.271 OA
BRANCH   2   5
ATOM      5  C   UNL     1      -9.035   8.657  69.666  0.00  0.00    +0.176 C 
BRANCH   5   8
ATOM      6  N   UNL     1      -8.042   8.011  73.284  0.00  0.00    -0.255 N 
ATOM      7  C   UNL     1      -7.911   8.064  71.858  0.00  0.00    +0.324 C 
ATOM      8  N   UNL     1      -8.737   8.989  71.189  0.00  0.00    -0.181 NA
ATOM      9  O   UNL     1      -7.399   7.073  71.294  0.00  0.00    -0.251 OA
ATOM     10  C   UNL     1      -6.847   7.718  74.045  0.00  0.00    +0.117 C 
BRANCH   6  11
ATOM     11  C   UNL     1      -9.321   7.680  73.861  0.00  0.00    +0.141 C 
BRANCH  11  15
ATOM     12  C   UNL     1      -9.739   4.156  73.151  0.00  0.00    +0.088 A 
ATOM     13  S   UNL     1      -9.987   4.009  74.846  0.00  0.00    -0.071 S 
ATOM     14  C   UNL     1      -9.893   5.679  75.243  0.00  0.00    +0.053 A 
ATOM     15  C   UNL     1      -9.512   6.200  74.009  0.00  0.00    +0.086 A 
ATOM     16  N   UNL     1     -10.031   5.471  73.007  0.00  0.00    -0.245 NA
BRANCH  12  18
ATOM     17  C   UNL     1     -10.052   2.698  72.201  0.00  0.00    +0.007 C 
ATOM     18  C   UNL     1      -9.920   3.082  72.123  0.00  0.00    +0.047 C 
ATOM     19  C   UNL     1      -9.622   3.673  70.751  0.00  0.00    +0.007 C 
ENDBRANCH  12  18
ENDBRANCH  11  15
ENDBRANCH   6  11
ENDBRANCH   5   8
BRANCH   5  20
ATOM     20  C   UNL     1     -10.674   8.796  69.836  0.00  0.00    +0.048 C 
BRANCH  20  21
ATOM     21  C   UNL     1     -11.204   7.542  70.392  0.00  0.00    +0.075 C 
BRANCH  21  22
ATOM     22  N   UNL     1     -12.174   7.785  71.343  0.00  0.00    -0.268 NA
ATOM     23  C   UNL     1     -12.178   8.992  72.070  0.00  0.00    +0.105 C 
ATOM     24  C   UNL     1     -13.592   9.557  72.098  0.00  0.00    +0.159 C 
ATOM     25  O   UNL     1     -14.533   8.601  72.427  0.00  0.00    -0.351 OA
ATOM     26  C   UNL     1     -14.505   7.488  71.586  0.00  0.00    +0.159 C 
ATOM     27  C   UNL     1     -13.140   6.813  71.660  0.00  0.00    +0.105 C 
ENDBRANCH  21  22
ENDBRANCH  20  21
ENDBRANCH   5  20
ENDBRANCH   2   5
ENDBRANCH   1   3
BRANCH   1  28
ATOM     28  C   UNL     1     -10.654  13.165  68.480  0.00  0.00    +0.024 C 
BRANCH  28  29
ATOM     29  C   UNL     1      -9.535  14.199  68.568  0.00  0.00    +0.024 C 
BRANCH  29  30
ATOM     30  C   UNL     1     -10.303  15.458  69.305  0.00  0.00    +0.103 C 
BRANCH  30  31
ATOM     31  N   UNL     1     -10.809  16.026  67.920  0.00  0.00    -0.170 NA
ATOM     32  C   UNL     1     -10.289  17.350  67.753  0.00  0.00    +0.421 C 
ATOM     33  O   UNL     1     -10.456  18.225  68.656  0.00  0.00    -0.225 OA
BRANCH  32  34
ATOM     34  O   UNL     1      -9.880  17.864  66.525  0.00  0.00    -0.428 OA
BRANCH  34  35
ATOM     35  C   UNL     1      -9.903  19.264  66.251  0.00  0.00    +0.245 C 
BRANCH  35  36
ATOM     36  C   UNL     1      -8.495  19.728  66.454  0.00  0.00    +0.071 A 
ATOM     37  S   UNL     1      -7.012  19.162  65.801  0.00  0.00    -0.065 S 
ATOM     38  C   UNL     1      -5.953  20.218  66.647  0.00  0.00    +0.134 A 
ATOM     39  N   UNL     1      -6.852  21.110  67.133  0.00  0.00    -0.235 NA
ATOM     40  C   UNL     1      -7.993  20.515  67.487  0.00  0.00    +0.105 A 
ENDBRANCH  35  36
ENDBRANCH  34  35
ENDBRANCH  32  34
ENDBRANCH  30  31
BRANCH  30  41
ATOM     41  C   UNL     1     -11.678  14.571  69.519  0.00  0.00    +0.048 C 
BRANCH  41  42
ATOM     42  C   UNL     1     -12.359  15.184  70.683  0.00  0.00    -0.020 A 
ATOM     43  C   UNL     1     -11.560  15.721  71.668  0.00  0.00    -0.004 A 
ATOM     44  C   UNL     1     -12.090  16.115  72.879  0.00  0.00    -0.000 A 
ATOM     45  C   UNL     1     -13.406  15.862  73.148  0.00  0.00    -0.000 A 
ATOM     46  C   UNL     1     -14.217  15.296  72.188  0.00  0.00    -0.000 A 
ATOM     47  C   UNL     1     -13.705  15.112  70.924  0.00  0.00    -0.004 A 
ENDBRANCH  41  42
ENDBRANCH  30  41
ENDBRANCH  29  30
ENDBRANCH  28  29
ENDBRANCH   1  28
BRANCH   1  48
ATOM     48  C   UNL     1     -11.173  11.255  67.174  0.00  0.00    +0.048 C 
BRANCH  48  49
ATOM     49  C   UNL     1     -11.299  11.789  65.797  0.00  0.00    -0.020 A 
ATOM     50  C   UNL     1     -10.507  11.350  64.746  0.00  0.00    -0.004 A 
ATOM     51  C   UNL     1     -10.823  11.645  63.429  0.00  0.00    -0.000 A 
ATOM     52  C   UNL     1     -11.691  12.677  63.180  0.00  0.00    -0.000 A 
ATOM     53  C   UNL     1     -12.252  13.348  64.252  0.00  0.00    -0.000 A 
ATOM     54  C   UNL     1     -12.314  12.670  65.459  0.00  0.00    -0.004 A 
ENDBRANCH  48  49
ENDBRANCH   1  48
TORSDOF 20
ENDMDL
MODEL 5
REMARK VINA RESULT:      -7.0      2.198      5.676
REMARK  Name = 
REMARK  20 active torsions:
REMARK  status: ('A' for Active; 'I' for Inactive)
REMARK    1  A    between atoms: C_2  and  C_4
REMARK    2  A    between atoms: C_6  and  C_7
REMARK    3  A    between atoms: C_7  and  N_8
REMARK    4  A    between atoms: N_12  and  C_13
REMARK    5  A    between atoms: C_13  and  C_14
REMARK    6  A    between atoms: C_13  and  C_22
REMARK    7  A    between atoms: C_14  and  C_15
REMARK    8  A    between atoms: C_15  and  N_16
REMARK    9  A    between atoms: N_24  and  C_25
REMARK   10  A    between atoms: C_25  and  C_26
REMARK   11  A    between atoms: C_25  and  C_46
REMARK   12  A    between atoms: C_26  and  C_27
REMARK   13  A    between atoms: C_27  and  C_28
REMARK   14  A    between atoms: C_28  and  C_29
REMARK   15  A    between atoms: C_28  and  N_36
REMARK   16  A    between atoms: C_29  and  C_30
REMARK   17  A    between atoms: C_37  and  O_39
REMARK   18  A    between atoms: O_39  and  C_40
REMARK   19  A    between atoms: C_40  and  C_41
REMARK   20  A    between atoms: C_46  and  C_47
REMARK                            x       y       z     vdW  Elec       q    Type
REMARK                         _______ _______ _______ _____ _____    ______ ____
ROOT
ATOM      1  C   UNL     1     -11.576  14.218  68.832  0.00  0.00    +0.100 C 
ENDROOT
BRANCH   1   3
ATOM      2  C   UNL     1     -11.382  11.729  68.370  0.00  0.00    +0.261 C 
ATOM      3  N   UNL     1     -10.948  12.796  69.104  0.00  0.00    -0.205 NA
ATOM      4  O   UNL     1     -12.086  11.898  67.326  0.00  0.00    -0.271 OA
BRANCH   2   5
ATOM      5  C   UNL     1     -11.782  10.317  69.060  0.00  0.00    +0.176 C 
BRANCH   5   8
ATOM      6  N   UNL     1      -8.808   8.076  68.268  0.00  0.00    -0.255 N 
ATOM      7  C   UNL     1      -9.934   8.928  68.023  0.00  0.00    +0.324 C 
ATOM      8  N   UNL     1     -10.272   9.827  69.054  0.00  0.00    -0.181 NA
ATOM      9  O   UNL     1     -10.739   8.571  67.136  0.00  0.00    -0.251 OA
ATOM     10  C   UNL     1      -7.987   7.724  67.130  0.00  0.00    +0.117 C 
BRANCH   6  11
ATOM     11  C   UNL     1      -8.839   7.176  69.394  0.00  0.00    +0.141 C 
BRANCH  11  15
ATOM     12  C   UNL     1      -7.562   7.965  72.687  0.00  0.00    +0.088 A 
ATOM     13  S   UNL     1      -6.255   8.682  71.830  0.00  0.00    -0.071 S 
ATOM     14  C   UNL     1      -6.846   8.423  70.237  0.00  0.00    +0.053 A 
ATOM     15  C   UNL     1      -7.965   7.642  70.519  0.00  0.00    +0.086 A 
ATOM     16  N   UNL     1      -8.495   7.985  71.705  0.00  0.00    -0.245 NA
BRANCH  12  18
ATOM     17  C   UNL     1      -7.661   8.326  74.414  0.00  0.00    +0.007 C 
ATOM     18  C   UNL     1      -7.814   8.038  74.161  0.00  0.00    +0.047 C 
ATOM     19  C   UNL     1      -8.789   6.931  74.538  0.00  0.00    +0.007 C 
ENDBRANCH  12  18
ENDBRANCH  11  15
ENDBRANCH   6  11
ENDBRANCH   5   8
BRANCH   5  20
ATOM     20  C   UNL     1     -11.724  10.852  70.623  0.00  0.00    +0.048 C 
BRANCH  20  21
ATOM     21  C   UNL     1     -13.021  10.590  71.265  0.00  0.00    +0.075 C 
BRANCH  21  22
ATOM     22  N   UNL     1     -13.076   9.311  71.783  0.00  0.00    -0.268 NA
ATOM     23  C   UNL     1     -14.315   8.712  72.083  0.00  0.00    +0.105 C 
ATOM     24  C   UNL     1     -14.332   7.290  71.536  0.00  0.00    +0.159 C 
ATOM     25  O   UNL     1     -13.183   6.593  71.853  0.00  0.00    -0.351 OA
ATOM     26  C   UNL     1     -12.017   7.229  71.426  0.00  0.00    +0.159 C 
ATOM     27  C   UNL     1     -11.901   8.599  72.085  0.00  0.00    +0.105 C 
ENDBRANCH  21  22
ENDBRANCH  20  21
ENDBRANCH   5  20
ENDBRANCH   2   5
ENDBRANCH   1   3
BRANCH   1  28
ATOM     28  C   UNL     1     -10.343  14.635  67.819  0.00  0.00    +0.024 C 
BRANCH  28  29
ATOM     29  C   UNL     1     -10.856  16.019  67.431  0.00  0.00    +0.024 C 
BRANCH  29  30
ATOM     30  C   UNL     1     -10.648  16.004  65.795  0.00  0.00    +0.103 C 
BRANCH  30  31
ATOM     31  N   UNL     1      -9.340  16.883  65.902  0.00  0.00    -0.170 NA
ATOM     32  C   UNL     1      -9.718  18.224  66.236  0.00  0.00    +0.421 C 
ATOM     33  O   UNL     1     -10.586  18.838  65.545  0.00  0.00    -0.225 OA
BRANCH  32  34
ATOM     34  O   UNL     1      -8.973  19.042  67.080  0.00  0.00    -0.428 OA
BRANCH  34  35
ATOM     35  C   UNL     1      -8.296  18.524  68.225  0.00  0.00    +0.245 C 
BRANCH  35  36
ATOM     36  C   UNL     1      -7.136  19.444  68.446  0.00  0.00    +0.071 A 
ATOM     37  S   UNL     1      -6.091  19.642  69.793  0.00  0.00    -0.065 S 
ATOM     38  C   UNL     1      -5.151  20.946  69.184  0.00  0.00    +0.134 A 
ATOM     39  N   UNL     1      -5.531  20.917  67.882  0.00  0.00    -0.235 NA
ATOM     40  C   UNL     1      -6.822  20.609  67.753  0.00  0.00    +0.105 A 
ENDBRANCH  35  36
ENDBRANCH  34  35
ENDBRANCH  32  34
ENDBRANCH  30  31
BRANCH  30  41
ATOM     41  C   UNL     1      -9.789  14.598  65.858  0.00  0.00    +0.048 C 
BRANCH  41  42
ATOM     42  C   UNL     1     -10.435  13.701  64.871  0.00  0.00    -0.020 A 
ATOM     43  C   UNL     1     -11.659  14.093  64.374  0.00  0.00    -0.004 A 
ATOM     44  C   UNL     1     -12.431  13.231  63.624  0.00  0.00    -0.000 A 
ATOM     45  C   UNL     1     -12.029  11.934  63.469  0.00  0.00    -0.000 A 
ATOM     46  C   UNL     1     -10.822  11.512  63.985  0.00  0.00    -0.000 A 
ATOM     47  C   UNL     1      -9.985  12.451  64.543  0.00  0.00    -0.004 A 
ENDBRANCH  41  42
ENDBRANCH  30  41
ENDBRANCH  29  30
ENDBRANCH  28  29
ENDBRANCH   1  28
BRANCH   1  48
ATOM     48  C   UNL     1     -10.803  14.876  70.133  0.00  0.00    +0.048 C 
BRANCH  48  49
ATOM     49  C   UNL     1     -11.904  15.110  71.097  0.00  0.00    -0.020 A 
ATOM     50  C   UNL     1     -11.681  15.378  72.441  0.00  0.00    -0.004 A 
ATOM     51  C   UNL     1     -12.688  15.869  73.258  0.00  0.00    -0.000 A 
ATOM     52  C   UNL     1     -13.989  15.735  72.845  0.00  0.00    -0.000 A 
ATOM     53  C   UNL     1     -14.240  15.159  71.612  0.00  0.00    -0.000 A 
ATOM     54  C   UNL     1     -13.220  15.203  70.675  0.00  0.00    -0.004 A 
ENDBRANCH  48  49
ENDBRANCH   1  48
TORSDOF 20
ENDMDL
MODEL 6
REMARK VINA RESULT:      -6.9      2.297      5.640
REMARK  Name = 
REMARK  20 active torsions:
REMARK  status: ('A' for Active; 'I' for Inactive)
REMARK    1  A    between atoms: C_2  and  C_4
REMARK    2  A    between atoms: C_6  and  C_7
REMARK    3  A    between atoms: C_7  and  N_8
REMARK    4  A    between atoms: N_12  and  C_13
REMARK    5  A    between atoms: C_13  and  C_14
REMARK    6  A    between atoms: C_13  and  C_22
REMARK    7  A    between atoms: C_14  and  C_15
REMARK    8  A    between atoms: C_15  and  N_16
REMARK    9  A    between atoms: N_24  and  C_25
REMARK   10  A    between atoms: C_25  and  C_26
REMARK   11  A    between atoms: C_25  and  C_46
REMARK   12  A    between atoms: C_26  and  C_27
REMARK   13  A    between atoms: C_27  and  C_28
REMARK   14  A    between atoms: C_28  and  C_29
REMARK   15  A    between atoms: C_28  and  N_36
REMARK   16  A    between atoms: C_29  and  C_30
REMARK   17  A    between atoms: C_37  and  O_39
REMARK   18  A    between atoms: O_39  and  C_40
REMARK   19  A    between atoms: C_40  and  C_41
REMARK   20  A    between atoms: C_46  and  C_47
REMARK                            x       y       z     vdW  Elec       q    Type
REMARK                         _______ _______ _______ _____ _____    ______ ____
ROOT
ATOM      1  C   UNL     1     -11.869  13.014  69.012  0.00  0.00    +0.100 C 
ENDROOT
BRANCH   1   3
ATOM      2  C   UNL     1     -10.626  11.174  67.780  0.00  0.00    +0.261 C 
ATOM      3  N   UNL     1     -10.563  12.404  68.370  0.00  0.00    -0.205 NA
ATOM      4  O   UNL     1     -11.746  10.630  67.524  0.00  0.00    -0.271 OA
BRANCH   2   5
ATOM      5  C   UNL     1      -9.529  10.019  68.083  0.00  0.00    +0.176 C 
BRANCH   5   8
ATOM      6  N   UNL     1      -6.018  11.346  68.722  0.00  0.00    -0.255 N 
ATOM      7  C   UNL     1      -7.073  10.643  68.053  0.00  0.00    +0.324 C 
ATOM      8  N   UNL     1      -8.383  11.094  68.310  0.00  0.00    -0.181 NA
ATOM      9  O   UNL     1      -6.816   9.496  67.628  0.00  0.00    -0.251 OA
ATOM     10  C   UNL     1      -4.762  11.476  68.016  0.00  0.00    +0.117 C 
BRANCH   6  11
ATOM     11  C   UNL     1      -6.000  11.383  70.164  0.00  0.00    +0.141 C 
BRANCH  11  15
ATOM     12  C   UNL     1      -6.833   8.187  71.643  0.00  0.00    +0.088 A 
ATOM     13  S   UNL     1      -5.132   7.997  71.796  0.00  0.00    -0.071 S 
ATOM     14  C   UNL     1      -4.667   9.537  71.190  0.00  0.00    +0.053 A 
ATOM     15  C   UNL     1      -5.906  10.013  70.766  0.00  0.00    +0.086 A 
ATOM     16  N   UNL     1      -6.888   9.537  71.549  0.00  0.00    -0.245 NA
BRANCH  12  18
ATOM     17  C   UNL     1      -7.952   6.894  72.095  0.00  0.00    +0.007 C 
ATOM     18  C   UNL     1      -7.889   7.287  72.207  0.00  0.00    +0.047 C 
ATOM     19  C   UNL     1      -8.623   8.037  73.311  0.00  0.00    +0.007 C 
ENDBRANCH  12  18
ENDBRANCH  11  15
ENDBRANCH   6  11
ENDBRANCH   5   8
BRANCH   5  20
ATOM     20  C   UNL     1      -9.862   9.863  69.694  0.00  0.00    +0.048 C 
BRANCH  20  21
ATOM     21  C   UNL     1     -10.488   8.552  69.927  0.00  0.00    +0.075 C 
BRANCH  21  22
ATOM     22  N   UNL     1     -11.416   8.613  70.947  0.00  0.00    -0.268 NA
ATOM     23  C   UNL     1     -11.866   9.856  71.433  0.00  0.00    +0.105 C 
ATOM     24  C   UNL     1     -13.383   9.828  71.558  0.00  0.00    +0.159 C 
ATOM     25  O   UNL     1     -13.837   8.686  72.188  0.00  0.00    -0.351 OA
ATOM     26  C   UNL     1     -13.411   7.509  71.570  0.00  0.00    +0.159 C 
ATOM     27  C   UNL     1     -11.887   7.443  71.571  0.00  0.00    +0.105 C 
ENDBRANCH  21  22
ENDBRANCH  20  21
ENDBRANCH   5  20
ENDBRANCH   2   5
ENDBRANCH   1   3
BRANCH   1  28
ATOM     28  C   UNL     1     -12.189  13.905  67.661  0.00  0.00    +0.024 C 
BRANCH  28  29
ATOM     29  C   UNL     1     -10.875  14.679  67.610  0.00  0.00    +0.024 C 
BRANCH  29  30
ATOM     30  C   UNL     1     -10.957  15.377  66.118  0.00  0.00    +0.103 C 
BRANCH  30  31
ATOM     31  N   UNL     1      -9.932  16.504  66.533  0.00  0.00    -0.170 NA
ATOM     32  C   UNL     1     -10.489  17.777  66.185  0.00  0.00    +0.421 C 
ATOM     33  O   UNL     1     -10.906  17.996  65.007  0.00  0.00    -0.225 OA
BRANCH  32  34
ATOM     34  O   UNL     1     -10.322  18.924  66.957  0.00  0.00    -0.428 OA
BRANCH  34  35
ATOM     35  C   UNL     1      -9.518  20.017  66.514  0.00  0.00    +0.245 C 
BRANCH  35  36
ATOM     36  C   UNL     1      -8.319  20.013  67.411  0.00  0.00    +0.071 A 
ATOM     37  S   UNL     1      -6.781  20.758  67.247  0.00  0.00    -0.065 S 
ATOM     38  C   UNL     1      -6.057  20.141  68.678  0.00  0.00    +0.134 A 
ATOM     39  N   UNL     1      -7.158  19.656  69.306  0.00  0.00    -0.235 NA
ATOM     40  C   UNL     1      -8.023  19.125  68.440  0.00  0.00    +0.105 A 
ENDBRANCH  35  36
ENDBRANCH  34  35
ENDBRANCH  32  34
ENDBRANCH  30  31
BRANCH  30  41
ATOM     41  C   UNL     1      -9.757  14.407  65.533  0.00  0.00    +0.048 C 
BRANCH  41  42
ATOM     42  C   UNL     1     -10.434  13.459  64.618  0.00  0.00    -0.020 A 
ATOM     43  C   UNL     1     -11.654  13.842  64.106  0.00  0.00    -0.004 A 
ATOM     44  C   UNL     1     -12.452  12.948  63.425  0.00  0.00    -0.000 A 
ATOM     45  C   UNL     1     -12.082  11.634  63.359  0.00  0.00    -0.000 A 
ATOM     46  C   UNL     1     -10.880  11.222  63.894  0.00  0.00    -0.000 A 
ATOM     47  C   UNL     1     -10.015  12.178  64.376  0.00  0.00    -0.004 A 
ENDBRANCH  41  42
ENDBRANCH  30  41
ENDBRANCH  29  30
ENDBRANCH  28  29
ENDBRANCH   1  28
BRANCH   1  48
ATOM     48  C   UNL     1     -11.026  14.256  69.699  0.00  0.00    +0.048 C 
BRANCH  48  49
ATOM     49  C   UNL     1     -11.821  14.574  70.909  0.00  0.00    -0.020 A 
ATOM     50  C   UNL     1     -12.884  13.792  71.336  0.00  0.00    -0.004 A 
ATOM     51  C   UNL     1     -13.426  13.937  72.604  0.00  0.00    -0.000 A 
ATOM     52  C   UNL     1     -13.172  15.093  73.295  0.00  0.00    -0.000 A 
ATOM     53  C   UNL     1     -12.348  16.045  72.721  0.00  0.00    -0.000 A 
ATOM     54  C   UNL     1     -11.455  15.607  71.757  0.00  0.00    -0.004 A 
ENDBRANCH  48  49
ENDBRANCH   1  48
TORSDOF 20
ENDMDL
MODEL 7
REMARK VINA RESULT:      -6.9      3.217      7.299
REMARK  Name = 
REMARK  20 active torsions:
REMARK  status: ('A' for Active; 'I' for Inactive)
REMARK    1  A    between atoms: C_2  and  C_4
REMARK    2  A    between atoms: C_6  and  C_7
REMARK    3  A    between atoms: C_7  and  N_8
REMARK    4  A    between atoms: N_12  and  C_13
REMARK    5  A    between atoms: C_13  and  C_14
REMARK    6  A    between atoms: C_13  and  C_22
REMARK    7  A    between atoms: C_14  and  C_15
REMARK    8  A    between atoms: C_15  and  N_16
REMARK    9  A    between atoms: N_24  and  C_25
REMARK   10  A    between atoms: C_25  and  C_26
REMARK   11  A    between atoms: C_25  and  C_46
REMARK   12  A    between atoms: C_26  and  C_27
REMARK   13  A    between atoms: C_27  and  C_28
REMARK   14  A    between atoms: C_28  and  C_29
REMARK   15  A    between atoms: C_28  and  N_36
REMARK   16  A    between atoms: C_29  and  C_30
REMARK   17  A    between atoms: C_37  and  O_39
REMARK   18  A    between atoms: O_39  and  C_40
REMARK   19  A    between atoms: C_40  and  C_41
REMARK   20  A    between atoms: C_46  and  C_47
REMARK                            x       y       z     vdW  Elec       q    Type
REMARK                         _______ _______ _______ _____ _____    ______ ____
ROOT
ATOM      1  C   UNL     1      -8.082  15.686  66.865  0.00  0.00    +0.100 C 
ENDROOT
BRANCH   1   3
ATOM      2  C   UNL     1      -9.643  13.733  66.419  0.00  0.00    +0.261 C 
ATOM      3  N   UNL     1      -8.552  14.198  67.097  0.00  0.00    -0.205 NA
ATOM      4  O   UNL     1     -10.129  14.383  65.441  0.00  0.00    -0.271 OA
BRANCH   2   5
ATOM      5  C   UNL     1     -10.833  12.918  67.161  0.00  0.00    +0.176 C 
BRANCH   5   8
ATOM      6  N   UNL     1      -9.765   9.537  68.548  0.00  0.00    -0.255 N 
ATOM      7  C   UNL     1     -10.465  10.474  67.720  0.00  0.00    +0.324 C 
ATOM      8  N   UNL     1      -9.851  11.730  67.542  0.00  0.00    -0.181 NA
ATOM      9  O   UNL     1     -11.688  10.280  67.544  0.00  0.00    -0.251 OA
ATOM     10  C   UNL     1      -9.880   8.137  68.202  0.00  0.00    +0.117 C 
BRANCH   6  11
ATOM     11  C   UNL     1      -9.484   9.883  69.919  0.00  0.00    +0.141 C 
BRANCH  11  15
ATOM     12  C   UNL     1     -12.329   8.653  71.787  0.00  0.00    +0.088 A 
ATOM     13  S   UNL     1     -11.153   7.790  72.697  0.00  0.00    -0.071 S 
ATOM     14  C   UNL     1      -9.751   8.405  71.915  0.00  0.00    +0.053 A 
ATOM     15  C   UNL     1     -10.348   9.129  70.885  0.00  0.00    +0.086 A 
ATOM     16  N   UNL     1     -11.533   9.624  71.278  0.00  0.00    -0.245 NA
BRANCH  12  18
ATOM     17  C   UNL     1     -13.976   9.096  72.252  0.00  0.00    +0.007 C 
ATOM     18  C   UNL     1     -13.792   8.764  72.089  0.00  0.00    +0.047 C 
ATOM     19  C   UNL     1     -14.478   7.488  71.619  0.00  0.00    +0.007 C 
ENDBRANCH  12  18
ENDBRANCH  11  15
ENDBRANCH   6  11
ENDBRANCH   5   8
BRANCH   5  20
ATOM     20  C   UNL     1     -10.683  13.666  68.628  0.00  0.00    +0.048 C 
BRANCH  20  21
ATOM     21  C   UNL     1     -11.695  13.121  69.546  0.00  0.00    +0.075 C 
BRANCH  21  22
ATOM     22  N   UNL     1     -12.291  14.122  70.288  0.00  0.00    -0.268 NA
ATOM     23  C   UNL     1     -13.168  13.806  71.343  0.00  0.00    +0.105 C 
ATOM     24  C   UNL     1     -12.813  14.648  72.562  0.00  0.00    +0.159 C 
ATOM     25  O   UNL     1     -12.638  15.981  72.244  0.00  0.00    -0.351 OA
ATOM     26  C   UNL     1     -11.678  16.189  71.253  0.00  0.00    +0.159 C 
ATOM     27  C   UNL     1     -12.091  15.478  69.970  0.00  0.00    +0.105 C 
ENDBRANCH  21  22
ENDBRANCH  20  21
ENDBRANCH   5  20
ENDBRANCH   2   5
ENDBRANCH   1   3
BRANCH   1  28
ATOM     28  C   UNL     1      -6.698  15.447  67.730  0.00  0.00    +0.024 C 
BRANCH  28  29
ATOM     29  C   UNL     1      -7.065  16.297  68.943  0.00  0.00    +0.024 C 
BRANCH  29  30
ATOM     30  C   UNL     1      -5.584  16.832  69.434  0.00  0.00    +0.103 C 
BRANCH  30  31
ATOM     31  N   UNL     1      -4.997  15.366  69.431  0.00  0.00    -0.170 NA
ATOM     32  C   UNL     1      -4.218  15.185  70.619  0.00  0.00    +0.421 C 
ATOM     33  O   UNL     1      -3.301  16.008  70.918  0.00  0.00    -0.225 OA
BRANCH  32  34
ATOM     34  O   UNL     1      -4.167  13.987  71.327  0.00  0.00    -0.428 OA
BRANCH  34  35
ATOM     35  C   UNL     1      -4.053  13.959  72.750  0.00  0.00    +0.245 C 
BRANCH  35  36
ATOM     36  C   UNL     1      -4.365  12.548  73.142  0.00  0.00    +0.071 A 
ATOM     37  S   UNL     1      -4.365  11.774  74.674  0.00  0.00    -0.065 S 
ATOM     38  C   UNL     1      -4.752  10.185  74.145  0.00  0.00    +0.134 A 
ATOM     39  N   UNL     1      -5.137  10.451  72.872  0.00  0.00    -0.235 NA
ATOM     40  C   UNL     1      -4.400  11.421  72.327  0.00  0.00    +0.105 A 
ENDBRANCH  35  36
ENDBRANCH  34  35
ENDBRANCH  32  34
ENDBRANCH  30  31
BRANCH  30  41
ATOM     41  C   UNL     1      -5.101  17.100  67.880  0.00  0.00    +0.048 C 
BRANCH  41  42
ATOM     42  C   UNL     1      -5.517  18.490  67.576  0.00  0.00    -0.020 A 
ATOM     43  C   UNL     1      -5.508  19.390  68.619  0.00  0.00    -0.004 A 
ATOM     44  C   UNL     1      -6.078  20.638  68.486  0.00  0.00    -0.000 A 
ATOM     45  C   UNL     1      -6.766  20.942  67.345  0.00  0.00    -0.000 A 
ATOM     46  C   UNL     1      -6.816  20.044  66.301  0.00  0.00    -0.000 A 
ATOM     47  C   UNL     1      -6.058  18.897  66.387  0.00  0.00    -0.004 A 
ENDBRANCH  41  42
ENDBRANCH  30  41
ENDBRANCH  29  30
ENDBRANCH  28  29
ENDBRANCH   1  28
BRANCH   1  48
ATOM     48  C   UNL     1      -8.891  16.216  68.202  0.00  0.00    +0.048 C 
BRANCH  48  49
ATOM     49  C   UNL     1      -9.497  17.490  67.747  0.00  0.00    -0.020 A 
ATOM     50  C   UNL     1      -9.807  18.526  68.617  0.00  0.00    -0.004 A 
ATOM     51  C   UNL     1     -10.102  19.798  68.152  0.00  0.00    -0.000 A 
ATOM     52  C   UNL     1     -10.457  19.947  66.836  0.00  0.00    -0.000 A 
ATOM     53  C   UNL     1     -10.460  18.832  66.016  0.00  0.00    -0.000 A 
ATOM     54  C   UNL     1      -9.664  17.765  66.400  0.00  0.00    -0.004 A 
ENDBRANCH  48  49
ENDBRANCH   1  48
TORSDOF 20
ENDMDL
MODEL 8
REMARK VINA RESULT:      -6.8      2.495      5.861
REMARK  Name = 
REMARK  20 active torsions:
REMARK  status: ('A' for Active; 'I' for Inactive)
REMARK    1  A    between atoms: C_2  and  C_4
REMARK    2  A    between atoms: C_6  and  C_7
REMARK    3  A    between atoms: C_7  and  N_8
REMARK    4  A    between atoms: N_12  and  C_13
REMARK    5  A    between atoms: C_13  and  C_14
REMARK    6  A    between atoms: C_13  and  C_22
REMARK    7  A    between atoms: C_14  and  C_15
REMARK    8  A    between atoms: C_15  and  N_16
REMARK    9  A    between atoms: N_24  and  C_25
REMARK   10  A    between atoms: C_25  and  C_26
REMARK   11  A    between atoms: C_25  and  C_46
REMARK   12  A    between atoms: C_26  and  C_27
REMARK   13  A    between atoms: C_27  and  C_28
REMARK   14  A    between atoms: C_28  and  C_29
REMARK   15  A    between atoms: C_28  and  N_36
REMARK   16  A    between atoms: C_29  and  C_30
REMARK   17  A    between atoms: C_37  and  O_39
REMARK   18  A    between atoms: O_39  and  C_40
REMARK   19  A    between atoms: C_40  and  C_41
REMARK   20  A    between atoms: C_46  and  C_47
REMARK                            x       y       z     vdW  Elec       q    Type
REMARK                         _______ _______ _______ _____ _____    ______ ____
ROOT
ATOM      1  C   UNL     1     -11.382  14.325  68.742  0.00  0.00    +0.100 C 
ENDROOT
BRANCH   1   3
ATOM      2  C   UNL     1     -11.283  11.878  68.071  0.00  0.00    +0.261 C 
ATOM      3  N   UNL     1     -10.714  12.896  68.781  0.00  0.00    -0.205 NA
ATOM      4  O   UNL     1     -12.179  12.111  67.200  0.00  0.00    -0.271 OA
BRANCH   2   5
ATOM      5  C   UNL     1     -11.540  10.415  68.722  0.00  0.00    +0.176 C 
BRANCH   5   8
ATOM      6  N   UNL     1      -8.428   8.235  68.475  0.00  0.00    -0.255 N 
ATOM      7  C   UNL     1      -9.675   8.823  68.083  0.00  0.00    +0.324 C 
ATOM      8  N   UNL     1      -9.993  10.063  68.671  0.00  0.00    -0.181 NA
ATOM      9  O   UNL     1     -10.534   8.063  67.584  0.00  0.00    -0.251 OA
ATOM     10  C   UNL     1      -7.719   7.466  67.476  0.00  0.00    +0.117 C 
BRANCH   6  11
ATOM     11  C   UNL     1      -8.202   7.927  69.865  0.00  0.00    +0.141 C 
BRANCH  11  15
ATOM     12  C   UNL     1      -8.439   4.316  69.834  0.00  0.00    +0.088 A 
ATOM     13  S   UNL     1      -7.084   4.379  70.891  0.00  0.00    -0.071 S 
ATOM     14  C   UNL     1      -6.971   6.089  71.026  0.00  0.00    +0.053 A 
ATOM     15  C   UNL     1      -7.928   6.470  70.087  0.00  0.00    +0.086 A 
ATOM     16  N   UNL     1      -8.921   5.566  70.031  0.00  0.00    -0.245 NA
BRANCH  12  18
ATOM     17  C   UNL     1      -9.392   2.830  69.737  0.00  0.00    +0.007 C 
ATOM     18  C   UNL     1      -9.233   3.100  69.468  0.00  0.00    +0.047 C 
ATOM     19  C   UNL     1      -9.420   3.084  67.956  0.00  0.00    +0.007 C 
ENDBRANCH  12  18
ENDBRANCH  11  15
ENDBRANCH   6  11
ENDBRANCH   5   8
BRANCH   5  20
ATOM     20  C   UNL     1     -11.496  10.903  70.300  0.00  0.00    +0.048 C 
BRANCH  20  21
ATOM     21  C   UNL     1     -12.800  10.624  70.922  0.00  0.00    +0.075 C 
BRANCH  21  22
ATOM     22  N   UNL     1     -12.814   9.380  71.520  0.00  0.00    -0.268 NA
ATOM     23  C   UNL     1     -14.002   8.867  72.079  0.00  0.00    +0.105 C 
ATOM     24  C   UNL     1     -14.184   7.422  71.634  0.00  0.00    +0.159 C 
ATOM     25  O   UNL     1     -13.028   6.680  71.779  0.00  0.00    -0.351 OA
ATOM     26  C   UNL     1     -11.934   7.227  71.107  0.00  0.00    +0.159 C 
ATOM     27  C   UNL     1     -11.636   8.621  71.647  0.00  0.00    +0.105 C 
ENDBRANCH  21  22
ENDBRANCH  20  21
ENDBRANCH   5  20
ENDBRANCH   2   5
ENDBRANCH   1   3
BRANCH   1  28
ATOM     28  C   UNL     1     -10.140  14.948  67.854  0.00  0.00    +0.024 C 
BRANCH  28  29
ATOM     29  C   UNL     1     -10.781  16.292  67.519  0.00  0.00    +0.024 C 
BRANCH  29  30
ATOM     30  C   UNL     1     -10.755  16.270  65.870  0.00  0.00    +0.103 C 
BRANCH  30  31
ATOM     31  N   UNL     1      -9.517  17.251  65.827  0.00  0.00    -0.170 NA
ATOM     32  C   UNL     1      -9.987  18.588  66.032  0.00  0.00    +0.421 C 
ATOM     33  O   UNL     1     -10.924  19.056  65.317  0.00  0.00    -0.225 OA
BRANCH  32  34
ATOM     34  O   UNL     1      -9.280  19.547  66.751  0.00  0.00    -0.428 OA
BRANCH  34  35
ATOM     35  C   UNL     1      -9.256  19.550  68.178  0.00  0.00    +0.245 C 
BRANCH  35  36
ATOM     36  C   UNL     1      -7.863  19.147  68.550  0.00  0.00    +0.071 A 
ATOM     37  S   UNL     1      -6.379  20.007  68.477  0.00  0.00    -0.065 S 
ATOM     38  C   UNL     1      -5.340  18.746  69.010  0.00  0.00    +0.134 A 
ATOM     39  N   UNL     1      -6.261  17.868  69.480  0.00  0.00    -0.235 NA
ATOM     40  C   UNL     1      -7.362  17.861  68.726  0.00  0.00    +0.105 A 
ENDBRANCH  35  36
ENDBRANCH  34  35
ENDBRANCH  32  34
ENDBRANCH  30  31
BRANCH  30  41
ATOM     41  C   UNL     1      -9.784  14.936  65.845  0.00  0.00    +0.048 C 
BRANCH  41  42
ATOM     42  C   UNL     1     -10.428  14.005  64.889  0.00  0.00    -0.020 A 
ATOM     43  C   UNL     1     -11.702  14.318  64.468  0.00  0.00    -0.004 A 
ATOM     44  C   UNL     1     -12.459  13.411  63.756  0.00  0.00    -0.000 A 
ATOM     45  C   UNL     1     -11.983  12.144  63.567  0.00  0.00    -0.000 A 
ATOM     46  C   UNL     1     -10.724  11.799  64.008  0.00  0.00    -0.000 A 
ATOM     47  C   UNL     1      -9.918  12.788  64.525  0.00  0.00    -0.004 A 
ENDBRANCH  41  42
ENDBRANCH  30  41
ENDBRANCH  29  30
ENDBRANCH  28  29
ENDBRANCH   1  28
BRANCH   1  48
ATOM     48  C   UNL     1     -10.664  14.768  70.160  0.00  0.00    +0.048 C 
BRANCH  48  49
ATOM     49  C   UNL     1     -11.815  15.118  71.027  0.00  0.00    -0.020 A 
ATOM     50  C   UNL     1     -13.128  15.085  70.580  0.00  0.00    -0.004 A 
ATOM     51  C   UNL     1     -14.195  15.136  71.464  0.00  0.00    -0.000 A 
ATOM     52  C   UNL     1     -13.969  15.598  72.735  0.00  0.00    -0.000 A 
ATOM     53  C   UNL     1     -12.680  15.948  73.097  0.00  0.00    -0.000 A 
ATOM     54  C   UNL     1     -11.645  15.374  72.378  0.00  0.00    -0.004 A 
ENDBRANCH  48  49
ENDBRANCH   1  48
TORSDOF 20
ENDMDL
MODEL 9
REMARK VINA RESULT:      -6.8      2.575      8.647
REMARK  Name = 
REMARK  20 active torsions:
REMARK  status: ('A' for Active; 'I' for Inactive)
REMARK    1  A    between atoms: C_2  and  C_4
REMARK    2  A    between atoms: C_6  and  C_7
REMARK    3  A    between atoms: C_7  and  N_8
REMARK    4  A    between atoms: N_12  and  C_13
REMARK    5  A    between atoms: C_13  and  C_14
REMARK    6  A    between atoms: C_13  and  C_22
REMARK    7  A    between atoms: C_14  and  C_15
REMARK    8  A    between atoms: C_15  and  N_16
REMARK    9  A    between atoms: N_24  and  C_25
REMARK   10  A    between atoms: C_25  and  C_26
REMARK   11  A    between atoms: C_25  and  C_46
REMARK   12  A    between atoms: C_26  and  C_27
REMARK   13  A    between atoms: C_27  and  C_28
REMARK   14  A    between atoms: C_28  and  C_29
REMARK   15  A    between atoms: C_28  and  N_36
REMARK   16  A    between atoms: C_29  and  C_30
REMARK   17  A    between atoms: C_37  and  O_39
REMARK   18  A    between atoms: O_39  and  C_40
REMARK   19  A    between atoms: C_40  and  C_41
REMARK   20  A    between atoms: C_46  and  C_47
REMARK                            x       y       z     vdW  Elec       q    Type
REMARK                         _______ _______ _______ _____ _____    ______ ____
ROOT
ATOM      1  C   UNL     1     -11.729  12.046  67.336  0.00  0.00    +0.100 C 
ENDROOT
BRANCH   1   3
ATOM      2  C   UNL     1     -11.148  14.461  67.861  0.00  0.00    +0.261 C 
ATOM      3  N   UNL     1     -11.363  13.202  68.345  0.00  0.00    -0.205 NA
ATOM      4  O   UNL     1     -11.472  14.767  66.671  0.00  0.00    -0.271 OA
BRANCH   2   5
ATOM      5  C   UNL     1      -9.864  15.345  68.308  0.00  0.00    +0.176 C 
BRANCH   5   8
ATOM      6  N   UNL     1     -10.442  18.850  66.938  0.00  0.00    -0.255 N 
ATOM      7  C   UNL     1     -10.170  17.443  66.920  0.00  0.00    +0.324 C 
ATOM      8  N   UNL     1     -10.635  16.704  68.026  0.00  0.00    -0.181 NA
ATOM      9  O   UNL     1      -9.249  17.049  66.173  0.00  0.00    -0.251 OA
ATOM     10  C   UNL     1     -10.687  19.491  65.665  0.00  0.00    +0.117 C 
BRANCH   6  11
ATOM     11  C   UNL     1      -9.928  19.653  68.021  0.00  0.00    +0.141 C 
BRANCH  11  15
ATOM     12  C   UNL     1      -6.563  18.857  69.089  0.00  0.00    +0.088 A 
ATOM     13  S   UNL     1      -6.087  19.986  67.882  0.00  0.00    -0.071 S 
ATOM     14  C   UNL     1      -7.658  20.480  67.389  0.00  0.00    +0.053 A 
ATOM     15  C   UNL     1      -8.434  19.583  68.120  0.00  0.00    +0.086 A 
ATOM     16  N   UNL     1      -7.836  19.279  69.284  0.00  0.00    -0.245 NA
BRANCH  12  18
ATOM     17  C   UNL     1      -5.566  17.800  70.095  0.00  0.00    +0.007 C 
ATOM     18  C   UNL     1      -5.676  18.198  70.099  0.00  0.00    +0.047 C 
ATOM     19  C   UNL     1      -5.188  19.260  71.077  0.00  0.00    +0.007 C 
ENDBRANCH  12  18
ENDBRANCH  11  15
ENDBRANCH   6  11
ENDBRANCH   5   8
BRANCH   5  20
ATOM     20  C   UNL     1     -10.200  15.356  69.927  0.00  0.00    +0.048 C 
BRANCH  20  21
ATOM     21  C   UNL     1     -11.252  16.350  70.189  0.00  0.00    +0.075 C 
BRANCH  21  22
ATOM     22  N   UNL     1     -12.138  15.902  71.148  0.00  0.00    -0.268 NA
ATOM     23  C   UNL     1     -13.243  15.107  70.787  0.00  0.00    +0.105 C 
ATOM     24  C   UNL     1     -13.344  13.924  71.742  0.00  0.00    +0.159 C 
ATOM     25  O   UNL     1     -13.228  14.307  73.064  0.00  0.00    -0.351 OA
ATOM     26  C   UNL     1     -12.051  15.007  73.333  0.00  0.00    +0.159 C 
ATOM     27  C   UNL     1     -12.001  16.281  72.496  0.00  0.00    +0.105 C 
ENDBRANCH  21  22
ENDBRANCH  20  21
ENDBRANCH   5  20
ENDBRANCH   2   5
ENDBRANCH   1   3
BRANCH   1  28
ATOM     28  C   UNL     1     -11.964  10.968  68.562  0.00  0.00    +0.024 C 
BRANCH  28  29
ATOM     29  C   UNL     1     -10.517  10.882  69.039  0.00  0.00    +0.024 C 
BRANCH  29  30
ATOM     30  C   UNL     1     -10.486   9.388  69.738  0.00  0.00    +0.103 C 
BRANCH  30  31
ATOM     31  N   UNL     1      -8.995   9.590  70.220  0.00  0.00    -0.170 NA
ATOM     32  C   UNL     1      -8.125   8.917  69.303  0.00  0.00    +0.421 C 
ATOM     33  O   UNL     1      -8.316   7.697  69.012  0.00  0.00    -0.225 OA
BRANCH  32  34
ATOM     34  O   UNL     1      -6.875   9.406  68.934  0.00  0.00    -0.428 OA
BRANCH  34  35
ATOM     35  C   UNL     1      -6.731  10.479  68.003  0.00  0.00    +0.245 C 
BRANCH  35  36
ATOM     36  C   UNL     1      -6.453  11.690  68.838  0.00  0.00    +0.071 A 
ATOM     37  S   UNL     1      -5.627  11.868  70.332  0.00  0.00    -0.065 S 
ATOM     38  C   UNL     1      -5.880  13.553  70.552  0.00  0.00    +0.134 A 
ATOM     39  N   UNL     1      -6.323  13.886  69.314  0.00  0.00    -0.235 NA
ATOM     40  C   UNL     1      -7.089  12.927  68.791  0.00  0.00    +0.105 A 
ENDBRANCH  35  36
ENDBRANCH  34  35
ENDBRANCH  32  34
ENDBRANCH  30  31
BRANCH  30  41
ATOM     41  C   UNL     1     -11.094   9.974  71.155  0.00  0.00    +0.048 C 
BRANCH  41  42
ATOM     42  C   UNL     1     -12.170   9.031  71.537  0.00  0.00    -0.020 A 
ATOM     43  C   UNL     1     -11.926   7.689  71.347  0.00  0.00    -0.004 A 
ATOM     44  C   UNL     1     -12.935   6.757  71.468  0.00  0.00    -0.000 A 
ATOM     45  C   UNL     1     -14.220   7.183  71.663  0.00  0.00    -0.000 A 
ATOM     46  C   UNL     1     -14.492   8.524  71.823  0.00  0.00    -0.000 A 
ATOM     47  C   UNL     1     -13.434   9.402  71.908  0.00  0.00    -0.004 A 
ENDBRANCH  41  42
ENDBRANCH  30  41
ENDBRANCH  29  30
ENDBRANCH  28  29
ENDBRANCH   1  28
BRANCH   1  48
ATOM     48  C   UNL     1     -10.148  11.601  67.174  0.00  0.00    +0.048 C 
BRANCH  48  49
ATOM     49  C   UNL     1     -10.018  11.341  65.720  0.00  0.00    -0.020 A 
ATOM     50  C   UNL     1      -9.031  10.523  65.190  0.00  0.00    -0.004 A 
ATOM     51  C   UNL     1      -9.093  10.067  63.882  0.00  0.00    -0.000 A 
ATOM     52  C   UNL     1      -9.917  10.719  63.001  0.00  0.00    -0.000 A 
ATOM     53  C   UNL     1     -10.686  11.773  63.464  0.00  0.00    -0.000 A 
ATOM     54  C   UNL     1     -10.965  11.802  64.820  0.00  0.00    -0.004 A 
ENDBRANCH  48  49
ENDBRANCH   1  48
TORSDOF 20
ENDMDL
