MODEL 1
REMARK VINA RESULT:      -7.1      0.000      0.000
REMARK  Name = 
REMARK  10 active torsions:
REMARK  status: ('A' for Active; 'I' for Inactive)
REMARK    1  A    between atoms: C_2  and  C_3
REMARK    2  A    between atoms: C_3  and  N_4
REMARK    3  A    between atoms: N_4  and  S_5
REMARK    4  A    between atoms: S_5  and  N_8
REMARK    5  A    between atoms: C_13  and  O_14
REMARK    6  A    between atoms: O_14  and  C_15
REMARK    7  A    between atoms: C_15  and  C_16
REMARK    8  A    between atoms: C_16  and  O_17
REMARK    9  A    between atoms: O_17  and  C_18
REMARK   10  A    between atoms: C_25  and  C_26
REMARK                            x       y       z     vdW  Elec       q    Type
REMARK                         _______ _______ _______ _____ _____    ______ ____
ROOT
ATOM      1  N   UNL     1      -9.996  16.134  67.584  0.00  0.00    -0.065 NA
ATOM      2  C   UNL     1     -11.174  15.523  68.127  0.00  0.00    +0.179 A 
ATOM      3  C   UNL     1     -11.107  14.145  68.287  0.00  0.00    +0.088 A 
ATOM      4  C   UNL     1     -11.696  13.480  69.342  0.00  0.00    +0.229 A 
ATOM      5  N   UNL     1     -12.354  14.224  70.238  0.00  0.00    -0.189 NA
ATOM      6  C   UNL     1     -12.406  15.573  70.145  0.00  0.00    +0.203 A 
ATOM      7  N   UNL     1     -11.771  16.211  69.131  0.00  0.00    -0.205 NA
ENDROOT
BRANCH   3   8
ATOM      8  C   UNL     1     -10.772  13.408  67.061  0.00  0.00    +0.007 A 
ATOM      9  C   UNL     1     -11.864  12.954  66.329  0.00  0.00    +0.001 A 
ATOM     10  C   UNL     1     -11.648  12.104  65.256  0.00  0.00    +0.007 A 
ATOM     11  C   UNL     1     -10.364  11.646  65.009  0.00  0.00    +0.035 A 
ATOM     12 BR   UNL     1      -9.946  10.968  63.284  0.00  0.00    -0.049 Br
ATOM     13  C   UNL     1      -9.451  11.766  66.025  0.00  0.00    +0.007 A 
ATOM     14  C   UNL     1      -9.697  12.534  67.154  0.00  0.00    +0.001 A 
ENDBRANCH   3   8
BRANCH   1  15
ATOM     15  S   UNL     1      -9.974  17.081  66.166  0.00  0.00    +0.148 S 
ATOM     16  O   UNL     1     -10.717  16.447  65.034  0.00  0.00    -0.135 OA
ATOM     17  O   UNL     1      -8.530  17.198  65.727  0.00  0.00    -0.135 OA
BRANCH  15  18
ATOM     18  N   UNL     1     -10.583  18.667  66.386  0.00  0.00    -0.062 NA
BRANCH  18  19
ATOM     19  C   UNL     1     -10.259  19.211  67.702  0.00  0.00    +0.117 C 
BRANCH  19  21
ATOM     20  C   UNL     1      -7.835  19.660  68.167  0.00  0.00    +0.002 C 
ATOM     21  C   UNL     1      -9.094  20.166  67.477  0.00  0.00    +0.021 C 
ENDBRANCH  19  21
ENDBRANCH  18  19
ENDBRANCH  15  18
ENDBRANCH   1  15
BRANCH   4  22
ATOM     22  O   UNL     1     -11.387  12.131  69.547  0.00  0.00    -0.456 OA
BRANCH  22  23
ATOM     23  C   UNL     1     -12.337  11.103  69.499  0.00  0.00    +0.254 C 
BRANCH  23  24
ATOM     24  C   UNL     1     -12.359  10.437  70.862  0.00  0.00    +0.256 C 
BRANCH  24  25
ATOM     25  O   UNL     1     -11.082   9.947  71.185  0.00  0.00    -0.443 OA
BRANCH  25  26
ATOM     26  C   UNL     1     -10.889   8.614  71.471  0.00  0.00    +0.320 A 
ATOM     27  N   UNL     1     -11.738   7.703  70.994  0.00  0.00    -0.192 NA
ATOM     28  C   UNL     1     -11.893   6.479  71.542  0.00  0.00    +0.112 A 
ATOM     29  C   UNL     1     -11.176   6.196  72.690  0.00  0.00    +0.073 A 
ATOM     30 BR   UNL     1     -11.049   4.419  73.384  0.00  0.00    -0.046 Br
ATOM     31  C   UNL     1     -10.382   7.177  73.267  0.00  0.00    +0.112 A 
ATOM     32  N   UNL     1     -10.175   8.326  72.580  0.00  0.00    -0.192 NA
ENDBRANCH  25  26
ENDBRANCH  24  25
ENDBRANCH  23  24
ENDBRANCH  22  23
ENDBRANCH   4  22
TORSDOF 10
ENDMDL
MODEL 2
REMARK VINA RESULT:      -6.9      1.876      2.149
REMARK  Name = 
REMARK  10 active torsions:
REMARK  status: ('A' for Active; 'I' for Inactive)
REMARK    1  A    between atoms: C_2  and  C_3
REMARK    2  A    between atoms: C_3  and  N_4
REMARK    3  A    between atoms: N_4  and  S_5
REMARK    4  A    between atoms: S_5  and  N_8
REMARK    5  A    between atoms: C_13  and  O_14
REMARK    6  A    between atoms: O_14  and  C_15
REMARK    7  A    between atoms: C_15  and  C_16
REMARK    8  A    between atoms: C_16  and  O_17
REMARK    9  A    between atoms: O_17  and  C_18
REMARK   10  A    between atoms: C_25  and  C_26
REMARK                            x       y       z     vdW  Elec       q    Type
REMARK                         _______ _______ _______ _____ _____    ______ ____
ROOT
ATOM      1  N   UNL     1     -10.009  16.140  67.594  0.00  0.00    -0.065 NA
ATOM      2  C   UNL     1     -11.185  15.524  68.134  0.00  0.00    +0.179 A 
ATOM      3  C   UNL     1     -11.110  14.146  68.299  0.00  0.00    +0.088 A 
ATOM      4  C   UNL     1     -11.700  13.481  69.353  0.00  0.00    +0.229 A 
ATOM      5  N   UNL     1     -12.367  14.224  70.244  0.00  0.00    -0.189 NA
ATOM      6  C   UNL     1     -12.427  15.573  70.146  0.00  0.00    +0.203 A 
ATOM      7  N   UNL     1     -11.791  16.211  69.133  0.00  0.00    -0.205 NA
ENDROOT
BRANCH   3   8
ATOM      8  C   UNL     1     -10.765  13.408  67.076  0.00  0.00    +0.007 A 
ATOM      9  C   UNL     1     -11.848  12.894  66.373  0.00  0.00    +0.001 A 
ATOM     10  C   UNL     1     -11.614  12.039  65.307  0.00  0.00    +0.007 A 
ATOM     11  C   UNL     1     -10.315  11.636  65.041  0.00  0.00    +0.035 A 
ATOM     12 BR   UNL     1      -9.900  10.953  63.318  0.00  0.00    -0.049 Br
ATOM     13  C   UNL     1      -9.389  11.813  66.038  0.00  0.00    +0.007 A 
ATOM     14  C   UNL     1      -9.649  12.586  67.160  0.00  0.00    +0.001 A 
ENDBRANCH   3   8
BRANCH   1  15
ATOM     15  S   UNL     1      -9.986  17.083  66.173  0.00  0.00    +0.148 S 
ATOM     16  O   UNL     1     -10.736  16.450  65.045  0.00  0.00    -0.135 OA
ATOM     17  O   UNL     1      -8.544  17.192  65.729  0.00  0.00    -0.135 OA
BRANCH  15  18
ATOM     18  N   UNL     1     -10.588  18.672  66.391  0.00  0.00    -0.062 NA
BRANCH  18  19
ATOM     19  C   UNL     1     -10.328  19.188  67.732  0.00  0.00    +0.117 C 
BRANCH  19  21
ATOM     20  C   UNL     1      -7.913  19.570  68.294  0.00  0.00    +0.002 C 
ATOM     21  C   UNL     1      -9.140  20.130  67.588  0.00  0.00    +0.021 C 
ENDBRANCH  19  21
ENDBRANCH  18  19
ENDBRANCH  15  18
ENDBRANCH   1  15
BRANCH   4  22
ATOM     22  O   UNL     1     -11.383  12.135  69.564  0.00  0.00    -0.456 OA
BRANCH  22  23
ATOM     23  C   UNL     1     -12.318  11.174  69.967  0.00  0.00    +0.254 C 
BRANCH  23  24
ATOM     24  C   UNL     1     -11.563  10.079  70.696  0.00  0.00    +0.256 C 
BRANCH  24  25
ATOM     25  O   UNL     1     -10.294   9.895  70.119  0.00  0.00    -0.443 OA
BRANCH  25  26
ATOM     26  C   UNL     1     -10.062   8.862  69.239  0.00  0.00    +0.320 A 
ATOM     27  N   UNL     1     -10.297   9.032  67.938  0.00  0.00    -0.192 NA
ATOM     28  C   UNL     1     -10.513   8.008  67.085  0.00  0.00    +0.112 A 
ATOM     29  C   UNL     1     -10.550   6.731  67.615  0.00  0.00    +0.073 A 
ATOM     30 BR   UNL     1     -10.523   5.178  66.499  0.00  0.00    -0.046 Br
ATOM     31  C   UNL     1     -10.428   6.549  68.985  0.00  0.00    +0.112 A 
ATOM     32  N   UNL     1     -10.078   7.612  69.748  0.00  0.00    -0.192 NA
ENDBRANCH  25  26
ENDBRANCH  24  25
ENDBRANCH  23  24
ENDBRANCH  22  23
ENDBRANCH   4  22
TORSDOF 10
ENDMDL
MODEL 3
REMARK VINA RESULT:      -6.9      1.573      2.141
REMARK  Name = 
REMARK  10 active torsions:
REMARK  status: ('A' for Active; 'I' for Inactive)
REMARK    1  A    between atoms: C_2  and  C_3
REMARK    2  A    between atoms: C_3  and  N_4
REMARK    3  A    between atoms: N_4  and  S_5
REMARK    4  A    between atoms: S_5  and  N_8
REMARK    5  A    between atoms: C_13  and  O_14
REMARK    6  A    between atoms: O_14  and  C_15
REMARK    7  A    between atoms: C_15  and  C_16
REMARK    8  A    between atoms: C_16  and  O_17
REMARK    9  A    between atoms: O_17  and  C_18
REMARK   10  A    between atoms: C_25  and  C_26
REMARK                            x       y       z     vdW  Elec       q    Type
REMARK                         _______ _______ _______ _____ _____    ______ ____
ROOT
ATOM      1  N   UNL     1      -9.755  15.638  69.450  0.00  0.00    -0.065 NA
ATOM      2  C   UNL     1     -11.098  15.393  69.885  0.00  0.00    +0.179 A 
ATOM      3  C   UNL     1     -11.526  14.075  69.774  0.00  0.00    +0.088 A 
ATOM      4  C   UNL     1     -12.365  13.477  70.690  0.00  0.00    +0.229 A 
ATOM      5  N   UNL     1     -12.767  14.223  71.725  0.00  0.00    -0.189 NA
ATOM      6  C   UNL     1     -12.338  15.495  71.896  0.00  0.00    +0.203 A 
ATOM      7  N   UNL     1     -11.469  16.046  71.014  0.00  0.00    -0.205 NA
ENDROOT
BRANCH   3   8
ATOM      8  C   UNL     1     -11.407  13.512  68.422  0.00  0.00    +0.007 A 
ATOM      9  C   UNL     1     -10.172  12.948  68.125  0.00  0.00    +0.001 A 
ATOM     10  C   UNL     1      -9.909  12.550  66.824  0.00  0.00    +0.007 A 
ATOM     11  C   UNL     1     -10.843  12.821  65.836  0.00  0.00    +0.035 A 
ATOM     12 BR   UNL     1     -10.784  11.828  64.218  0.00  0.00    -0.049 Br
ATOM     13  C   UNL     1     -11.797  13.765  66.121  0.00  0.00    +0.007 A 
ATOM     14  C   UNL     1     -12.001  14.247  67.405  0.00  0.00    +0.001 A 
ENDBRANCH   3   8
BRANCH   1  15
ATOM     15  S   UNL     1      -9.328  16.765  68.242  0.00  0.00    +0.148 S 
ATOM     16  O   UNL     1      -9.081  16.124  66.914  0.00  0.00    -0.135 OA
ATOM     17  O   UNL     1      -8.024  17.404  68.666  0.00  0.00    -0.135 OA
BRANCH  15  18
ATOM     18  N   UNL     1     -10.479  18.015  68.029  0.00  0.00    -0.062 NA
BRANCH  18  19
ATOM     19  C   UNL     1     -10.015  19.296  68.554  0.00  0.00    +0.117 C 
BRANCH  19  21
ATOM     20  C   UNL     1     -10.493  19.638  66.115  0.00  0.00    +0.002 C 
ATOM     21  C   UNL     1      -9.753  20.170  67.335  0.00  0.00    +0.021 C 
ENDBRANCH  19  21
ENDBRANCH  18  19
ENDBRANCH  15  18
ENDBRANCH   1  15
BRANCH   4  22
ATOM     22  O   UNL     1     -12.558  12.093  70.625  0.00  0.00    -0.456 OA
BRANCH  22  23
ATOM     23  C   UNL     1     -13.071  11.332  71.683  0.00  0.00    +0.254 C 
BRANCH  23  24
ATOM     24  C   UNL     1     -13.005   9.873  71.271  0.00  0.00    +0.256 C 
BRANCH  24  25
ATOM     25  O   UNL     1     -12.635   9.075  72.367  0.00  0.00    -0.443 OA
BRANCH  25  26
ATOM     26  C   UNL     1     -12.116   7.814  72.178  0.00  0.00    +0.320 A 
ATOM     27  N   UNL     1     -11.073   7.409  72.904  0.00  0.00    -0.192 NA
ATOM     28  C   UNL     1     -10.248   6.413  72.521  0.00  0.00    +0.112 A 
ATOM     29  C   UNL     1     -10.470   5.837  71.284  0.00  0.00    +0.073 A 
ATOM     30 BR   UNL     1      -9.596   4.220  70.755  0.00  0.00    -0.046 Br
ATOM     31  C   UNL     1     -11.476   6.329  70.464  0.00  0.00    +0.112 A 
ATOM     32  N   UNL     1     -12.343   7.234  70.980  0.00  0.00    -0.192 NA
ENDBRANCH  25  26
ENDBRANCH  24  25
ENDBRANCH  23  24
ENDBRANCH  22  23
ENDBRANCH   4  22
TORSDOF 10
ENDMDL
MODEL 4
REMARK VINA RESULT:      -6.9      4.437      5.766
REMARK  Name = 
REMARK  10 active torsions:
REMARK  status: ('A' for Active; 'I' for Inactive)
REMARK    1  A    between atoms: C_2  and  C_3
REMARK    2  A    between atoms: C_3  and  N_4
REMARK    3  A    between atoms: N_4  and  S_5
REMARK    4  A    between atoms: S_5  and  N_8
REMARK    5  A    between atoms: C_13  and  O_14
REMARK    6  A    between atoms: O_14  and  C_15
REMARK    7  A    between atoms: C_15  and  C_16
REMARK    8  A    between atoms: C_16  and  O_17
REMARK    9  A    between atoms: O_17  and  C_18
REMARK   10  A    between atoms: C_25  and  C_26
REMARK                            x       y       z     vdW  Elec       q    Type
REMARK                         _______ _______ _______ _____ _____    ______ ____
ROOT
ATOM      1  N   UNL     1      -9.883  17.931  67.129  0.00  0.00    -0.065 NA
ATOM      2  C   UNL     1      -9.715  16.925  66.122  0.00  0.00    +0.179 A 
ATOM      3  C   UNL     1      -9.216  15.710  66.575  0.00  0.00    +0.088 A 
ATOM      4  C   UNL     1      -9.616  14.494  66.063  0.00  0.00    +0.229 A 
ATOM      5  N   UNL     1     -10.530  14.517  65.086  0.00  0.00    -0.189 NA
ATOM      6  C   UNL     1     -11.075  15.675  64.647  0.00  0.00    +0.203 A 
ATOM      7  N   UNL     1     -10.710  16.855  65.204  0.00  0.00    -0.205 NA
ENDROOT
BRANCH   3   8
ATOM      8  C   UNL     1      -7.938  15.810  67.294  0.00  0.00    +0.007 A 
ATOM      9  C   UNL     1      -8.046  16.054  68.658  0.00  0.00    +0.001 A 
ATOM     10  C   UNL     1      -6.899  16.337  69.384  0.00  0.00    +0.007 A 
ATOM     11  C   UNL     1      -5.695  16.472  68.712  0.00  0.00    +0.035 A 
ATOM     12 BR   UNL     1      -4.074  16.298  69.688  0.00  0.00    -0.049 Br
ATOM     13  C   UNL     1      -5.754  16.670  67.356  0.00  0.00    +0.007 A 
ATOM     14  C   UNL     1      -6.923  16.489  66.632  0.00  0.00    +0.001 A 
ENDBRANCH   3   8
BRANCH   1  15
ATOM     15  S   UNL     1      -9.153  19.473  67.076  0.00  0.00    +0.148 S 
ATOM     16  O   UNL     1     -10.131  20.584  67.280  0.00  0.00    -0.135 OA
ATOM     17  O   UNL     1      -8.578  19.649  65.687  0.00  0.00    -0.135 OA
BRANCH  15  18
ATOM     18  N   UNL     1      -7.876  19.669  68.200  0.00  0.00    -0.062 NA
BRANCH  18  19
ATOM     19  C   UNL     1      -6.726  20.360  67.623  0.00  0.00    +0.117 C 
BRANCH  19  21
ATOM     20  C   UNL     1      -6.252  20.007  70.060  0.00  0.00    +0.002 C 
ATOM     21  C   UNL     1      -5.652  20.345  68.702  0.00  0.00    +0.021 C 
ENDBRANCH  19  21
ENDBRANCH  18  19
ENDBRANCH  15  18
ENDBRANCH   1  15
BRANCH   4  22
ATOM     22  O   UNL     1      -9.237  13.324  66.729  0.00  0.00    -0.456 OA
BRANCH  22  23
ATOM     23  C   UNL     1      -9.800  12.907  67.942  0.00  0.00    +0.254 C 
BRANCH  23  24
ATOM     24  C   UNL     1     -11.290  12.734  67.718  0.00  0.00    +0.256 C 
BRANCH  24  25
ATOM     25  O   UNL     1     -11.996  13.809  68.286  0.00  0.00    -0.443 OA
BRANCH  25  26
ATOM     26  C   UNL     1     -11.874  14.104  69.626  0.00  0.00    +0.320 A 
ATOM     27  N   UNL     1     -12.479  13.336  70.533  0.00  0.00    -0.192 NA
ATOM     28  C   UNL     1     -12.777  13.759  71.779  0.00  0.00    +0.112 A 
ATOM     29  C   UNL     1     -12.491  15.075  72.094  0.00  0.00    +0.073 A 
ATOM     30 BR   UNL     1     -12.557  15.715  73.895  0.00  0.00    -0.046 Br
ATOM     31  C   UNL     1     -11.974  15.920  71.123  0.00  0.00    +0.112 A 
ATOM     32  N   UNL     1     -11.577  15.381  69.945  0.00  0.00    -0.192 NA
ENDBRANCH  25  26
ENDBRANCH  24  25
ENDBRANCH  23  24
ENDBRANCH  22  23
ENDBRANCH   4  22
TORSDOF 10
ENDMDL
MODEL 5
REMARK VINA RESULT:      -6.8      2.487      3.064
REMARK  Name = 
REMARK  10 active torsions:
REMARK  status: ('A' for Active; 'I' for Inactive)
REMARK    1  A    between atoms: C_2  and  C_3
REMARK    2  A    between atoms: C_3  and  N_4
REMARK    3  A    between atoms: N_4  and  S_5
REMARK    4  A    between atoms: S_5  and  N_8
REMARK    5  A    between atoms: C_13  and  O_14
REMARK    6  A    between atoms: O_14  and  C_15
REMARK    7  A    between atoms: C_15  and  C_16
REMARK    8  A    between atoms: C_16  and  O_17
REMARK    9  A    between atoms: O_17  and  C_18
REMARK   10  A    between atoms: C_25  and  C_26
REMARK                            x       y       z     vdW  Elec       q    Type
REMARK                         _______ _______ _______ _____ _____    ______ ____
ROOT
ATOM      1  N   UNL     1     -10.118  15.868  69.440  0.00  0.00    -0.065 NA
ATOM      2  C   UNL     1     -11.428  15.327  69.655  0.00  0.00    +0.179 A 
ATOM      3  C   UNL     1     -11.502  13.939  69.657  0.00  0.00    +0.088 A 
ATOM      4  C   UNL     1     -12.352  13.232  70.482  0.00  0.00    +0.229 A 
ATOM      5  N   UNL     1     -13.126  13.943  71.310  0.00  0.00    -0.189 NA
ATOM      6  C   UNL     1     -13.052  15.293  71.373  0.00  0.00    +0.203 A 
ATOM      7  N   UNL     1     -12.169  15.964  70.594  0.00  0.00    -0.205 NA
ENDROOT
BRANCH   3   8
ATOM      8  C   UNL     1     -10.973  13.302  68.444  0.00  0.00    +0.007 A 
ATOM      9  C   UNL     1     -11.887  12.528  67.738  0.00  0.00    +0.001 A 
ATOM     10  C   UNL     1     -11.436  11.751  66.682  0.00  0.00    +0.007 A 
ATOM     11  C   UNL     1     -10.076  11.686  66.427  0.00  0.00    +0.035 A 
ATOM     12 BR   UNL     1      -9.488  11.116  64.713  0.00  0.00    -0.049 Br
ATOM     13  C   UNL     1      -9.233  12.097  67.428  0.00  0.00    +0.007 A 
ATOM     14  C   UNL     1      -9.687  12.788  68.541  0.00  0.00    +0.001 A 
ENDBRANCH   3   8
BRANCH   1  15
ATOM     15  S   UNL     1      -9.722  16.949  68.181  0.00  0.00    +0.148 S 
ATOM     16  O   UNL     1      -8.576  17.845  68.526  0.00  0.00    -0.135 OA
ATOM     17  O   UNL     1     -10.923  17.843  67.963  0.00  0.00    -0.135 OA
BRANCH  15  18
ATOM     18  N   UNL     1      -9.369  16.175  66.694  0.00  0.00    -0.062 NA
BRANCH  18  19
ATOM     19  C   UNL     1     -10.437  16.340  65.712  0.00  0.00    +0.117 C 
BRANCH  19  21
ATOM     20  C   UNL     1     -12.008  14.717  64.620  0.00  0.00    +0.002 C 
ATOM     21  C   UNL     1     -10.562  14.995  65.010  0.00  0.00    +0.021 C 
ENDBRANCH  19  21
ENDBRANCH  18  19
ENDBRANCH  15  18
ENDBRANCH   1  15
BRANCH   4  22
ATOM     22  O   UNL     1     -12.198  11.846  70.581  0.00  0.00    -0.456 OA
BRANCH  22  23
ATOM     23  C   UNL     1     -12.879  11.056  71.516  0.00  0.00    +0.254 C 
BRANCH  23  24
ATOM     24  C   UNL     1     -12.267   9.669  71.475  0.00  0.00    +0.256 C 
BRANCH  24  25
ATOM     25  O   UNL     1     -11.001   9.713  70.865  0.00  0.00    -0.443 OA
BRANCH  25  26
ATOM     26  C   UNL     1     -10.585   8.702  70.028  0.00  0.00    +0.320 A 
ATOM     27  N   UNL     1     -10.220   8.984  68.777  0.00  0.00    -0.192 NA
ATOM     28  C   UNL     1     -10.214   8.069  67.785  0.00  0.00    +0.112 A 
ATOM     29  C   UNL     1     -10.671   6.799  68.083  0.00  0.00    +0.073 A 
ATOM     30 BR   UNL     1     -10.420   5.332  66.882  0.00  0.00    -0.046 Br
ATOM     31  C   UNL     1     -11.168   6.524  69.349  0.00  0.00    +0.112 A 
ATOM     32  N   UNL     1     -11.010   7.455  70.320  0.00  0.00    -0.192 NA
ENDBRANCH  25  26
ENDBRANCH  24  25
ENDBRANCH  23  24
ENDBRANCH  22  23
ENDBRANCH   4  22
TORSDOF 10
ENDMDL
MODEL 6
REMARK VINA RESULT:      -6.7      2.278      2.867
REMARK  Name = 
REMARK  10 active torsions:
REMARK  status: ('A' for Active; 'I' for Inactive)
REMARK    1  A    between atoms: C_2  and  C_3
REMARK    2  A    between atoms: C_3  and  N_4
REMARK    3  A    between atoms: N_4  and  S_5
REMARK    4  A    between atoms: S_5  and  N_8
REMARK    5  A    between atoms: C_13  and  O_14
REMARK    6  A    between atoms: O_14  and  C_15
REMARK    7  A    between atoms: C_15  and  C_16
REMARK    8  A    between atoms: C_16  and  O_17
REMARK    9  A    between atoms: O_17  and  C_18
REMARK   10  A    between atoms: C_25  and  C_26
REMARK                            x       y       z     vdW  Elec       q    Type
REMARK                         _______ _______ _______ _____ _____    ______ ____
ROOT
ATOM      1  N   UNL     1      -9.910  15.617  69.517  0.00  0.00    -0.065 NA
ATOM      2  C   UNL     1     -11.247  15.304  69.929  0.00  0.00    +0.179 A 
ATOM      3  C   UNL     1     -11.594  13.961  69.841  0.00  0.00    +0.088 A 
ATOM      4  C   UNL     1     -12.418  13.336  70.753  0.00  0.00    +0.229 A 
ATOM      5  N   UNL     1     -12.887  14.082  71.760  0.00  0.00    -0.189 NA
ATOM      6  C   UNL     1     -12.537  15.381  71.908  0.00  0.00    +0.203 A 
ATOM      7  N   UNL     1     -11.681  15.961  71.033  0.00  0.00    -0.205 NA
ENDROOT
BRANCH   3   8
ATOM      8  C   UNL     1     -11.411  13.374  68.507  0.00  0.00    +0.007 A 
ATOM      9  C   UNL     1     -10.136  12.886  68.247  0.00  0.00    +0.001 A 
ATOM     10  C   UNL     1      -9.822  12.474  66.961  0.00  0.00    +0.007 A 
ATOM     11  C   UNL     1     -10.751  12.659  65.950  0.00  0.00    +0.035 A 
ATOM     12 BR   UNL     1     -10.593  11.633  64.359  0.00  0.00    -0.049 Br
ATOM     13  C   UNL     1     -11.770  13.544  66.193  0.00  0.00    +0.007 A 
ATOM     14  C   UNL     1     -12.031  14.043  67.460  0.00  0.00    +0.001 A 
ENDBRANCH   3   8
BRANCH   1  15
ATOM     15  S   UNL     1      -9.521  16.738  68.291  0.00  0.00    +0.148 S 
ATOM     16  O   UNL     1      -9.188  16.081  66.991  0.00  0.00    -0.135 OA
ATOM     17  O   UNL     1      -8.278  17.477  68.736  0.00  0.00    -0.135 OA
BRANCH  15  18
ATOM     18  N   UNL     1     -10.747  17.900  68.006  0.00  0.00    -0.062 NA
BRANCH  18  19
ATOM     19  C   UNL     1     -10.235  19.267  68.027  0.00  0.00    +0.117 C 
BRANCH  19  21
ATOM     20  C   UNL     1      -8.657  19.719  66.130  0.00  0.00    +0.002 C 
ATOM     21  C   UNL     1     -10.115  19.684  66.567  0.00  0.00    +0.021 C 
ENDBRANCH  19  21
ENDBRANCH  18  19
ENDBRANCH  15  18
ENDBRANCH   1  15
BRANCH   4  22
ATOM     22  O   UNL     1     -12.529  11.942  70.718  0.00  0.00    -0.456 OA
BRANCH  22  23
ATOM     23  C   UNL     1     -13.109  11.186  71.744  0.00  0.00    +0.254 C 
BRANCH  23  24
ATOM     24  C   UNL     1     -12.803   9.726  71.465  0.00  0.00    +0.256 C 
BRANCH  24  25
ATOM     25  O   UNL     1     -11.497   9.414  71.879  0.00  0.00    -0.443 OA
BRANCH  25  26
ATOM     26  C   UNL     1     -10.536   9.044  70.965  0.00  0.00    +0.320 A 
ATOM     27  N   UNL     1      -9.245   9.210  71.255  0.00  0.00    -0.192 NA
ATOM     28  C   UNL     1      -8.280   9.288  70.315  0.00  0.00    +0.112 A 
ATOM     29  C   UNL     1      -8.674   9.255  68.990  0.00  0.00    +0.073 A 
ATOM     30 BR   UNL     1      -7.412   9.032  67.570  0.00  0.00    -0.046 Br
ATOM     31  C   UNL     1     -10.024   9.206  68.672  0.00  0.00    +0.112 A 
ATOM     32  N   UNL     1     -10.913   8.992  69.671  0.00  0.00    -0.192 NA
ENDBRANCH  25  26
ENDBRANCH  24  25
ENDBRANCH  23  24
ENDBRANCH  22  23
ENDBRANCH   4  22
TORSDOF 10
ENDMDL
MODEL 7
REMARK VINA RESULT:      -6.7      1.958      2.422
REMARK  Name = 
REMARK  10 active torsions:
REMARK  status: ('A' for Active; 'I' for Inactive)
REMARK    1  A    between atoms: C_2  and  C_3
REMARK    2  A    between atoms: C_3  and  N_4
REMARK    3  A    between atoms: N_4  and  S_5
REMARK    4  A    between atoms: S_5  and  N_8
REMARK    5  A    between atoms: C_13  and  O_14
REMARK    6  A    between atoms: O_14  and  C_15
REMARK    7  A    between atoms: C_15  and  C_16
REMARK    8  A    between atoms: C_16  and  O_17
REMARK    9  A    between atoms: O_17  and  C_18
REMARK   10  A    between atoms: C_25  and  C_26
REMARK                            x       y       z     vdW  Elec       q    Type
REMARK                         _______ _______ _______ _____ _____    ______ ____
ROOT
ATOM      1  N   UNL     1     -10.142  15.929  69.210  0.00  0.00    -0.065 NA
ATOM      2  C   UNL     1     -11.442  15.386  69.475  0.00  0.00    +0.179 A 
ATOM      3  C   UNL     1     -11.499  14.000  69.560  0.00  0.00    +0.088 A 
ATOM      4  C   UNL     1     -12.329  13.334  70.437  0.00  0.00    +0.229 A 
ATOM      5  N   UNL     1     -13.101  14.083  71.232  0.00  0.00    -0.189 NA
ATOM      6  C   UNL     1     -13.043  15.435  71.214  0.00  0.00    +0.203 A 
ATOM      7  N   UNL     1     -12.180  16.070  70.384  0.00  0.00    -0.205 NA
ENDROOT
BRANCH   3   8
ATOM      8  C   UNL     1     -10.978  13.298  68.379  0.00  0.00    +0.007 A 
ATOM      9  C   UNL     1     -11.837  12.356  67.826  0.00  0.00    +0.001 A 
ATOM     10  C   UNL     1     -11.367  11.525  66.821  0.00  0.00    +0.007 A 
ATOM     11  C   UNL     1     -10.028  11.584  66.471  0.00  0.00    +0.035 A 
ATOM     12 BR   UNL     1      -9.489  10.902  64.782  0.00  0.00    -0.049 Br
ATOM     13  C   UNL     1      -9.176  12.191  67.358  0.00  0.00    +0.007 A 
ATOM     14  C   UNL     1      -9.636  12.943  68.429  0.00  0.00    +0.001 A 
ENDBRANCH   3   8
BRANCH   1  15
ATOM     15  S   UNL     1      -9.776  16.938  67.883  0.00  0.00    +0.148 S 
ATOM     16  O   UNL     1      -8.637  17.865  68.158  0.00  0.00    -0.135 OA
ATOM     17  O   UNL     1     -10.991  17.805  67.632  0.00  0.00    -0.135 OA
BRANCH  15  18
ATOM     18  N   UNL     1      -9.436  16.082  66.440  0.00  0.00    -0.062 NA
BRANCH  18  19
ATOM     19  C   UNL     1     -10.509  16.198  65.456  0.00  0.00    +0.117 C 
BRANCH  19  21
ATOM     20  C   UNL     1     -12.142  14.415  64.787  0.00  0.00    +0.002 C 
ATOM     21  C   UNL     1     -10.672  14.808  64.858  0.00  0.00    +0.021 C 
ENDBRANCH  19  21
ENDBRANCH  18  19
ENDBRANCH  15  18
ENDBRANCH   1  15
BRANCH   4  22
ATOM     22  O   UNL     1     -12.156  11.957  70.615  0.00  0.00    -0.456 OA
BRANCH  22  23
ATOM     23  C   UNL     1     -12.959  11.180  71.459  0.00  0.00    +0.254 C 
BRANCH  23  24
ATOM     24  C   UNL     1     -12.601   9.725  71.218  0.00  0.00    +0.256 C 
BRANCH  24  25
ATOM     25  O   UNL     1     -11.321   9.448  71.729  0.00  0.00    -0.443 OA
BRANCH  25  26
ATOM     26  C   UNL     1     -10.948   8.158  72.035  0.00  0.00    +0.320 A 
ATOM     27  N   UNL     1     -11.740   7.140  71.697  0.00  0.00    -0.192 NA
ATOM     28  C   UNL     1     -11.691   5.934  72.301  0.00  0.00    +0.112 A 
ATOM     29  C   UNL     1     -10.816   5.783  73.361  0.00  0.00    +0.073 A 
ATOM     30 BR   UNL     1     -10.409   4.065  74.094  0.00  0.00    -0.046 Br
ATOM     31  C   UNL     1     -10.073   6.870  73.802  0.00  0.00    +0.112 A 
ATOM     32  N   UNL     1     -10.080   8.000  73.056  0.00  0.00    -0.192 NA
ENDBRANCH  25  26
ENDBRANCH  24  25
ENDBRANCH  23  24
ENDBRANCH  22  23
ENDBRANCH   4  22
TORSDOF 10
ENDMDL
MODEL 8
REMARK VINA RESULT:      -6.6      4.297      8.570
REMARK  Name = 
REMARK  10 active torsions:
REMARK  status: ('A' for Active; 'I' for Inactive)
REMARK    1  A    between atoms: C_2  and  C_3
REMARK    2  A    between atoms: C_3  and  N_4
REMARK    3  A    between atoms: N_4  and  S_5
REMARK    4  A    between atoms: S_5  and  N_8
REMARK    5  A    between atoms: C_13  and  O_14
REMARK    6  A    between atoms: O_14  and  C_15
REMARK    7  A    between atoms: C_15  and  C_16
REMARK    8  A    between atoms: C_16  and  O_17
REMARK    9  A    between atoms: O_17  and  C_18
REMARK   10  A    between atoms: C_25  and  C_26
REMARK                            x       y       z     vdW  Elec       q    Type
REMARK                         _______ _______ _______ _____ _____    ______ ____
ROOT
ATOM      1  N   UNL     1      -9.227  11.042  64.188  0.00  0.00    -0.065 NA
ATOM      2  C   UNL     1     -10.624  11.206  64.466  0.00  0.00    +0.179 A 
ATOM      3  C   UNL     1     -10.919  11.801  65.687  0.00  0.00    +0.088 A 
ATOM      4  C   UNL     1     -11.979  12.664  65.867  0.00  0.00    +0.229 A 
ATOM      5  N   UNL     1     -12.740  12.923  64.798  0.00  0.00    -0.189 NA
ATOM      6  C   UNL     1     -12.462  12.401  63.581  0.00  0.00    +0.203 A 
ATOM      7  N   UNL     1     -11.381  11.601  63.413  0.00  0.00    -0.205 NA
ENDROOT
BRANCH   3   8
ATOM      8  C   UNL     1     -10.330  11.122  66.850  0.00  0.00    +0.007 A 
ATOM      9  C   UNL     1     -11.246  10.556  67.728  0.00  0.00    +0.001 A 
ATOM     10  C   UNL     1     -10.795  10.049  68.937  0.00  0.00    +0.007 A 
ATOM     11  C   UNL     1      -9.463  10.216  69.281  0.00  0.00    +0.035 A 
ATOM     12 BR   UNL     1      -8.708   9.086  70.608  0.00  0.00    -0.049 Br
ATOM     13  C   UNL     1      -8.754  11.165  68.589  0.00  0.00    +0.007 A 
ATOM     14  C   UNL     1      -9.240  11.755  67.432  0.00  0.00    +0.001 A 
ENDBRANCH   3   8
BRANCH   1  15
ATOM     15  S   UNL     1      -8.488   9.544  63.841  0.00  0.00    +0.148 S 
ATOM     16  O   UNL     1      -7.003   9.648  63.708  0.00  0.00    -0.135 OA
ATOM     17  O   UNL     1      -9.014   9.085  62.499  0.00  0.00    -0.135 OA
BRANCH  15  18
ATOM     18  N   UNL     1      -8.840   8.321  64.987  0.00  0.00    -0.062 NA
BRANCH  18  19
ATOM     19  C   UNL     1      -7.965   8.383  66.156  0.00  0.00    +0.117 C 
BRANCH  19  21
ATOM     20  C   UNL     1     -10.013   7.130  66.883  0.00  0.00    +0.002 C 
ATOM     21  C   UNL     1      -8.535   7.382  67.151  0.00  0.00    +0.021 C 
ENDBRANCH  19  21
ENDBRANCH  18  19
ENDBRANCH  15  18
ENDBRANCH   1  15
BRANCH   4  22
ATOM     22  O   UNL     1     -12.064  13.388  67.061  0.00  0.00    -0.456 OA
BRANCH  22  23
ATOM     23  C   UNL     1     -11.836  14.768  67.146  0.00  0.00    +0.254 C 
BRANCH  23  24
ATOM     24  C   UNL     1     -11.305  15.057  68.537  0.00  0.00    +0.256 C 
BRANCH  24  25
ATOM     25  O   UNL     1     -11.458  16.421  68.843  0.00  0.00    -0.443 OA
BRANCH  25  26
ATOM     26  C   UNL     1     -10.528  17.346  68.425  0.00  0.00    +0.320 A 
ATOM     27  N   UNL     1     -10.905  18.362  67.647  0.00  0.00    -0.192 NA
ATOM     28  C   UNL     1     -10.049  19.046  66.858  0.00  0.00    +0.112 A 
ATOM     29  C   UNL     1      -8.734  18.620  66.820  0.00  0.00    +0.073 A 
ATOM     30 BR   UNL     1      -7.358  19.674  66.012  0.00  0.00    -0.046 Br
ATOM     31  C   UNL     1      -8.354  17.490  67.530  0.00  0.00    +0.112 A 
ATOM     32  N   UNL     1      -9.239  16.948  68.401  0.00  0.00    -0.192 NA
ENDBRANCH  25  26
ENDBRANCH  24  25
ENDBRANCH  23  24
ENDBRANCH  22  23
ENDBRANCH   4  22
TORSDOF 10
ENDMDL
MODEL 9
REMARK VINA RESULT:      -6.6      1.374      1.760
REMARK  Name = 
REMARK  10 active torsions:
REMARK  status: ('A' for Active; 'I' for Inactive)
REMARK    1  A    between atoms: C_2  and  C_3
REMARK    2  A    between atoms: C_3  and  N_4
REMARK    3  A    between atoms: N_4  and  S_5
REMARK    4  A    between atoms: S_5  and  N_8
REMARK    5  A    between atoms: C_13  and  O_14
REMARK    6  A    between atoms: O_14  and  C_15
REMARK    7  A    between atoms: C_15  and  C_16
REMARK    8  A    between atoms: C_16  and  O_17
REMARK    9  A    between atoms: O_17  and  C_18
REMARK   10  A    between atoms: C_25  and  C_26
REMARK                            x       y       z     vdW  Elec       q    Type
REMARK                         _______ _______ _______ _____ _____    ______ ____
ROOT
ATOM      1  N   UNL     1      -9.998  16.078  69.340  0.00  0.00    -0.065 NA
ATOM      2  C   UNL     1     -11.299  15.680  69.792  0.00  0.00    +0.179 A 
ATOM      3  C   UNL     1     -11.553  14.315  69.738  0.00  0.00    +0.088 A 
ATOM      4  C   UNL     1     -12.307  13.652  70.683  0.00  0.00    +0.229 A 
ATOM      5  N   UNL     1     -12.802  14.383  71.688  0.00  0.00    -0.189 NA
ATOM      6  C   UNL     1     -12.541  15.706  71.804  0.00  0.00    +0.203 A 
ATOM      7  N   UNL     1     -11.750  16.327  70.895  0.00  0.00    -0.205 NA
ENDROOT
BRANCH   3   8
ATOM      8  C   UNL     1     -11.362  13.716  68.410  0.00  0.00    +0.007 A 
ATOM      9  C   UNL     1     -10.070  13.282  68.139  0.00  0.00    +0.001 A 
ATOM     10  C   UNL     1      -9.756  12.865  66.855  0.00  0.00    +0.007 A 
ATOM     11  C   UNL     1     -10.707  12.991  65.855  0.00  0.00    +0.035 A 
ATOM     12 BR   UNL     1     -10.526  11.949  64.278  0.00  0.00    -0.049 Br
ATOM     13  C   UNL     1     -11.762  13.833  66.099  0.00  0.00    +0.007 A 
ATOM     14  C   UNL     1     -12.027  14.340  67.363  0.00  0.00    +0.001 A 
ENDBRANCH   3   8
BRANCH   1  15
ATOM     15  S   UNL     1      -9.721  17.199  68.084  0.00  0.00    +0.148 S 
ATOM     16  O   UNL     1     -10.964  17.915  67.662  0.00  0.00    -0.135 OA
ATOM     17  O   UNL     1      -9.242  16.415  66.881  0.00  0.00    -0.135 OA
BRANCH  15  18
ATOM     18  N   UNL     1      -8.527  18.370  68.455  0.00  0.00    -0.062 NA
BRANCH  18  19
ATOM     19  C   UNL     1      -8.863  19.693  67.935  0.00  0.00    +0.117 C 
BRANCH  19  21
ATOM     20  C   UNL     1      -6.507  19.865  67.091  0.00  0.00    +0.002 C 
ATOM     21  C   UNL     1      -7.980  19.889  66.709  0.00  0.00    +0.021 C 
ENDBRANCH  19  21
ENDBRANCH  18  19
ENDBRANCH  15  18
ENDBRANCH   1  15
BRANCH   4  22
ATOM     22  O   UNL     1     -12.320  12.253  70.676  0.00  0.00    -0.456 OA
BRANCH  22  23
ATOM     23  C   UNL     1     -12.954  11.480  71.657  0.00  0.00    +0.254 C 
BRANCH  23  24
ATOM     24  C   UNL     1     -12.757  10.022  71.287  0.00  0.00    +0.256 C 
BRANCH  24  25
ATOM     25  O   UNL     1     -11.387   9.718  71.215  0.00  0.00    -0.443 OA
BRANCH  25  26
ATOM     26  C   UNL     1     -10.929   8.452  71.503  0.00  0.00    +0.320 A 
ATOM     27  N   UNL     1     -11.204   7.442  70.676  0.00  0.00    -0.192 NA
ATOM     28  C   UNL     1     -11.184   6.148  71.057  0.00  0.00    +0.112 A 
ATOM     29  C   UNL     1     -10.925   5.876  72.388  0.00  0.00    +0.073 A 
ATOM     30 BR   UNL     1     -10.549   4.104  72.998  0.00  0.00    -0.046 Br
ATOM     31  C   UNL     1     -10.758   6.921  73.285  0.00  0.00    +0.112 A 
ATOM     32  N   UNL     1     -10.656   8.181  72.796  0.00  0.00    -0.192 NA
ENDBRANCH  25  26
ENDBRANCH  24  25
ENDBRANCH  23  24
ENDBRANCH  22  23
ENDBRANCH   4  22
TORSDOF 10
ENDMDL
