MODEL 1
REMARK VINA RESULT:      -7.3      0.000      0.000
REMARK  Name = 
REMARK  4 active torsions:
REMARK  status: ('A' for Active; 'I' for Inactive)
REMARK    1  A    between atoms: C_2  and  C_3
REMARK    2  A    between atoms: C_3  and  C_4
REMARK    3  A    between atoms: C_4  and  C_5
REMARK    4  A    between atoms: C_5  and  C_6
REMARK                            x       y       z     vdW  Elec       q    Type
REMARK                         _______ _______ _______ _____ _____    ______ ____
ROOT
ATOM      1  C   UNL     1     -11.787  14.852  69.361  0.00  0.00    -0.016 A 
ATOM      2  C   UNL     1     -11.377  16.103  69.641  0.00  0.00    +0.033 A 
ATOM      3  C   UNL     1     -10.581  16.736  68.767  0.00  0.00    +0.137 A 
ATOM      4  O   UNL     1     -10.081  18.072  68.975  0.00  0.00    -0.483 OA
ATOM      5  C   UNL     1      -9.088  18.637  68.124  0.00  0.00    +0.134 C 
ATOM      6  C   UNL     1      -9.206  18.301  66.503  0.00  0.00    +0.045 C 
ATOM      7  C   UNL     1      -9.427  16.561  66.281  0.00  0.00    +0.053 C 
ATOM      8  C   UNL     1      -7.974  16.094  66.751  0.00  0.00    -0.030 C 
ATOM      9  C   UNL     1      -8.275  16.474  67.867  0.00  0.00    -0.048 C 
ATOM     10  C   UNL     1      -7.465  15.988  68.979  0.00  0.00    +0.026 C 
ATOM     11  C   UNL     1      -9.148  17.313  67.448  0.00  0.00    +0.022 C 
ATOM     12  C   UNL     1     -10.547  17.887  66.970  0.00  0.00    +0.008 C 
ATOM     13  C   UNL     1      -7.978  19.384  68.510  0.00  0.00    +0.044 C 
ATOM     14  C   UNL     1      -9.934  19.944  67.874  0.00  0.00    +0.044 C 
ATOM     15  C   UNL     1     -10.401  16.147  67.502  0.00  0.00    +0.054 A 
ATOM     16  C   UNL     1     -11.112  15.046  67.098  0.00  0.00    +0.195 A 
ATOM     17  O   UNL     1     -11.143  14.518  65.819  0.00  0.00    -0.287 OA
ATOM     18  C   UNL     1     -11.836  14.404  68.067  0.00  0.00    +0.038 A 
ENDROOT
BRANCH   1  19
ATOM     19  C   UNL     1     -12.483  14.091  70.438  0.00  0.00    +0.027 C 
BRANCH  19  20
ATOM     20  C   UNL     1     -13.125  15.110  71.370  0.00  0.00    +0.005 C 
BRANCH  20  21
ATOM     21  C   UNL     1     -13.285  14.572  72.766  0.00  0.00    +0.000 C 
BRANCH  21  23
ATOM     22  C   UNL     1     -12.483  15.649  74.245  0.00  0.00    +0.000 C 
ATOM     23  C   UNL     1     -12.577  15.403  73.803  0.00  0.00    +0.000 C 
ENDBRANCH  21  23
ENDBRANCH  20  21
ENDBRANCH  19  20
ENDBRANCH   1  19
TORSDOF 4
ENDMDL
MODEL 2
REMARK VINA RESULT:      -6.9      2.578      5.093
REMARK  Name = 
REMARK  4 active torsions:
REMARK  status: ('A' for Active; 'I' for Inactive)
REMARK    1  A    between atoms: C_2  and  C_3
REMARK    2  A    between atoms: C_3  and  C_4
REMARK    3  A    between atoms: C_4  and  C_5
REMARK    4  A    between atoms: C_5  and  C_6
REMARK                            x       y       z     vdW  Elec       q    Type
REMARK                         _______ _______ _______ _____ _____    ______ ____
ROOT
ATOM      1  C   UNL     1     -11.299  15.122  66.638  0.00  0.00    -0.016 A 
ATOM      2  C   UNL     1     -10.179  15.555  66.031  0.00  0.00    +0.033 A 
ATOM      3  C   UNL     1      -9.535  16.615  66.538  0.00  0.00    +0.137 A 
ATOM      4  O   UNL     1      -8.332  17.162  65.960  0.00  0.00    -0.483 OA
ATOM      5  C   UNL     1      -7.786  18.399  66.408  0.00  0.00    +0.134 C 
ATOM      6  C   UNL     1      -7.840  18.698  68.040  0.00  0.00    +0.045 C 
ATOM      7  C   UNL     1      -9.473  18.385  68.638  0.00  0.00    +0.053 C 
ATOM      8  C   UNL     1     -10.210  19.603  67.913  0.00  0.00    -0.030 C 
ATOM      9  C   UNL     1      -9.973  19.044  66.859  0.00  0.00    -0.048 C 
ATOM     10  C   UNL     1     -10.739  19.470  65.692  0.00  0.00    +0.026 C 
ATOM     11  C   UNL     1      -8.963  18.402  67.317  0.00  0.00    +0.022 C 
ATOM     12  C   UNL     1      -8.129  17.248  68.015  0.00  0.00    +0.008 C 
ATOM     13  C   UNL     1      -7.274  19.426  65.620  0.00  0.00    +0.044 C 
ATOM     14  C   UNL     1      -6.349  17.780  66.610  0.00  0.00    +0.044 C 
ATOM     15  C   UNL     1      -9.935  17.079  67.805  0.00  0.00    +0.054 A 
ATOM     16  C   UNL     1     -10.846  16.406  68.578  0.00  0.00    +0.195 A 
ATOM     17  O   UNL     1     -11.154  16.677  69.899  0.00  0.00    -0.287 OA
ATOM     18  C   UNL     1     -11.525  15.387  67.963  0.00  0.00    +0.038 A 
ENDROOT
BRANCH   1  19
ATOM     19  C   UNL     1     -12.115  14.089  65.938  0.00  0.00    +0.027 C 
BRANCH  19  20
ATOM     20  C   UNL     1     -11.838  14.227  64.446  0.00  0.00    +0.005 C 
BRANCH  20  21
ATOM     21  C   UNL     1     -12.078  12.938  63.708  0.00  0.00    +0.000 C 
BRANCH  21  23
ATOM     22  C   UNL     1     -10.337  11.986  63.478  0.00  0.00    +0.000 C 
ATOM     23  C   UNL     1     -10.832  12.108  63.548  0.00  0.00    +0.000 C 
ENDBRANCH  21  23
ENDBRANCH  20  21
ENDBRANCH  19  20
ENDBRANCH   1  19
TORSDOF 4
ENDMDL
MODEL 3
REMARK VINA RESULT:      -6.8      2.770      3.944
REMARK  Name = 
REMARK  4 active torsions:
REMARK  status: ('A' for Active; 'I' for Inactive)
REMARK    1  A    between atoms: C_2  and  C_3
REMARK    2  A    between atoms: C_3  and  C_4
REMARK    3  A    between atoms: C_4  and  C_5
REMARK    4  A    between atoms: C_5  and  C_6
REMARK                            x       y       z     vdW  Elec       q    Type
REMARK                         _______ _______ _______ _____ _____    ______ ____
ROOT
ATOM      1  C   UNL     1     -12.157  13.176  70.262  0.00  0.00    -0.016 A 
ATOM      2  C   UNL     1     -12.235  14.049  69.241  0.00  0.00    +0.033 A 
ATOM      3  C   UNL     1     -11.656  13.737  68.074  0.00  0.00    +0.137 A 
ATOM      4  O   UNL     1     -11.675  14.605  66.922  0.00  0.00    -0.483 OA
ATOM      5  C   UNL     1     -10.889  14.327  65.768  0.00  0.00    +0.134 C 
ATOM      6  C   UNL     1     -10.770  12.738  65.302  0.00  0.00    +0.045 C 
ATOM      7  C   UNL     1     -10.347  11.748  66.703  0.00  0.00    +0.053 C 
ATOM      8  C   UNL     1      -8.858  12.288  66.913  0.00  0.00    -0.030 C 
ATOM      9  C   UNL     1      -9.350  13.358  67.216  0.00  0.00    -0.048 C 
ATOM     10  C   UNL     1      -8.498  14.306  67.927  0.00  0.00    +0.026 C 
ATOM     11  C   UNL     1     -10.432  13.155  66.561  0.00  0.00    +0.022 C 
ATOM     12  C   UNL     1     -11.908  12.666  66.245  0.00  0.00    +0.008 C 
ATOM     13  C   UNL     1     -10.143  15.236  65.021  0.00  0.00    +0.044 C 
ATOM     14  C   UNL     1     -12.123  14.478  64.796  0.00  0.00    +0.044 C 
ATOM     15  C   UNL     1     -11.194  12.418  67.906  0.00  0.00    +0.054 A 
ATOM     16  C   UNL     1     -11.441  11.432  68.826  0.00  0.00    +0.195 A 
ATOM     17  O   UNL     1     -11.196  10.081  68.660  0.00  0.00    -0.287 OA
ATOM     18  C   UNL     1     -11.956  11.841  70.027  0.00  0.00    +0.038 A 
ENDROOT
BRANCH   1  19
ATOM     19  C   UNL     1     -12.612  13.634  71.606  0.00  0.00    +0.027 C 
BRANCH  19  20
ATOM     20  C   UNL     1     -12.973  15.109  71.484  0.00  0.00    +0.005 C 
BRANCH  20  21
ATOM     21  C   UNL     1     -12.195  15.959  72.452  0.00  0.00    +0.000 C 
BRANCH  21  23
ATOM     22  C   UNL     1     -12.469  15.647  74.406  0.00  0.00    +0.000 C 
ATOM     23  C   UNL     1     -12.481  15.625  73.892  0.00  0.00    +0.000 C 
ENDBRANCH  21  23
ENDBRANCH  20  21
ENDBRANCH  19  20
ENDBRANCH   1  19
TORSDOF 4
ENDMDL
MODEL 4
REMARK VINA RESULT:      -6.8      2.720      5.967
REMARK  Name = 
REMARK  4 active torsions:
REMARK  status: ('A' for Active; 'I' for Inactive)
REMARK    1  A    between atoms: C_2  and  C_3
REMARK    2  A    between atoms: C_3  and  C_4
REMARK    3  A    between atoms: C_4  and  C_5
REMARK    4  A    between atoms: C_5  and  C_6
REMARK                            x       y       z     vdW  Elec       q    Type
REMARK                         _______ _______ _______ _____ _____    ______ ____
ROOT
ATOM      1  C   UNL     1      -9.192  16.278  67.232  0.00  0.00    -0.016 A 
ATOM      2  C   UNL     1      -9.336  15.724  66.014  0.00  0.00    +0.033 A 
ATOM      3  C   UNL     1     -10.104  14.634  65.883  0.00  0.00    +0.137 A 
ATOM      4  O   UNL     1     -10.316  13.961  64.625  0.00  0.00    -0.483 OA
ATOM      5  C   UNL     1     -10.978  12.701  64.557  0.00  0.00    +0.134 C 
ATOM      6  C   UNL     1     -12.275  12.476  65.568  0.00  0.00    +0.045 C 
ATOM      7  C   UNL     1     -11.827  12.955  67.209  0.00  0.00    +0.053 C 
ATOM      8  C   UNL     1     -10.790  11.777  67.507  0.00  0.00    -0.030 C 
ATOM      9  C   UNL     1     -10.075  12.268  66.655  0.00  0.00    -0.048 C 
ATOM     10  C   UNL     1      -8.673  11.862  66.646  0.00  0.00    +0.026 C 
ATOM     11  C   UNL     1     -11.041  12.838  66.036  0.00  0.00    +0.022 C 
ATOM     12  C   UNL     1     -12.110  13.944  65.650  0.00  0.00    +0.008 C 
ATOM     13  C   UNL     1     -10.612  11.601  63.785  0.00  0.00    +0.044 C 
ATOM     14  C   UNL     1     -11.981  13.201  63.447  0.00  0.00    +0.044 C 
ATOM     15  C   UNL     1     -10.901  14.260  66.981  0.00  0.00    +0.054 A 
ATOM     16  C   UNL     1     -11.018  15.041  68.101  0.00  0.00    +0.195 A 
ATOM     17  O   UNL     1     -11.915  14.853  69.138  0.00  0.00    -0.287 OA
ATOM     18  C   UNL     1     -10.141  16.088  68.203  0.00  0.00    +0.038 A 
ENDROOT
BRANCH   1  19
ATOM     19  C   UNL     1      -8.167  17.348  67.394  0.00  0.00    +0.027 C 
BRANCH  19  20
ATOM     20  C   UNL     1      -8.847  18.527  68.077  0.00  0.00    +0.005 C 
BRANCH  20  21
ATOM     21  C   UNL     1      -8.968  19.714  67.160  0.00  0.00    +0.000 C 
BRANCH  21  23
ATOM     22  C   UNL     1     -10.577  19.690  65.977  0.00  0.00    +0.000 C 
ATOM     23  C   UNL     1     -10.252  19.724  66.374  0.00  0.00    +0.000 C 
ENDBRANCH  21  23
ENDBRANCH  20  21
ENDBRANCH  19  20
ENDBRANCH   1  19
TORSDOF 4
ENDMDL
MODEL 5
REMARK VINA RESULT:      -6.7      2.872      6.002
REMARK  Name = 
REMARK  4 active torsions:
REMARK  status: ('A' for Active; 'I' for Inactive)
REMARK    1  A    between atoms: C_2  and  C_3
REMARK    2  A    between atoms: C_3  and  C_4
REMARK    3  A    between atoms: C_4  and  C_5
REMARK    4  A    between atoms: C_5  and  C_6
REMARK                            x       y       z     vdW  Elec       q    Type
REMARK                         _______ _______ _______ _____ _____    ______ ____
ROOT
ATOM      1  C   UNL     1      -8.763  16.314  66.705  0.00  0.00    -0.016 A 
ATOM      2  C   UNL     1      -8.555  14.987  66.776  0.00  0.00    +0.033 A 
ATOM      3  C   UNL     1      -9.483  14.156  66.282  0.00  0.00    +0.137 A 
ATOM      4  O   UNL     1      -9.360  12.719  66.316  0.00  0.00    -0.483 OA
ATOM      5  C   UNL     1     -10.447  11.870  65.959  0.00  0.00    +0.134 C 
ATOM      6  C   UNL     1     -11.385  12.348  64.676  0.00  0.00    +0.045 C 
ATOM      7  C   UNL     1     -11.847  14.040  64.887  0.00  0.00    +0.053 C 
ATOM      8  C   UNL     1     -12.824  13.848  66.136  0.00  0.00    -0.030 C 
ATOM      9  C   UNL     1     -11.842  13.537  66.783  0.00  0.00    -0.048 C 
ATOM     10  C   UNL     1     -11.964  13.571  68.237  0.00  0.00    +0.026 C 
ATOM     11  C   UNL     1     -11.171  13.153  65.761  0.00  0.00    +0.022 C 
ATOM     12  C   UNL     1     -10.209  13.228  64.502  0.00  0.00    +0.008 C 
ATOM     13  C   UNL     1     -10.859  10.713  66.616  0.00  0.00    +0.044 C 
ATOM     14  C   UNL     1      -9.565  11.036  64.953  0.00  0.00    +0.044 C 
ATOM     15  C   UNL     1     -10.519  14.717  65.511  0.00  0.00    +0.054 A 
ATOM     16  C   UNL     1     -10.525  16.038  65.143  0.00  0.00    +0.195 A 
ATOM     17  O   UNL     1     -11.389  16.629  64.238  0.00  0.00    -0.287 OA
ATOM     18  C   UNL     1      -9.599  16.841  65.755  0.00  0.00    +0.038 A 
ENDROOT
BRANCH   1  19
ATOM     19  C   UNL     1      -7.831  17.206  67.451  0.00  0.00    +0.027 C 
BRANCH  19  20
ATOM     20  C   UNL     1      -8.670  18.024  68.425  0.00  0.00    +0.005 C 
BRANCH  20  21
ATOM     21  C   UNL     1      -8.494  19.503  68.213  0.00  0.00    +0.000 C 
BRANCH  21  23
ATOM     22  C   UNL     1     -10.028  20.245  67.171  0.00  0.00    +0.000 C 
ATOM     23  C   UNL     1      -9.670  20.145  67.527  0.00  0.00    +0.000 C 
ENDBRANCH  21  23
ENDBRANCH  20  21
ENDBRANCH  19  20
ENDBRANCH   1  19
TORSDOF 4
ENDMDL
MODEL 6
REMARK VINA RESULT:      -6.6      6.069      8.946
REMARK  Name = 
REMARK  4 active torsions:
REMARK  status: ('A' for Active; 'I' for Inactive)
REMARK    1  A    between atoms: C_2  and  C_3
REMARK    2  A    between atoms: C_3  and  C_4
REMARK    3  A    between atoms: C_4  and  C_5
REMARK    4  A    between atoms: C_5  and  C_6
REMARK                            x       y       z     vdW  Elec       q    Type
REMARK                         _______ _______ _______ _____ _____    ______ ____
ROOT
ATOM      1  C   UNL     1     -12.421  11.112  71.113  0.00  0.00    -0.016 A 
ATOM      2  C   UNL     1     -11.615  10.427  70.282  0.00  0.00    +0.033 A 
ATOM      3  C   UNL     1     -11.402   9.123  70.512  0.00  0.00    +0.137 A 
ATOM      4  O   UNL     1     -10.550   8.302  69.687  0.00  0.00    -0.483 OA
ATOM      5  C   UNL     1     -10.197   6.977  70.070  0.00  0.00    +0.134 C 
ATOM      6  C   UNL     1     -11.380   6.059  70.787  0.00  0.00    +0.045 C 
ATOM      7  C   UNL     1     -12.141   6.993  72.080  0.00  0.00    +0.053 C 
ATOM      8  C   UNL     1     -10.901   7.027  73.086  0.00  0.00    -0.030 C 
ATOM      9  C   UNL     1     -10.330   7.723  72.268  0.00  0.00    -0.048 C 
ATOM     10  C   UNL     1      -9.170   8.479  72.729  0.00  0.00    +0.026 C 
ATOM     11  C   UNL     1     -11.011   7.282  71.276  0.00  0.00    +0.022 C 
ATOM     12  C   UNL     1     -12.188   7.160  70.220  0.00  0.00    +0.008 C 
ATOM     13  C   UNL     1      -8.940   6.383  69.978  0.00  0.00    +0.044 C 
ATOM     14  C   UNL     1     -10.630   6.376  68.678  0.00  0.00    +0.044 C 
ATOM     15  C   UNL     1     -12.212   8.488  71.472  0.00  0.00    +0.054 A 
ATOM     16  C   UNL     1     -13.278   9.116  72.062  0.00  0.00    +0.195 A 
ATOM     17  O   UNL     1     -14.235   8.520  72.865  0.00  0.00    -0.287 OA
ATOM     18  C   UNL     1     -13.380  10.465  71.849  0.00  0.00    +0.038 A 
ENDROOT
BRANCH   1  19
ATOM     19  C   UNL     1     -12.468  12.595  70.972  0.00  0.00    +0.027 C 
BRANCH  19  20
ATOM     20  C   UNL     1     -13.422  13.121  72.037  0.00  0.00    +0.005 C 
BRANCH  20  21
ATOM     21  C   UNL     1     -13.347  14.618  72.167  0.00  0.00    +0.000 C 
BRANCH  21  23
ATOM     22  C   UNL     1     -12.431  15.176  73.853  0.00  0.00    +0.000 C 
ATOM     23  C   UNL     1     -12.774  15.068  73.485  0.00  0.00    +0.000 C 
ENDBRANCH  21  23
ENDBRANCH  20  21
ENDBRANCH  19  20
ENDBRANCH   1  19
TORSDOF 4
ENDMDL
MODEL 7
REMARK VINA RESULT:      -6.5      3.645      5.517
REMARK  Name = 
REMARK  4 active torsions:
REMARK  status: ('A' for Active; 'I' for Inactive)
REMARK    1  A    between atoms: C_2  and  C_3
REMARK    2  A    between atoms: C_3  and  C_4
REMARK    3  A    between atoms: C_4  and  C_5
REMARK    4  A    between atoms: C_5  and  C_6
REMARK                            x       y       z     vdW  Elec       q    Type
REMARK                         _______ _______ _______ _____ _____    ______ ____
ROOT
ATOM      1  C   UNL     1     -10.385   9.812  69.093  0.00  0.00    -0.016 A 
ATOM      2  C   UNL     1     -11.251  10.179  68.131  0.00  0.00    +0.033 A 
ATOM      3  C   UNL     1     -11.034  11.322  67.465  0.00  0.00    +0.137 A 
ATOM      4  O   UNL     1     -11.904  11.809  66.423  0.00  0.00    -0.483 OA
ATOM      5  C   UNL     1     -11.751  13.114  65.874  0.00  0.00    +0.134 C 
ATOM      6  C   UNL     1     -10.199  13.655  65.642  0.00  0.00    +0.045 C 
ATOM      7  C   UNL     1      -9.260  13.390  67.115  0.00  0.00    +0.053 C 
ATOM      8  C   UNL     1      -9.997  14.463  68.041  0.00  0.00    -0.030 C 
ATOM      9  C   UNL     1     -10.986  13.758  67.973  0.00  0.00    -0.048 C 
ATOM     10  C   UNL     1     -12.033  13.981  68.964  0.00  0.00    +0.026 C 
ATOM     11  C   UNL     1     -10.643  13.221  66.861  0.00  0.00    +0.022 C 
ATOM     12  C   UNL     1      -9.960  12.210  65.848  0.00  0.00    +0.008 C 
ATOM     13  C   UNL     1     -12.762  14.024  65.576  0.00  0.00    +0.044 C 
ATOM     14  C   UNL     1     -11.741  12.574  64.392  0.00  0.00    +0.044 C 
ATOM     15  C   UNL     1      -9.793  11.960  67.648  0.00  0.00    +0.054 A 
ATOM     16  C   UNL     1      -8.772  11.386  68.361  0.00  0.00    +0.195 A 
ATOM     17  O   UNL     1      -7.469  11.846  68.434  0.00  0.00    -0.287 OA
ATOM     18  C   UNL     1      -9.093  10.268  69.084  0.00  0.00    +0.038 A 
ENDROOT
BRANCH   1  19
ATOM     19  C   UNL     1     -10.760   8.662  69.965  0.00  0.00    +0.027 C 
BRANCH  19  20
ATOM     20  C   UNL     1     -10.958   9.207  71.373  0.00  0.00    +0.005 C 
BRANCH  20  21
ATOM     21  C   UNL     1     -12.415   9.327  71.730  0.00  0.00    +0.000 C 
BRANCH  21  23
ATOM     22  C   UNL     1     -12.973  11.236  71.547  0.00  0.00    +0.000 C 
ATOM     23  C   UNL     1     -12.953  10.722  71.556  0.00  0.00    +0.000 C 
ENDBRANCH  21  23
ENDBRANCH  20  21
ENDBRANCH  19  20
ENDBRANCH   1  19
TORSDOF 4
ENDMDL
MODEL 8
REMARK VINA RESULT:      -6.4      2.800      5.683
REMARK  Name = 
REMARK  4 active torsions:
REMARK  status: ('A' for Active; 'I' for Inactive)
REMARK    1  A    between atoms: C_2  and  C_3
REMARK    2  A    between atoms: C_3  and  C_4
REMARK    3  A    between atoms: C_4  and  C_5
REMARK    4  A    between atoms: C_5  and  C_6
REMARK                            x       y       z     vdW  Elec       q    Type
REMARK                         _______ _______ _______ _____ _____    ______ ____
ROOT
ATOM      1  C   UNL     1     -11.698  14.126  64.791  0.00  0.00    -0.016 A 
ATOM      2  C   UNL     1     -12.386  13.983  65.938  0.00  0.00    +0.033 A 
ATOM      3  C   UNL     1     -11.798  14.319  67.094  0.00  0.00    +0.137 A 
ATOM      4  O   UNL     1     -12.445  14.196  68.377  0.00  0.00    -0.483 OA
ATOM      5  C   UNL     1     -11.727  14.378  69.594  0.00  0.00    +0.134 C 
ATOM      6  C   UNL     1     -10.591  15.588  69.624  0.00  0.00    +0.045 C 
ATOM      7  C   UNL     1      -9.553  15.451  68.200  0.00  0.00    +0.053 C 
ATOM      8  C   UNL     1      -8.807  14.098  68.603  0.00  0.00    -0.030 C 
ATOM      9  C   UNL     1      -9.876  13.535  68.468  0.00  0.00    -0.048 C 
ATOM     10  C   UNL     1      -9.853  12.082  68.331  0.00  0.00    +0.026 C 
ATOM     11  C   UNL     1     -10.568  14.591  68.687  0.00  0.00    +0.022 C 
ATOM     12  C   UNL     1     -11.344  15.944  68.401  0.00  0.00    +0.008 C 
ATOM     13  C   UNL     1     -11.818  13.603  70.747  0.00  0.00    +0.044 C 
ATOM     14  C   UNL     1     -12.782  15.409  70.153  0.00  0.00    +0.044 C 
ATOM     15  C   UNL     1     -10.578  15.016  67.028  0.00  0.00    +0.054 A 
ATOM     16  C   UNL     1     -10.058  15.474  65.845  0.00  0.00    +0.195 A 
ATOM     17  O   UNL     1      -8.976  16.324  65.703  0.00  0.00    -0.287 OA
ATOM     18  C   UNL     1     -10.662  15.019  64.703  0.00  0.00    +0.038 A 
ENDROOT
BRANCH   1  19
ATOM     19  C   UNL     1     -12.284  13.544  63.550  0.00  0.00    +0.027 C 
BRANCH  19  20
ATOM     20  C   UNL     1     -12.201  12.029  63.677  0.00  0.00    +0.005 C 
BRANCH  20  21
ATOM     21  C   UNL     1     -10.797  11.525  63.477  0.00  0.00    +0.000 C 
BRANCH  21  23
ATOM     22  C   UNL     1     -10.121  10.375  64.964  0.00  0.00    +0.000 C 
ATOM     23  C   UNL     1     -10.267  10.768  64.666  0.00  0.00    +0.000 C 
ENDBRANCH  21  23
ENDBRANCH  20  21
ENDBRANCH  19  20
ENDBRANCH   1  19
TORSDOF 4
ENDMDL
MODEL 9
REMARK VINA RESULT:      -6.2      3.899      5.338
REMARK  Name = 
REMARK  4 active torsions:
REMARK  status: ('A' for Active; 'I' for Inactive)
REMARK    1  A    between atoms: C_2  and  C_3
REMARK    2  A    between atoms: C_3  and  C_4
REMARK    3  A    between atoms: C_4  and  C_5
REMARK    4  A    between atoms: C_5  and  C_6
REMARK                            x       y       z     vdW  Elec       q    Type
REMARK                         _______ _______ _______ _____ _____    ______ ____
ROOT
ATOM      1  C   UNL     1     -11.830  11.159  69.640  0.00  0.00    -0.016 A 
ATOM      2  C   UNL     1     -11.964  12.331  68.991  0.00  0.00    +0.033 A 
ATOM      3  C   UNL     1     -11.353  12.492  67.810  0.00  0.00    +0.137 A 
ATOM      4  O   UNL     1     -11.427  13.709  67.039  0.00  0.00    -0.483 OA
ATOM      5  C   UNL     1     -10.612  13.913  65.888  0.00  0.00    +0.134 C 
ATOM      6  C   UNL     1     -10.372  12.604  64.895  0.00  0.00    +0.045 C 
ATOM      7  C   UNL     1      -9.889  11.212  65.870  0.00  0.00    +0.053 C 
ATOM      8  C   UNL     1      -8.446  11.739  66.307  0.00  0.00    -0.030 C 
ATOM      9  C   UNL     1      -9.018  12.597  66.952  0.00  0.00    -0.048 C 
ATOM     10  C   UNL     1      -8.245  13.285  67.981  0.00  0.00    +0.026 C 
ATOM     11  C   UNL     1     -10.077  12.568  66.231  0.00  0.00    +0.022 C 
ATOM     12  C   UNL     1     -11.509  12.127  65.712  0.00  0.00    +0.008 C 
ATOM     13  C   UNL     1      -9.929  15.075  65.537  0.00  0.00    +0.044 C 
ATOM     14  C   UNL     1     -11.845  14.316  64.991  0.00  0.00    +0.044 C 
ATOM     15  C   UNL     1     -10.793  11.353  67.202  0.00  0.00    +0.054 A 
ATOM     16  C   UNL     1     -10.974  10.090  67.705  0.00  0.00    +0.195 A 
ATOM     17  O   UNL     1     -10.628   8.905  67.080  0.00  0.00    -0.287 OA
ATOM     18  C   UNL     1     -11.528  10.011  68.955  0.00  0.00    +0.038 A 
ENDROOT
BRANCH   1  19
ATOM     19  C   UNL     1     -12.329  11.079  71.042  0.00  0.00    +0.027 C 
BRANCH  19  20
ATOM     20  C   UNL     1     -12.438   9.602  71.400  0.00  0.00    +0.005 C 
BRANCH  20  21
ATOM     21  C   UNL     1     -13.687   9.305  72.185  0.00  0.00    +0.000 C 
BRANCH  21  23
ATOM     22  C   UNL     1     -14.689   7.667  71.636  0.00  0.00    +0.000 C 
ATOM     23  C   UNL     1     -14.334   8.003  71.796  0.00  0.00    +0.000 C 
ENDBRANCH  21  23
ENDBRANCH  20  21
ENDBRANCH  19  20
ENDBRANCH   1  19
TORSDOF 4
ENDMDL
