MODEL 1
REMARK VINA RESULT:      -7.5      0.000      0.000
REMARK  Name = 
REMARK  2 active torsions:
REMARK  status: ('A' for Active; 'I' for Inactive)
REMARK    1  A    between atoms: C_2  and  C_10
REMARK    2  A    between atoms: C_3  and  C_4
REMARK                            x       y       z     vdW  Elec       q    Type
REMARK                         _______ _______ _______ _____ _____    ______ ____
ROOT
ATOM      1  C   UNL     1     -11.499  10.429  68.238  0.00  0.00    +0.116 C 
ATOM      2  N   UNL     1      -9.971  10.310  67.770  0.00  0.00    -0.203 NA
ATOM      3  C   UNL     1     -10.084   9.734  66.455  0.00  0.00    +0.244 C 
ATOM      4  O   UNL     1      -9.506  10.237  65.443  0.00  0.00    -0.273 OA
ATOM      5  C   UNL     1     -10.046   8.251  66.702  0.00  0.00    +0.120 C 
ATOM      6  C   UNL     1      -8.363   8.154  66.601  0.00  0.00    +0.167 C 
ATOM      7  O   UNL     1      -8.427   8.162  65.053  0.00  0.00    -0.222 OA
ATOM      8  C   UNL     1      -8.340   6.482  66.732  0.00  0.00    +0.080 C 
ATOM      9  C   UNL     1      -6.899   6.282  67.086  0.00  0.00    +0.010 C 
ATOM     10  C   UNL     1      -8.726   5.896  65.450  0.00  0.00    +0.010 C 
ATOM     11  C   UNL     1      -9.267   6.191  67.878  0.00  0.00    +0.154 C 
ATOM     12  O   UNL     1     -10.300   5.652  67.492  0.00  0.00    -0.296 OA
ATOM     13  C   UNL     1      -8.535   5.470  69.126  0.00  0.00    +0.088 C 
ATOM     14  C   UNL     1      -8.251   4.114  68.247  0.00  0.00    +0.010 C 
ATOM     15  C   UNL     1      -9.995   4.826  69.799  0.00  0.00    +0.159 C 
ATOM     16  O   UNL     1      -9.257   3.652  70.410  0.00  0.00    -0.223 OA
ATOM     17  C   UNL     1      -9.857   5.721  71.271  0.00  0.00    +0.031 C 
ATOM     18  C   UNL     1      -9.387   7.124  70.578  0.00  0.00    +0.003 C 
ATOM     19  C   UNL     1     -11.436   6.145  71.192  0.00  0.00    +0.003 C 
ATOM     20  C   UNL     1     -11.650   7.310  72.079  0.00  0.00    +0.003 C 
ATOM     21  C   UNL     1     -11.522   8.650  71.476  0.00  0.00    +0.030 C 
ATOM     22  C   UNL     1     -12.721   9.395  71.504  0.00  0.00    +0.118 C 
ATOM     23  C   UNL     1     -12.770  10.514  70.272  0.00  0.00    +0.142 C 
ATOM     24  C   UNL     1     -14.031   9.167  72.110  0.00  0.00    +0.032 C 
ATOM     25  O   UNL     1     -12.416  10.976  71.812  0.00  0.00    -0.356 OA
ATOM     26  C   UNL     1     -11.095  10.322  69.858  0.00  0.00    +0.058 C 
ENDROOT
BRANCH   1  28
ATOM     27  C   UNL     1     -10.892  12.300  68.701  0.00  0.00    +0.028 C 
ATOM     28  C   UNL     1     -11.351  12.065  68.313  0.00  0.00    -0.023 C 
ATOM     29  C   UNL     1     -11.830  12.680  67.235  0.00  0.00    +0.013 C 
BRANCH  29  30
ATOM     30  C   UNL     1     -11.105  13.895  66.824  0.00  0.00    +0.087 A 
ATOM     31  N   UNL     1     -11.450  15.185  67.072  0.00  0.00    -0.243 NA
ATOM     32  C   UNL     1     -10.369  15.943  67.337  0.00  0.00    +0.089 A 
ATOM     33  C   UNL     1     -10.274  17.142  68.229  0.00  0.00    +0.059 C 
ATOM     34  S   UNL     1      -9.254  15.280  66.216  0.00  0.00    -0.070 S 
ATOM     35  C   UNL     1     -10.147  13.868  65.812  0.00  0.00    +0.056 A 
ENDBRANCH  29  30
ENDBRANCH   1  28
TORSDOF 2
ENDMDL
MODEL 2
REMARK VINA RESULT:      -7.5      2.860      3.787
REMARK  Name = 
REMARK  2 active torsions:
REMARK  status: ('A' for Active; 'I' for Inactive)
REMARK    1  A    between atoms: C_2  and  C_10
REMARK    2  A    between atoms: C_3  and  C_4
REMARK                            x       y       z     vdW  Elec       q    Type
REMARK                         _______ _______ _______ _____ _____    ______ ____
ROOT
ATOM      1  C   UNL     1     -12.645  10.982  70.036  0.00  0.00    +0.116 C 
ATOM      2  N   UNL     1     -11.214  11.632  69.723  0.00  0.00    -0.203 NA
ATOM      3  C   UNL     1     -11.364  12.098  68.370  0.00  0.00    +0.244 C 
ATOM      4  O   UNL     1     -11.071  13.284  68.025  0.00  0.00    -0.273 OA
ATOM      5  C   UNL     1     -10.932  10.927  67.531  0.00  0.00    +0.120 C 
ATOM      6  C   UNL     1      -9.307  11.384  67.509  0.00  0.00    +0.167 C 
ATOM      7  O   UNL     1      -9.584  12.421  66.391  0.00  0.00    -0.222 OA
ATOM      8  C   UNL     1      -8.860  10.159  66.455  0.00  0.00    +0.080 C 
ATOM      9  C   UNL     1      -7.379  10.172  66.675  0.00  0.00    +0.010 C 
ATOM     10  C   UNL     1      -9.265  10.522  65.099  0.00  0.00    +0.010 C 
ATOM     11  C   UNL     1      -9.522   8.932  67.017  0.00  0.00    +0.154 C 
ATOM     12  O   UNL     1     -10.435   8.545  66.295  0.00  0.00    -0.296 OA
ATOM     13  C   UNL     1      -8.471   7.791  67.475  0.00  0.00    +0.088 C 
ATOM     14  C   UNL     1      -7.990   7.537  65.928  0.00  0.00    +0.010 C 
ATOM     15  C   UNL     1      -9.622   6.500  67.415  0.00  0.00    +0.159 C 
ATOM     16  O   UNL     1      -8.544   5.482  67.102  0.00  0.00    -0.223 OA
ATOM     17  C   UNL     1      -9.505   6.152  69.104  0.00  0.00    +0.031 C 
ATOM     18  C   UNL     1      -9.490   7.709  69.602  0.00  0.00    +0.003 C 
ATOM     19  C   UNL     1     -11.134   6.068  69.228  0.00  0.00    +0.003 C 
ATOM     20  C   UNL     1     -11.501   6.206  70.655  0.00  0.00    +0.003 C 
ATOM     21  C   UNL     1     -11.787   7.566  71.150  0.00  0.00    +0.030 C 
ATOM     22  C   UNL     1     -13.115   7.731  71.599  0.00  0.00    +0.118 C 
ATOM     23  C   UNL     1     -13.605   9.318  71.475  0.00  0.00    +0.142 C 
ATOM     24  C   UNL     1     -14.234   6.810  71.787  0.00  0.00    +0.032 C 
ATOM     25  O   UNL     1     -13.164   8.687  72.930  0.00  0.00    -0.356 OA
ATOM     26  C   UNL     1     -12.008   9.920  71.161  0.00  0.00    +0.058 C 
ENDROOT
BRANCH   1  28
ATOM     27  C   UNL     1     -12.479  12.082  71.723  0.00  0.00    +0.028 C 
ATOM     28  C   UNL     1     -12.891  12.091  71.226  0.00  0.00    -0.023 C 
ATOM     29  C   UNL     1     -13.567  13.157  70.810  0.00  0.00    +0.013 C 
BRANCH  29  30
ATOM     30  C   UNL     1     -13.182  14.435  71.436  0.00  0.00    +0.087 A 
ATOM     31  N   UNL     1     -13.637  14.951  72.607  0.00  0.00    -0.243 NA
ATOM     32  C   UNL     1     -12.654  15.570  73.288  0.00  0.00    +0.089 A 
ATOM     33  C   UNL     1     -12.496  15.705  74.771  0.00  0.00    +0.059 C 
ATOM     34  S   UNL     1     -11.811  16.312  71.992  0.00  0.00    -0.070 S 
ATOM     35  C   UNL     1     -12.555  15.445  70.708  0.00  0.00    +0.056 A 
ENDBRANCH  29  30
ENDBRANCH   1  28
TORSDOF 2
ENDMDL
MODEL 3
REMARK VINA RESULT:      -7.4      5.529     10.258
REMARK  Name = 
REMARK  2 active torsions:
REMARK  status: ('A' for Active; 'I' for Inactive)
REMARK    1  A    between atoms: C_2  and  C_10
REMARK    2  A    between atoms: C_3  and  C_4
REMARK                            x       y       z     vdW  Elec       q    Type
REMARK                         _______ _______ _______ _____ _____    ______ ____
ROOT
ATOM      1  C   UNL     1      -8.771  15.948  67.775  0.00  0.00    +0.116 C 
ATOM      2  N   UNL     1      -7.494  15.095  67.319  0.00  0.00    -0.203 NA
ATOM      3  C   UNL     1      -7.132  14.394  68.524  0.00  0.00    +0.244 C 
ATOM      4  O   UNL     1      -6.946  13.138  68.548  0.00  0.00    -0.273 OA
ATOM      5  C   UNL     1      -6.171  15.324  69.212  0.00  0.00    +0.120 C 
ATOM      6  C   UNL     1      -4.811  14.693  68.435  0.00  0.00    +0.167 C 
ATOM      7  O   UNL     1      -4.769  13.497  69.419  0.00  0.00    -0.222 OA
ATOM      8  C   UNL     1      -3.735  15.633  69.312  0.00  0.00    +0.080 C 
ATOM      9  C   UNL     1      -2.524  15.498  68.443  0.00  0.00    +0.010 C 
ATOM     10  C   UNL     1      -3.578  15.062  70.648  0.00  0.00    +0.010 C 
ATOM     11  C   UNL     1      -4.332  17.012  69.269  0.00  0.00    +0.154 C 
ATOM     12  O   UNL     1      -4.757  17.350  70.369  0.00  0.00    -0.296 OA
ATOM     13  C   UNL     1      -3.387  18.095  68.528  0.00  0.00    +0.088 C 
ATOM     14  C   UNL     1      -2.250  17.990  69.705  0.00  0.00    +0.010 C 
ATOM     15  C   UNL     1      -4.138  19.471  69.265  0.00  0.00    +0.159 C 
ATOM     16  O   UNL     1      -2.861  20.281  69.176  0.00  0.00    -0.223 OA
ATOM     17  C   UNL     1      -4.695  20.125  67.765  0.00  0.00    +0.031 C 
ATOM     18  C   UNL     1      -5.186  18.702  67.127  0.00  0.00    +0.003 C 
ATOM     19  C   UNL     1      -6.172  20.412  68.408  0.00  0.00    +0.003 C 
ATOM     20  C   UNL     1      -7.135  20.596  67.299  0.00  0.00    +0.003 C 
ATOM     21  C   UNL     1      -7.854  19.398  66.824  0.00  0.00    +0.030 C 
ATOM     22  C   UNL     1      -9.252  19.472  67.013  0.00  0.00    +0.118 C 
ATOM     23  C   UNL     1      -9.927  17.956  67.149  0.00  0.00    +0.142 C 
ATOM     24  C   UNL     1     -10.149  20.531  67.469  0.00  0.00    +0.032 C 
ATOM     25  O   UNL     1     -10.045  18.804  65.743  0.00  0.00    -0.356 OA
ATOM     26  C   UNL     1      -8.493  17.130  66.624  0.00  0.00    +0.058 C 
ENDROOT
BRANCH   1  28
ATOM     27  C   UNL     1      -9.489  15.086  66.094  0.00  0.00    +0.028 C 
ATOM     28  C   UNL     1      -9.707  15.126  66.700  0.00  0.00    -0.023 C 
ATOM     29  C   UNL     1     -10.515  14.245  67.283  0.00  0.00    +0.013 C 
BRANCH  29  30
ATOM     30  C   UNL     1     -10.759  13.008  66.519  0.00  0.00    +0.087 A 
ATOM     31  N   UNL     1     -11.887  12.664  65.846  0.00  0.00    -0.243 NA
ATOM     32  C   UNL     1     -11.599  12.027  64.695  0.00  0.00    +0.089 A 
ATOM     33  C   UNL     1     -12.374  12.032  63.413  0.00  0.00    +0.059 C 
ATOM     34  S   UNL     1     -10.266  11.076  65.202  0.00  0.00    -0.070 S 
ATOM     35  C   UNL     1      -9.971  11.872  66.697  0.00  0.00    +0.056 A 
ENDBRANCH  29  30
ENDBRANCH   1  28
TORSDOF 2
ENDMDL
MODEL 4
REMARK VINA RESULT:      -6.9      1.394      4.806
REMARK  Name = 
REMARK  2 active torsions:
REMARK  status: ('A' for Active; 'I' for Inactive)
REMARK    1  A    between atoms: C_2  and  C_10
REMARK    2  A    between atoms: C_3  and  C_4
REMARK                            x       y       z     vdW  Elec       q    Type
REMARK                         _______ _______ _______ _____ _____    ______ ____
ROOT
ATOM      1  C   UNL     1      -9.765  10.816  67.463  0.00  0.00    +0.116 C 
ATOM      2  N   UNL     1     -11.186  10.540  68.151  0.00  0.00    -0.203 NA
ATOM      3  C   UNL     1     -10.945  10.875  69.530  0.00  0.00    +0.244 C 
ATOM      4  O   UNL     1     -11.698  11.665  70.178  0.00  0.00    -0.273 OA
ATOM      5  C   UNL     1     -10.482   9.582  70.143  0.00  0.00    +0.120 C 
ATOM      6  C   UNL     1     -12.041   9.069  70.540  0.00  0.00    +0.167 C 
ATOM      7  O   UNL     1     -12.048   9.971  71.800  0.00  0.00    -0.222 OA
ATOM      8  C   UNL     1     -11.506   7.701  71.349  0.00  0.00    +0.080 C 
ATOM      9  C   UNL     1     -12.785   6.923  71.389  0.00  0.00    +0.010 C 
ATOM     10  C   UNL     1     -11.002   8.089  72.664  0.00  0.00    +0.010 C 
ATOM     11  C   UNL     1     -10.488   7.101  70.421  0.00  0.00    +0.154 C 
ATOM     12  O   UNL     1      -9.352   7.208  70.873  0.00  0.00    -0.296 OA
ATOM     13  C   UNL     1     -10.889   5.623  69.900  0.00  0.00    +0.088 C 
ATOM     14  C   UNL     1     -10.747   4.994  71.409  0.00  0.00    +0.010 C 
ATOM     15  C   UNL     1      -9.272   5.175  69.473  0.00  0.00    +0.159 C 
ATOM     16  O   UNL     1      -9.556   3.708  69.725  0.00  0.00    -0.223 OA
ATOM     17  C   UNL     1      -9.636   4.990  67.794  0.00  0.00    +0.031 C 
ATOM     18  C   UNL     1     -10.571   6.325  67.670  0.00  0.00    +0.003 C 
ATOM     19  C   UNL     1      -8.290   5.826  67.383  0.00  0.00    +0.003 C 
ATOM     20  C   UNL     1      -8.435   6.283  65.982  0.00  0.00    +0.003 C 
ATOM     21  C   UNL     1      -9.023   7.619  65.766  0.00  0.00    +0.030 C 
ATOM     22  C   UNL     1      -8.136   8.529  65.151  0.00  0.00    +0.118 C 
ATOM     23  C   UNL     1      -8.510  10.103  65.546  0.00  0.00    +0.142 C 
ATOM     24  C   UNL     1      -6.800   8.395  64.574  0.00  0.00    +0.032 C 
ATOM     25  O   UNL     1      -8.933   9.482  64.081  0.00  0.00    -0.356 OA
ATOM     26  C   UNL     1     -10.043   9.697  66.251  0.00  0.00    +0.058 C 
ENDROOT
BRANCH   1  28
ATOM     27  C   UNL     1     -11.085  12.023  66.523  0.00  0.00    +0.028 C 
ATOM     28  C   UNL     1     -10.441  11.990  66.531  0.00  0.00    -0.023 C 
ATOM     29  C   UNL     1      -9.620  13.012  66.306  0.00  0.00    +0.013 C 
BRANCH  29  30
ATOM     30  C   UNL     1     -10.264  14.335  66.224  0.00  0.00    +0.087 A 
ATOM     31  N   UNL     1     -10.869  15.022  67.228  0.00  0.00    -0.243 NA
ATOM     32  C   UNL     1     -10.622  16.343  67.140  0.00  0.00    +0.089 A 
ATOM     33  C   UNL     1     -10.515  17.342  68.250  0.00  0.00    +0.059 C 
ATOM     34  S   UNL     1     -10.697  16.551  65.439  0.00  0.00    -0.070 S 
ATOM     35  C   UNL     1     -10.642  14.889  65.002  0.00  0.00    +0.056 A 
ENDBRANCH  29  30
ENDBRANCH   1  28
TORSDOF 2
ENDMDL
MODEL 5
REMARK VINA RESULT:      -6.9      6.938     11.081
REMARK  Name = 
REMARK  2 active torsions:
REMARK  status: ('A' for Active; 'I' for Inactive)
REMARK    1  A    between atoms: C_2  and  C_10
REMARK    2  A    between atoms: C_3  and  C_4
REMARK                            x       y       z     vdW  Elec       q    Type
REMARK                         _______ _______ _______ _____ _____    ______ ____
ROOT
ATOM      1  C   UNL     1      -5.034  16.025  69.469  0.00  0.00    +0.116 C 
ATOM      2  N   UNL     1      -6.456  15.382  69.830  0.00  0.00    -0.203 NA
ATOM      3  C   UNL     1      -6.641  14.408  68.786  0.00  0.00    +0.244 C 
ATOM      4  O   UNL     1      -6.945  13.200  69.032  0.00  0.00    -0.273 OA
ATOM      5  C   UNL     1      -7.345  15.169  67.698  0.00  0.00    +0.120 C 
ATOM      6  C   UNL     1      -8.890  14.828  68.289  0.00  0.00    +0.167 C 
ATOM      7  O   UNL     1      -8.856  13.419  67.646  0.00  0.00    -0.222 OA
ATOM      8  C   UNL     1      -9.668  15.555  66.995  0.00  0.00    +0.080 C 
ATOM      9  C   UNL     1     -11.036  15.709  67.584  0.00  0.00    +0.010 C 
ATOM     10  C   UNL     1      -9.614  14.661  65.839  0.00  0.00    +0.010 C 
ATOM     11  C   UNL     1      -8.955  16.867  66.826  0.00  0.00    +0.154 C 
ATOM     12  O   UNL     1      -8.288  16.885  65.797  0.00  0.00    -0.296 OA
ATOM     13  C   UNL     1      -9.913  18.150  67.053  0.00  0.00    +0.088 C 
ATOM     14  C   UNL     1     -10.799  17.792  65.719  0.00  0.00    +0.010 C 
ATOM     15  C   UNL     1      -8.895  19.247  66.183  0.00  0.00    +0.159 C 
ATOM     16  O   UNL     1     -10.076  20.111  65.788  0.00  0.00    -0.223 OA
ATOM     17  C   UNL     1      -8.585  20.244  67.560  0.00  0.00    +0.031 C 
ATOM     18  C   UNL     1      -8.378  19.018  68.620  0.00  0.00    +0.003 C 
ATOM     19  C   UNL     1      -6.988  20.284  67.205  0.00  0.00    +0.003 C 
ATOM     20  C   UNL     1      -6.251  20.706  68.417  0.00  0.00    +0.003 C 
ATOM     21  C   UNL     1      -5.767  19.643  69.317  0.00  0.00    +0.030 C 
ATOM     22  C   UNL     1      -4.360  19.599  69.426  0.00  0.00    +0.118 C 
ATOM     23  C   UNL     1      -3.828  18.070  69.819  0.00  0.00    +0.142 C 
ATOM     24  C   UNL     1      -3.286  20.458  68.931  0.00  0.00    +0.032 C 
ATOM     25  O   UNL     1      -3.907  19.251  70.963  0.00  0.00    -0.356 OA
ATOM     26  C   UNL     1      -5.414  17.479  70.204  0.00  0.00    +0.058 C 
ENDROOT
BRANCH   1  28
ATOM     27  C   UNL     1      -4.800  15.513  71.410  0.00  0.00    +0.028 C 
ATOM     28  C   UNL     1      -4.420  15.470  70.891  0.00  0.00    -0.023 C 
ATOM     29  C   UNL     1      -3.450  14.576  70.724  0.00  0.00    +0.013 C 
BRANCH  29  30
ATOM     30  C   UNL     1      -3.394  13.505  71.735  0.00  0.00    +0.087 A 
ATOM     31  N   UNL     1      -2.493  13.368  72.742  0.00  0.00    -0.243 NA
ATOM     32  C   UNL     1      -3.076  12.909  73.866  0.00  0.00    +0.089 A 
ATOM     33  C   UNL     1      -2.697  13.188  75.288  0.00  0.00    +0.059 C 
ATOM     34  S   UNL     1      -4.181  11.784  73.194  0.00  0.00    -0.070 S 
ATOM     35  C   UNL     1      -4.064  12.297  71.557  0.00  0.00    +0.056 A 
ENDBRANCH  29  30
ENDBRANCH   1  28
TORSDOF 2
ENDMDL
MODEL 6
REMARK VINA RESULT:      -6.8      1.388      1.550
REMARK  Name = 
REMARK  2 active torsions:
REMARK  status: ('A' for Active; 'I' for Inactive)
REMARK    1  A    between atoms: C_2  and  C_10
REMARK    2  A    between atoms: C_3  and  C_4
REMARK                            x       y       z     vdW  Elec       q    Type
REMARK                         _______ _______ _______ _____ _____    ______ ____
ROOT
ATOM      1  C   UNL     1     -11.313  10.690  67.517  0.00  0.00    +0.116 C 
ATOM      2  N   UNL     1      -9.811  10.609  66.963  0.00  0.00    -0.203 NA
ATOM      3  C   UNL     1      -9.947   9.786  65.790  0.00  0.00    +0.244 C 
ATOM      4  O   UNL     1      -9.480  10.132  64.661  0.00  0.00    -0.273 OA
ATOM      5  C   UNL     1      -9.754   8.386  66.303  0.00  0.00    +0.120 C 
ATOM      6  C   UNL     1      -8.079   8.408  66.093  0.00  0.00    +0.167 C 
ATOM      7  O   UNL     1      -8.236   8.115  64.580  0.00  0.00    -0.222 OA
ATOM      8  C   UNL     1      -7.890   6.800  66.528  0.00  0.00    +0.080 C 
ATOM      9  C   UNL     1      -6.419   6.789  66.803  0.00  0.00    +0.010 C 
ATOM     10  C   UNL     1      -8.295   5.950  65.410  0.00  0.00    +0.010 C 
ATOM     11  C   UNL     1      -8.716   6.657  67.776  0.00  0.00    +0.154 C 
ATOM     12  O   UNL     1      -9.714   5.973  67.576  0.00  0.00    -0.296 OA
ATOM     13  C   UNL     1      -7.846   6.250  69.077  0.00  0.00    +0.088 C 
ATOM     14  C   UNL     1      -7.488   4.779  68.444  0.00  0.00    +0.010 C 
ATOM     15  C   UNL     1      -9.195   5.629  69.966  0.00  0.00    +0.159 C 
ATOM     16  O   UNL     1      -8.315   4.658  70.726  0.00  0.00    -0.223 OA
ATOM     17  C   UNL     1      -9.055   6.796  71.233  0.00  0.00    +0.031 C 
ATOM     18  C   UNL     1      -8.761   8.075  70.259  0.00  0.00    +0.003 C 
ATOM     19  C   UNL     1     -10.669   7.068  71.198  0.00  0.00    +0.003 C 
ATOM     20  C   UNL     1     -10.939   8.359  71.868  0.00  0.00    +0.003 C 
ATOM     21  C   UNL     1     -10.974   9.566  71.020  0.00  0.00    +0.030 C 
ATOM     22  C   UNL     1     -12.234  10.202  71.002  0.00  0.00    +0.118 C 
ATOM     23  C   UNL     1     -12.462  11.057  69.592  0.00  0.00    +0.142 C 
ATOM     24  C   UNL     1     -13.478   9.988  71.738  0.00  0.00    +0.032 C 
ATOM     25  O   UNL     1     -12.061  11.832  70.988  0.00  0.00    -0.356 OA
ATOM     26  C   UNL     1     -10.804  10.927  69.094  0.00  0.00    +0.058 C 
ENDROOT
BRANCH   1  28
ATOM     27  C   UNL     1     -11.861  12.579  67.053  0.00  0.00    +0.028 C 
ATOM     28  C   UNL     1     -11.315  12.318  67.277  0.00  0.00    -0.023 C 
ATOM     29  C   UNL     1     -10.408  12.953  68.013  0.00  0.00    +0.013 C 
BRANCH  29  30
ATOM     30  C   UNL     1     -10.801  14.292  68.487  0.00  0.00    +0.087 A 
ATOM     31  N   UNL     1     -11.830  14.603  69.317  0.00  0.00    -0.243 NA
ATOM     32  C   UNL     1     -11.496  15.593  70.166  0.00  0.00    +0.089 A 
ATOM     33  C   UNL     1     -11.987  15.822  71.563  0.00  0.00    +0.059 C 
ATOM     34  S   UNL     1     -10.562  16.583  69.123  0.00  0.00    -0.070 S 
ATOM     35  C   UNL     1     -10.369  15.450  67.844  0.00  0.00    +0.056 A 
ENDBRANCH  29  30
ENDBRANCH   1  28
TORSDOF 2
ENDMDL
MODEL 7
REMARK VINA RESULT:      -6.8      5.005      9.706
REMARK  Name = 
REMARK  2 active torsions:
REMARK  status: ('A' for Active; 'I' for Inactive)
REMARK    1  A    between atoms: C_2  and  C_10
REMARK    2  A    between atoms: C_3  and  C_4
REMARK                            x       y       z     vdW  Elec       q    Type
REMARK                         _______ _______ _______ _____ _____    ______ ____
ROOT
ATOM      1  C   UNL     1     -10.025  15.536  67.503  0.00  0.00    +0.116 C 
ATOM      2  N   UNL     1     -10.006  16.788  68.504  0.00  0.00    -0.203 NA
ATOM      3  C   UNL     1     -10.034  17.914  67.607  0.00  0.00    +0.244 C 
ATOM      4  O   UNL     1     -10.869  18.862  67.735  0.00  0.00    -0.273 OA
ATOM      5  C   UNL     1      -8.583  18.201  67.338  0.00  0.00    +0.120 C 
ATOM      6  C   UNL     1      -8.420  19.251  68.651  0.00  0.00    +0.167 C 
ATOM      7  O   UNL     1      -9.071  20.404  67.847  0.00  0.00    -0.222 OA
ATOM      8  C   UNL     1      -6.847  19.677  68.259  0.00  0.00    +0.080 C 
ATOM      9  C   UNL     1      -6.419  20.272  69.565  0.00  0.00    +0.010 C 
ATOM     10  C   UNL     1      -6.870  20.628  67.149  0.00  0.00    +0.010 C 
ATOM     11  C   UNL     1      -6.172  18.366  67.967  0.00  0.00    +0.154 C 
ATOM     12  O   UNL     1      -5.914  18.251  66.774  0.00  0.00    -0.296 OA
ATOM     13  C   UNL     1      -4.952  18.036  68.975  0.00  0.00    +0.088 C 
ATOM     14  C   UNL     1      -4.064  19.289  68.397  0.00  0.00    +0.010 C 
ATOM     15  C   UNL     1      -4.189  16.900  67.914  0.00  0.00    +0.159 C 
ATOM     16  O   UNL     1      -2.820  17.204  68.488  0.00  0.00    -0.223 OA
ATOM     17  C   UNL     1      -4.384  15.569  68.998  0.00  0.00    +0.031 C 
ATOM     18  C   UNL     1      -5.913  15.934  69.448  0.00  0.00    +0.003 C 
ATOM     19  C   UNL     1      -4.911  14.616  67.776  0.00  0.00    +0.003 C 
ATOM     20  C   UNL     1      -5.617  13.455  68.362  0.00  0.00    +0.003 C 
ATOM     21  C   UNL     1      -7.074  13.578  68.556  0.00  0.00    +0.030 C 
ATOM     22  C   UNL     1      -7.822  12.657  67.790  0.00  0.00    +0.118 C 
ATOM     23  C   UNL     1      -9.350  13.234  67.468  0.00  0.00    +0.142 C 
ATOM     24  C   UNL     1      -7.455  11.528  66.938  0.00  0.00    +0.032 C 
ATOM     25  O   UNL     1      -9.109  12.104  68.641  0.00  0.00    -0.356 OA
ATOM     26  C   UNL     1      -9.231  14.548  68.595  0.00  0.00    +0.058 C 
ENDROOT
BRANCH   1  28
ATOM     27  C   UNL     1     -11.816  14.639  67.778  0.00  0.00    +0.028 C 
ATOM     28  C   UNL     1     -11.471  15.058  68.127  0.00  0.00    -0.023 C 
ATOM     29  C   UNL     1     -11.534  15.186  69.449  0.00  0.00    +0.013 C 
BRANCH  29  30
ATOM     30  C   UNL     1     -12.320  14.155  70.149  0.00  0.00    +0.087 A 
ATOM     31  N   UNL     1     -12.477  12.854  69.792  0.00  0.00    -0.243 NA
ATOM     32  C   UNL     1     -12.488  12.045  70.868  0.00  0.00    +0.089 A 
ATOM     33  C   UNL     1     -12.016  10.627  70.968  0.00  0.00    +0.059 C 
ATOM     34  S   UNL     1     -13.375  13.018  71.967  0.00  0.00    -0.070 S 
ATOM     35  C   UNL     1     -13.298  14.491  71.084  0.00  0.00    +0.056 A 
ENDBRANCH  29  30
ENDBRANCH   1  28
TORSDOF 2
ENDMDL
MODEL 8
REMARK VINA RESULT:      -6.7      4.857      8.278
REMARK  Name = 
REMARK  2 active torsions:
REMARK  status: ('A' for Active; 'I' for Inactive)
REMARK    1  A    between atoms: C_2  and  C_10
REMARK    2  A    between atoms: C_3  and  C_4
REMARK                            x       y       z     vdW  Elec       q    Type
REMARK                         _______ _______ _______ _____ _____    ______ ____
ROOT
ATOM      1  C   UNL     1      -8.472  17.838  67.065  0.00  0.00    +0.116 C 
ATOM      2  N   UNL     1      -8.794  17.061  65.700  0.00  0.00    -0.203 NA
ATOM      3  C   UNL     1     -10.218  16.864  65.773  0.00  0.00    +0.244 C 
ATOM      4  O   UNL     1     -10.996  17.184  64.822  0.00  0.00    -0.273 OA
ATOM      5  C   UNL     1     -10.368  15.542  66.474  0.00  0.00    +0.120 C 
ATOM      6  C   UNL     1     -10.316  14.640  65.047  0.00  0.00    +0.167 C 
ATOM      7  O   UNL     1     -11.805  14.956  64.759  0.00  0.00    -0.222 OA
ATOM      8  C   UNL     1     -10.629  13.187  65.823  0.00  0.00    +0.080 C 
ATOM      9  C   UNL     1     -10.192  12.236  64.752  0.00  0.00    +0.010 C 
ATOM     10  C   UNL     1     -12.053  13.111  66.143  0.00  0.00    +0.010 C 
ATOM     11  C   UNL     1      -9.703  13.195  67.007  0.00  0.00    +0.154 C 
ATOM     12  O   UNL     1     -10.323  13.321  68.058  0.00  0.00    -0.296 OA
ATOM     13  C   UNL     1      -8.620  11.995  66.981  0.00  0.00    +0.088 C 
ATOM     14  C   UNL     1      -9.791  10.861  67.165  0.00  0.00    +0.010 C 
ATOM     15  C   UNL     1      -8.296  12.054  68.681  0.00  0.00    +0.159 C 
ATOM     16  O   UNL     1      -7.943  10.581  68.718  0.00  0.00    -0.223 OA
ATOM     17  C   UNL     1      -6.635  12.481  68.475  0.00  0.00    +0.031 C 
ATOM     18  C   UNL     1      -6.880  13.562  67.274  0.00  0.00    +0.003 C 
ATOM     19  C   UNL     1      -6.763  13.641  69.622  0.00  0.00    +0.003 C 
ATOM     20  C   UNL     1      -5.627  14.577  69.468  0.00  0.00    +0.003 C 
ATOM     21  C   UNL     1      -5.838  15.759  68.610  0.00  0.00    +0.030 C 
ATOM     22  C   UNL     1      -5.740  16.983  69.307  0.00  0.00    +0.118 C 
ATOM     23  C   UNL     1      -6.632  18.177  68.566  0.00  0.00    +0.142 C 
ATOM     24  C   UNL     1      -5.355  17.332  70.673  0.00  0.00    +0.032 C 
ATOM     25  O   UNL     1      -4.996  18.117  68.387  0.00  0.00    -0.356 OA
ATOM     26  C   UNL     1      -6.905  17.255  67.121  0.00  0.00    +0.058 C 
ENDROOT
BRANCH   1  28
ATOM     27  C   UNL     1      -8.100  19.723  66.437  0.00  0.00    +0.028 C 
ATOM     28  C   UNL     1      -7.954  19.140  66.203  0.00  0.00    -0.023 C 
ATOM     29  C   UNL     1      -6.908  18.866  65.427  0.00  0.00    +0.013 C 
BRANCH  29  30
ATOM     30  C   UNL     1      -5.934  19.961  65.269  0.00  0.00    +0.087 A 
ATOM     31  N   UNL     1      -5.402  20.739  66.247  0.00  0.00    -0.243 NA
ATOM     32  C   UNL     1      -4.104  21.007  66.012  0.00  0.00    +0.089 A 
ATOM     33  C   UNL     1      -3.009  21.238  67.007  0.00  0.00    +0.059 C 
ATOM     34  S   UNL     1      -4.144  21.221  64.311  0.00  0.00    -0.070 S 
ATOM     35  C   UNL     1      -5.709  20.566  64.034  0.00  0.00    +0.056 A 
ENDBRANCH  29  30
ENDBRANCH   1  28
TORSDOF 2
ENDMDL
MODEL 9
REMARK VINA RESULT:      -6.7      4.329      7.107
REMARK  Name = 
REMARK  2 active torsions:
REMARK  status: ('A' for Active; 'I' for Inactive)
REMARK    1  A    between atoms: C_2  and  C_10
REMARK    2  A    between atoms: C_3  and  C_4
REMARK                            x       y       z     vdW  Elec       q    Type
REMARK                         _______ _______ _______ _____ _____    ______ ____
ROOT
ATOM      1  C   UNL     1      -7.841  16.159  68.232  0.00  0.00    +0.116 C 
ATOM      2  N   UNL     1      -8.096  15.991  66.658  0.00  0.00    -0.203 NA
ATOM      3  C   UNL     1      -9.522  16.160  66.546  0.00  0.00    +0.244 C 
ATOM      4  O   UNL     1     -10.046  16.968  65.719  0.00  0.00    -0.273 OA
ATOM      5  C   UNL     1     -10.067  14.768  66.708  0.00  0.00    +0.120 C 
ATOM      6  C   UNL     1      -9.979  14.409  65.060  0.00  0.00    +0.167 C 
ATOM      7  O   UNL     1     -11.297  15.179  64.793  0.00  0.00    -0.222 OA
ATOM      8  C   UNL     1     -10.722  12.916  65.231  0.00  0.00    +0.080 C 
ATOM      9  C   UNL     1     -10.332  12.296  63.925  0.00  0.00    +0.010 C 
ATOM     10  C   UNL     1     -12.161  13.112  65.393  0.00  0.00    +0.010 C 
ATOM     11  C   UNL     1     -10.023  12.290  66.405  0.00  0.00    +0.154 C 
ATOM     12  O   UNL     1     -10.763  12.217  67.380  0.00  0.00    -0.296 OA
ATOM     13  C   UNL     1      -9.236  10.928  66.029  0.00  0.00    +0.088 C 
ATOM     14  C   UNL     1     -10.638  10.144  65.701  0.00  0.00    +0.010 C 
ATOM     15  C   UNL     1      -9.189  10.334  67.655  0.00  0.00    +0.159 C 
ATOM     16  O   UNL     1      -9.174   8.893  67.183  0.00  0.00    -0.223 OA
ATOM     17  C   UNL     1      -7.464  10.356  67.745  0.00  0.00    +0.031 C 
ATOM     18  C   UNL     1      -7.270  11.799  67.001  0.00  0.00    +0.003 C 
ATOM     19  C   UNL     1      -7.523  11.060  69.221  0.00  0.00    +0.003 C 
ATOM     20  C   UNL     1      -6.202  11.665  69.502  0.00  0.00    +0.003 C 
ATOM     21  C   UNL     1      -6.009  13.076  69.117  0.00  0.00    +0.030 C 
ATOM     22  C   UNL     1      -5.763  13.929  70.214  0.00  0.00    +0.118 C 
ATOM     23  C   UNL     1      -6.241  15.490  69.890  0.00  0.00    +0.142 C 
ATOM     24  C   UNL     1      -5.540  13.692  71.640  0.00  0.00    +0.032 C 
ATOM     25  O   UNL     1      -4.651  15.069  69.827  0.00  0.00    -0.356 OA
ATOM     26  C   UNL     1      -6.468  15.204  68.193  0.00  0.00    +0.058 C 
ENDROOT
BRANCH   1  28
ATOM     27  C   UNL     1      -6.357  17.397  67.638  0.00  0.00    +0.028 C 
ATOM     28  C   UNL     1      -6.919  17.491  67.942  0.00  0.00    -0.023 C 
ATOM     29  C   UNL     1      -7.627  18.616  67.910  0.00  0.00    +0.013 C 
BRANCH  29  30
ATOM     30  C   UNL     1      -7.157  19.634  66.954  0.00  0.00    +0.087 A 
ATOM     31  N   UNL     1      -6.431  20.749  67.227  0.00  0.00    -0.243 NA
ATOM     32  C   UNL     1      -5.521  20.992  66.264  0.00  0.00    +0.089 A 
ATOM     33  C   UNL     1      -4.178  21.640  66.401  0.00  0.00    +0.059 C 
ATOM     34  S   UNL     1      -6.429  20.561  64.875  0.00  0.00    -0.070 S 
ATOM     35  C   UNL     1      -7.714  19.754  65.682  0.00  0.00    +0.056 A 
ENDBRANCH  29  30
ENDBRANCH   1  28
TORSDOF 2
ENDMDL
