MODEL 1
REMARK VINA RESULT:      -7.2      0.000      0.000
REMARK  Name = 
REMARK  23 active torsions:
REMARK  status: ('A' for Active; 'I' for Inactive)
REMARK    1  A    between atoms: C_2  and  C_4
REMARK    2  A    between atoms: C_4  and  N_5
REMARK    3  A    between atoms: N_5  and  C_6
REMARK    4  A    between atoms: N_5  and  C_48
REMARK    5  A    between atoms: C_6  and  C_7
REMARK    6  A    between atoms: C_7  and  N_8
REMARK    7  A    between atoms: N_8  and  C_9
REMARK    8  A    between atoms: N_8  and  C_13
REMARK    9  A    between atoms: C_9  and  C_10
REMARK   10  A    between atoms: C_13  and  C_14
REMARK   11  A    between atoms: C_14  and  C_15
REMARK   12  A    between atoms: C_14  and  N_39
REMARK   13  A    between atoms: C_15  and  O_16
REMARK   14  A    between atoms: O_16  and  P_17
REMARK   15  A    between atoms: P_17  and  O_20
REMARK   16  A    between atoms: O_20  and  C_21
REMARK   17  A    between atoms: C_24  and  C_25
REMARK   18  A    between atoms: C_24  and  C_31
REMARK   19  A    between atoms: N_39  and  C_40
REMARK   20  A    between atoms: N_39  and  C_44
REMARK   21  A    between atoms: C_40  and  C_41
REMARK   22  A    between atoms: C_44  and  C_45
REMARK   23  A    between atoms: C_48  and  C_49
REMARK                            x       y       z     vdW  Elec       q    Type
REMARK                         _______ _______ _______ _____ _____    ______ ____
ROOT
ATOM      1  C   UNL     1      -9.316  16.072  67.279  0.00  0.00    +0.105 C 
ENDROOT
BRANCH   1   2
ATOM      2  N   UNL     1      -9.272  17.597  67.757  0.00  0.00    -0.251 NA
BRANCH   2   3
ATOM      3  C   UNL     1     -10.522  18.152  67.312  0.00  0.00    +0.188 C 
BRANCH   3   4
ATOM      4  C   UNL     1     -10.511  18.608  65.912  0.00  0.00    +0.381 C 
ATOM      5  O   UNL     1     -10.940  17.748  64.923  0.00  0.00    -0.244 OA
ATOM      6  O   UNL     1     -10.619  19.839  65.683  0.00  0.00    -0.244 OA
ENDBRANCH   3   4
ENDBRANCH   2   3
BRANCH   2   7
ATOM      7  C   UNL     1      -8.127  18.164  67.095  0.00  0.00    +0.188 C 
BRANCH   7   8
ATOM      8  C   UNL     1      -7.547  19.326  67.795  0.00  0.00    +0.381 C 
ATOM      9  O   UNL     1      -7.685  20.564  67.159  0.00  0.00    -0.244 OA
ATOM     10  O   UNL     1      -7.513  19.400  69.062  0.00  0.00    -0.244 OA
ENDBRANCH   7   8
ENDBRANCH   2   7
ENDBRANCH   1   2
BRANCH   1  11
ATOM     11  C   UNL     1      -9.989  15.568  68.722  0.00  0.00    +0.091 C 
BRANCH  11  12
ATOM     12  N   UNL     1     -10.805  14.422  68.324  0.00  0.00    -0.261 NA
BRANCH  12  13
ATOM     13  C   UNL     1     -11.557  14.009  69.508  0.00  0.00    +0.090 C 
BRANCH  13  14
ATOM     14  C   UNL     1     -11.159  14.773  70.735  0.00  0.00    +0.091 C 
BRANCH  14  15
ATOM     15  N   UNL     1     -12.256  15.166  71.570  0.00  0.00    -0.252 NA
BRANCH  15  16
ATOM     16  C   UNL     1     -11.982  16.270  72.443  0.00  0.00    +0.188 C 
BRANCH  16  17
ATOM     17  C   UNL     1     -12.269  15.993  73.867  0.00  0.00    +0.381 C 
ATOM     18  O   UNL     1     -12.247  14.716  74.420  0.00  0.00    -0.244 OA
ATOM     19  O   UNL     1     -12.548  16.925  74.680  0.00  0.00    -0.244 OA
ENDBRANCH  16  17
ENDBRANCH  15  16
BRANCH  15  20
ATOM     20  C   UNL     1     -13.512  15.280  70.871  0.00  0.00    +0.188 C 
BRANCH  20  22
ATOM     21  O   UNL     1     -14.474  13.659  72.372  0.00  0.00    -0.244 OA
ATOM     22  C   UNL     1     -14.630  14.622  71.600  0.00  0.00    +0.381 C 
ATOM     23  O   UNL     1     -15.932  14.964  71.226  0.00  0.00    -0.244 OA
ENDBRANCH  20  22
ENDBRANCH  15  20
ENDBRANCH  14  15
ENDBRANCH  13  14
ENDBRANCH  12  13
BRANCH  12  24
ATOM     24  C   UNL     1     -11.787  14.788  67.336  0.00  0.00    +0.188 C 
BRANCH  24  25
ATOM     25  C   UNL     1     -12.076  13.717  66.365  0.00  0.00    +0.381 C 
ATOM     26  O   UNL     1     -12.783  14.114  65.224  0.00  0.00    -0.244 OA
ATOM     27  O   UNL     1     -12.133  12.491  66.672  0.00  0.00    -0.244 OA
ENDBRANCH  24  25
ENDBRANCH  12  24
ENDBRANCH  11  12
ENDBRANCH   1  11
BRANCH   1  28
ATOM     28  C   UNL     1      -7.768  15.779  67.828  0.00  0.00    +0.166 C 
BRANCH  28  29
ATOM     29  O   UNL     1      -7.271  14.787  67.022  0.00  0.00    -0.313 OA
BRANCH  29  30
ATOM     30  P   UNL     1      -6.812  13.415  67.863  0.00  0.00    +0.214 P 
ATOM     31  O   UNL     1      -5.522  12.704  67.023  0.00  0.00    -0.437 OA
ATOM     32  O   UNL     1      -6.330  13.856  69.224  0.00  0.00    -0.517 OA
BRANCH  30  33
ATOM     33  O   UNL     1      -8.057  12.320  68.102  0.00  0.00    -0.317 OA
BRANCH  33  34
ATOM     34  C   UNL     1      -7.788  11.055  67.615  0.00  0.00    +0.122 C 
ATOM     35  C   UNL     1      -7.208  10.127  68.659  0.00  0.00    +0.031 C 
ATOM     36  C   UNL     1      -8.166   9.878  69.800  0.00  0.00    +0.011 C 
ATOM     37  C   UNL     1      -9.536   9.469  69.337  0.00  0.00    +0.038 C 
ATOM     38  C   UNL     1     -10.066  10.386  68.246  0.00  0.00    +0.011 C 
ATOM     39  C   UNL     1      -9.075  10.408  67.114  0.00  0.00    +0.031 C 
BRANCH  37  40
ATOM     40  C   UNL     1     -10.460   9.627  70.501  0.00  0.00    -0.019 A 
ATOM     41  C   UNL     1     -10.381   8.660  71.478  0.00  0.00    -0.004 A 
ATOM     42  C   UNL     1     -11.408   8.412  72.371  0.00  0.00    -0.000 A 
ATOM     43  C   UNL     1     -12.661   8.913  72.065  0.00  0.00    -0.000 A 
ATOM     44  C   UNL     1     -12.762   9.910  71.131  0.00  0.00    -0.000 A 
ATOM     45  C   UNL     1     -11.717  10.154  70.249  0.00  0.00    -0.004 A 
ENDBRANCH  37  40
BRANCH  37  46
ATOM     46  C   UNL     1      -9.600   8.046  68.939  0.00  0.00    -0.019 A 
ATOM     47  C   UNL     1     -10.587   7.538  68.106  0.00  0.00    -0.004 A 
ATOM     48  C   UNL     1     -10.949   6.198  68.156  0.00  0.00    -0.000 A 
ATOM     49  C   UNL     1     -10.348   5.399  69.115  0.00  0.00    -0.000 A 
ATOM     50  C   UNL     1      -9.071   5.775  69.503  0.00  0.00    -0.000 A 
ATOM     51  C   UNL     1      -8.724   7.118  69.487  0.00  0.00    -0.004 A 
ENDBRANCH  37  46
ENDBRANCH  33  34
ENDBRANCH  30  33
ENDBRANCH  29  30
ENDBRANCH  28  29
ENDBRANCH   1  28
TORSDOF 23
ENDMDL
MODEL 2
REMARK VINA RESULT:      -7.2      2.182      5.521
REMARK  Name = 
REMARK  23 active torsions:
REMARK  status: ('A' for Active; 'I' for Inactive)
REMARK    1  A    between atoms: C_2  and  C_4
REMARK    2  A    between atoms: C_4  and  N_5
REMARK    3  A    between atoms: N_5  and  C_6
REMARK    4  A    between atoms: N_5  and  C_48
REMARK    5  A    between atoms: C_6  and  C_7
REMARK    6  A    between atoms: C_7  and  N_8
REMARK    7  A    between atoms: N_8  and  C_9
REMARK    8  A    between atoms: N_8  and  C_13
REMARK    9  A    between atoms: C_9  and  C_10
REMARK   10  A    between atoms: C_13  and  C_14
REMARK   11  A    between atoms: C_14  and  C_15
REMARK   12  A    between atoms: C_14  and  N_39
REMARK   13  A    between atoms: C_15  and  O_16
REMARK   14  A    between atoms: O_16  and  P_17
REMARK   15  A    between atoms: P_17  and  O_20
REMARK   16  A    between atoms: O_20  and  C_21
REMARK   17  A    between atoms: C_24  and  C_25
REMARK   18  A    between atoms: C_24  and  C_31
REMARK   19  A    between atoms: N_39  and  C_40
REMARK   20  A    between atoms: N_39  and  C_44
REMARK   21  A    between atoms: C_40  and  C_41
REMARK   22  A    between atoms: C_44  and  C_45
REMARK   23  A    between atoms: C_48  and  C_49
REMARK                            x       y       z     vdW  Elec       q    Type
REMARK                         _______ _______ _______ _____ _____    ______ ____
ROOT
ATOM      1  C   UNL     1     -11.734  13.541  67.676  0.00  0.00    +0.105 C 
ENDROOT
BRANCH   1   2
ATOM      2  N   UNL     1     -11.338  13.675  66.132  0.00  0.00    -0.251 NA
BRANCH   2   3
ATOM      3  C   UNL     1     -11.817  14.975  65.748  0.00  0.00    +0.188 C 
BRANCH   3   4
ATOM      4  C   UNL     1     -10.851  15.762  64.963  0.00  0.00    +0.381 C 
ATOM      5  O   UNL     1     -11.320  16.713  64.080  0.00  0.00    -0.244 OA
ATOM      6  O   UNL     1      -9.701  15.942  65.435  0.00  0.00    -0.244 OA
ENDBRANCH   3   4
ENDBRANCH   2   3
BRANCH   2   7
ATOM      7  C   UNL     1     -12.024  12.595  65.476  0.00  0.00    +0.188 C 
BRANCH   7   8
ATOM      8  C   UNL     1     -11.636  12.412  64.063  0.00  0.00    +0.381 C 
ATOM      9  O   UNL     1     -12.494  12.968  63.109  0.00  0.00    -0.244 OA
ATOM     10  O   UNL     1     -10.421  12.370  63.699  0.00  0.00    -0.244 OA
ENDBRANCH   7   8
ENDBRANCH   2   7
ENDBRANCH   1   2
BRANCH   1  11
ATOM     11  C   UNL     1     -10.203  13.985  68.177  0.00  0.00    +0.091 C 
BRANCH  11  12
ATOM     12  N   UNL     1     -10.469  14.833  69.338  0.00  0.00    -0.261 NA
BRANCH  12  13
ATOM     13  C   UNL     1      -9.732  16.079  69.126  0.00  0.00    +0.090 C 
BRANCH  13  14
ATOM     14  C   UNL     1     -10.604  17.178  68.596  0.00  0.00    +0.091 C 
BRANCH  14  15
ATOM     15  N   UNL     1      -9.889  18.336  68.146  0.00  0.00    -0.252 NA
BRANCH  15  16
ATOM     16  C   UNL     1     -10.687  19.301  67.447  0.00  0.00    +0.188 C 
BRANCH  16  17
ATOM     17  C   UNL     1     -10.259  19.532  66.050  0.00  0.00    +0.381 C 
ATOM     18  O   UNL     1      -8.929  19.512  65.641  0.00  0.00    -0.244 OA
ATOM     19  O   UNL     1     -11.101  19.756  65.129  0.00  0.00    -0.244 OA
ENDBRANCH  16  17
ENDBRANCH  15  16
BRANCH  15  20
ATOM     20  C   UNL     1      -9.024  18.914  69.144  0.00  0.00    +0.188 C 
BRANCH  20  22
ATOM     21  O   UNL     1      -7.116  18.126  67.900  0.00  0.00    -0.244 OA
ATOM     22  C   UNL     1      -7.598  18.928  68.720  0.00  0.00    +0.381 C 
ATOM     23  O   UNL     1      -6.719  19.739  69.443  0.00  0.00    -0.244 OA
ENDBRANCH  20  22
ENDBRANCH  15  20
ENDBRANCH  14  15
ENDBRANCH  13  14
ENDBRANCH  12  13
BRANCH  12  24
ATOM     24  C   UNL     1     -11.858  15.202  69.418  0.00  0.00    +0.188 C 
BRANCH  24  25
ATOM     25  C   UNL     1     -12.438  15.033  70.764  0.00  0.00    +0.381 C 
ATOM     26  O   UNL     1     -12.520  13.713  71.222  0.00  0.00    -0.244 OA
ATOM     27  O   UNL     1     -13.220  15.872  71.299  0.00  0.00    -0.244 OA
ENDBRANCH  24  25
ENDBRANCH  12  24
ENDBRANCH  11  12
ENDBRANCH   1  11
BRANCH   1  28
ATOM     28  C   UNL     1     -11.342  11.919  67.711  0.00  0.00    +0.166 C 
BRANCH  28  29
ATOM     29  O   UNL     1      -9.972  11.871  67.749  0.00  0.00    -0.313 OA
BRANCH  29  30
ATOM     30  P   UNL     1      -9.357  10.323  67.586  0.00  0.00    +0.214 P 
ATOM     31  O   UNL     1      -9.534   9.867  65.963  0.00  0.00    -0.437 OA
ATOM     32  O   UNL     1      -7.887  10.380  67.924  0.00  0.00    -0.517 OA
BRANCH  30  33
ATOM     33  O   UNL     1     -10.066   9.204  68.612  0.00  0.00    -0.317 OA
BRANCH  33  34
ATOM     34  C   UNL     1      -9.158   8.493  69.373  0.00  0.00    +0.122 C 
ATOM     35  C   UNL     1      -8.987   9.051  70.769  0.00  0.00    +0.031 C 
ATOM     36  C   UNL     1     -10.265   8.984  71.573  0.00  0.00    +0.011 C 
ATOM     37  C   UNL     1     -10.900   7.622  71.551  0.00  0.00    +0.038 C 
ATOM     38  C   UNL     1     -11.003   7.063  70.141  0.00  0.00    +0.011 C 
ATOM     39  C   UNL     1      -9.629   7.050  69.528  0.00  0.00    +0.031 C 
BRANCH  37  40
ATOM     40  C   UNL     1     -12.303   7.783  72.041  0.00  0.00    -0.019 A 
ATOM     41  C   UNL     1     -13.191   6.794  71.683  0.00  0.00    -0.004 A 
ATOM     42  C   UNL     1     -14.561   6.985  71.675  0.00  0.00    -0.000 A 
ATOM     43  C   UNL     1     -15.029   8.286  71.703  0.00  0.00    -0.000 A 
ATOM     44  C   UNL     1     -14.180   9.284  72.101  0.00  0.00    -0.000 A 
ATOM     45  C   UNL     1     -12.807   9.073  72.114  0.00  0.00    -0.004 A 
ENDBRANCH  37  40
BRANCH  37  46
ATOM     46  C   UNL     1     -10.240   6.671  72.473  0.00  0.00    -0.019 A 
ATOM     47  C   UNL     1      -9.998   5.346  72.144  0.00  0.00    -0.004 A 
ATOM     48  C   UNL     1      -9.878   4.373  73.128  0.00  0.00    -0.000 A 
ATOM     49  C   UNL     1     -10.083   4.752  74.444  0.00  0.00    -0.000 A 
ATOM     50  C   UNL     1      -9.779   6.070  74.749  0.00  0.00    -0.000 A 
ATOM     51  C   UNL     1      -9.935   7.046  73.775  0.00  0.00    -0.004 A 
ENDBRANCH  37  46
ENDBRANCH  33  34
ENDBRANCH  30  33
ENDBRANCH  29  30
ENDBRANCH  28  29
ENDBRANCH   1  28
TORSDOF 23
ENDMDL
MODEL 3
REMARK VINA RESULT:      -7.1      2.364      5.790
REMARK  Name = 
REMARK  23 active torsions:
REMARK  status: ('A' for Active; 'I' for Inactive)
REMARK    1  A    between atoms: C_2  and  C_4
REMARK    2  A    between atoms: C_4  and  N_5
REMARK    3  A    between atoms: N_5  and  C_6
REMARK    4  A    between atoms: N_5  and  C_48
REMARK    5  A    between atoms: C_6  and  C_7
REMARK    6  A    between atoms: C_7  and  N_8
REMARK    7  A    between atoms: N_8  and  C_9
REMARK    8  A    between atoms: N_8  and  C_13
REMARK    9  A    between atoms: C_9  and  C_10
REMARK   10  A    between atoms: C_13  and  C_14
REMARK   11  A    between atoms: C_14  and  C_15
REMARK   12  A    between atoms: C_14  and  N_39
REMARK   13  A    between atoms: C_15  and  O_16
REMARK   14  A    between atoms: O_16  and  P_17
REMARK   15  A    between atoms: P_17  and  O_20
REMARK   16  A    between atoms: O_20  and  C_21
REMARK   17  A    between atoms: C_24  and  C_25
REMARK   18  A    between atoms: C_24  and  C_31
REMARK   19  A    between atoms: N_39  and  C_40
REMARK   20  A    between atoms: N_39  and  C_44
REMARK   21  A    between atoms: C_40  and  C_41
REMARK   22  A    between atoms: C_44  and  C_45
REMARK   23  A    between atoms: C_48  and  C_49
REMARK                            x       y       z     vdW  Elec       q    Type
REMARK                         _______ _______ _______ _____ _____    ______ ____
ROOT
ATOM      1  C   UNL     1      -9.542  15.066  67.580  0.00  0.00    +0.105 C 
ENDROOT
BRANCH   1   2
ATOM      2  N   UNL     1     -10.938  15.365  66.860  0.00  0.00    -0.251 NA
BRANCH   2   3
ATOM      3  C   UNL     1     -11.896  14.575  67.583  0.00  0.00    +0.188 C 
BRANCH   3   4
ATOM      4  C   UNL     1     -11.880  14.797  69.039  0.00  0.00    +0.381 C 
ATOM      5  O   UNL     1     -12.239  16.033  69.534  0.00  0.00    -0.244 OA
ATOM      6  O   UNL     1     -12.049  13.809  69.797  0.00  0.00    -0.244 OA
ENDBRANCH   3   4
ENDBRANCH   2   3
BRANCH   2   7
ATOM      7  C   UNL     1     -10.755  14.937  65.498  0.00  0.00    +0.188 C 
BRANCH   7   8
ATOM      8  C   UNL     1     -11.810  15.404  64.578  0.00  0.00    +0.381 C 
ATOM      9  O   UNL     1     -11.553  16.599  63.897  0.00  0.00    -0.244 OA
ATOM     10  O   UNL     1     -12.550  14.596  63.937  0.00  0.00    -0.244 OA
ENDBRANCH   7   8
ENDBRANCH   2   7
ENDBRANCH   1   2
BRANCH   1  11
ATOM     11  C   UNL     1      -8.706  16.041  66.512  0.00  0.00    +0.091 C 
BRANCH  11  12
ATOM     12  N   UNL     1      -8.518  17.277  67.272  0.00  0.00    -0.261 NA
BRANCH  12  13
ATOM     13  C   UNL     1      -7.087  17.387  67.551  0.00  0.00    +0.090 C 
BRANCH  13  14
ATOM     14  C   UNL     1      -6.810  18.006  68.889  0.00  0.00    +0.091 C 
BRANCH  14  15
ATOM     15  N   UNL     1      -6.005  19.192  68.837  0.00  0.00    -0.252 NA
BRANCH  15  16
ATOM     16  C   UNL     1      -5.051  19.316  69.900  0.00  0.00    +0.188 C 
BRANCH  16  17
ATOM     17  C   UNL     1      -5.325  20.441  70.821  0.00  0.00    +0.381 C 
ATOM     18  O   UNL     1      -4.678  21.671  70.745  0.00  0.00    -0.244 OA
ATOM     19  O   UNL     1      -6.190  20.345  71.743  0.00  0.00    -0.244 OA
ENDBRANCH  16  17
ENDBRANCH  15  16
BRANCH  15  20
ATOM     20  C   UNL     1      -5.460  19.472  67.533  0.00  0.00    +0.188 C 
BRANCH  20  22
ATOM     21  O   UNL     1      -4.608  21.656  66.976  0.00  0.00    -0.244 OA
ATOM     22  C   UNL     1      -5.584  20.908  67.162  0.00  0.00    +0.381 C 
ATOM     23  O   UNL     1      -6.853  21.486  67.244  0.00  0.00    -0.244 OA
ENDBRANCH  20  22
ENDBRANCH  15  20
ENDBRANCH  14  15
ENDBRANCH  13  14
ENDBRANCH  12  13
BRANCH  12  24
ATOM     24  C   UNL     1      -8.861  18.436  66.489  0.00  0.00    +0.188 C 
BRANCH  24  25
ATOM     25  C   UNL     1     -10.284  18.813  66.583  0.00  0.00    +0.381 C 
ATOM     26  O   UNL     1     -10.730  19.724  65.619  0.00  0.00    -0.244 OA
ATOM     27  O   UNL     1     -10.958  18.738  67.651  0.00  0.00    -0.244 OA
ENDBRANCH  24  25
ENDBRANCH  12  24
ENDBRANCH  11  12
ENDBRANCH   1  11
BRANCH   1  28
ATOM     28  C   UNL     1      -9.269  13.708  66.649  0.00  0.00    +0.166 C 
BRANCH  28  29
ATOM     29  O   UNL     1      -8.955  12.710  67.535  0.00  0.00    -0.313 OA
BRANCH  29  30
ATOM     30  P   UNL     1      -9.552  11.212  67.087  0.00  0.00    +0.214 P 
ATOM     31  O   UNL     1     -10.870  11.471  66.053  0.00  0.00    -0.437 OA
ATOM     32  O   UNL     1      -8.462  10.497  66.326  0.00  0.00    -0.517 OA
BRANCH  30  33
ATOM     33  O   UNL     1      -9.980  10.240  68.383  0.00  0.00    -0.317 OA
BRANCH  33  34
ATOM     34  C   UNL     1      -9.049   9.263  68.679  0.00  0.00    +0.122 C 
ATOM     35  C   UNL     1      -8.577   9.307  70.115  0.00  0.00    +0.031 C 
ATOM     36  C   UNL     1      -9.696   9.046  71.095  0.00  0.00    +0.011 C 
ATOM     37  C   UNL     1     -10.486   7.811  70.767  0.00  0.00    +0.038 C 
ATOM     38  C   UNL     1     -10.895   7.767  69.303  0.00  0.00    +0.011 C 
ATOM     39  C   UNL     1      -9.657   7.882  68.455  0.00  0.00    +0.031 C 
BRANCH  37  40
ATOM     40  C   UNL     1     -11.756   7.878  71.553  0.00  0.00    -0.019 A 
ATOM     41  C   UNL     1     -12.721   6.950  71.234  0.00  0.00    -0.004 A 
ATOM     42  C   UNL     1     -14.059   7.127  71.538  0.00  0.00    -0.000 A 
ATOM     43  C   UNL     1     -14.480   8.403  71.867  0.00  0.00    -0.000 A 
ATOM     44  C   UNL     1     -13.544   9.331  72.236  0.00  0.00    -0.000 A 
ATOM     45  C   UNL     1     -12.203   9.134  71.933  0.00  0.00    -0.004 A 
ENDBRANCH  37  40
BRANCH  37  46
ATOM     46  C   UNL     1      -9.799   6.569  71.183  0.00  0.00    -0.019 A 
ATOM     47  C   UNL     1      -9.826   5.403  70.432  0.00  0.00    -0.004 A 
ATOM     48  C   UNL     1      -9.651   4.161  71.030  0.00  0.00    -0.000 A 
ATOM     49  C   UNL     1      -9.526   4.115  72.408  0.00  0.00    -0.000 A 
ATOM     50  C   UNL     1      -8.977   5.240  73.004  0.00  0.00    -0.000 A 
ATOM     51  C   UNL     1      -9.183   6.485  72.426  0.00  0.00    -0.004 A 
ENDBRANCH  37  46
ENDBRANCH  33  34
ENDBRANCH  30  33
ENDBRANCH  29  30
ENDBRANCH  28  29
ENDBRANCH   1  28
TORSDOF 23
ENDMDL
MODEL 4
REMARK VINA RESULT:      -7.1      2.594      7.918
REMARK  Name = 
REMARK  23 active torsions:
REMARK  status: ('A' for Active; 'I' for Inactive)
REMARK    1  A    between atoms: C_2  and  C_4
REMARK    2  A    between atoms: C_4  and  N_5
REMARK    3  A    between atoms: N_5  and  C_6
REMARK    4  A    between atoms: N_5  and  C_48
REMARK    5  A    between atoms: C_6  and  C_7
REMARK    6  A    between atoms: C_7  and  N_8
REMARK    7  A    between atoms: N_8  and  C_9
REMARK    8  A    between atoms: N_8  and  C_13
REMARK    9  A    between atoms: C_9  and  C_10
REMARK   10  A    between atoms: C_13  and  C_14
REMARK   11  A    between atoms: C_14  and  C_15
REMARK   12  A    between atoms: C_14  and  N_39
REMARK   13  A    between atoms: C_15  and  O_16
REMARK   14  A    between atoms: O_16  and  P_17
REMARK   15  A    between atoms: P_17  and  O_20
REMARK   16  A    between atoms: O_20  and  C_21
REMARK   17  A    between atoms: C_24  and  C_25
REMARK   18  A    between atoms: C_24  and  C_31
REMARK   19  A    between atoms: N_39  and  C_40
REMARK   20  A    between atoms: N_39  and  C_44
REMARK   21  A    between atoms: C_40  and  C_41
REMARK   22  A    between atoms: C_44  and  C_45
REMARK   23  A    between atoms: C_48  and  C_49
REMARK                            x       y       z     vdW  Elec       q    Type
REMARK                         _______ _______ _______ _____ _____    ______ ____
ROOT
ATOM      1  C   UNL     1     -10.238  12.451  67.070  0.00  0.00    +0.105 C 
ENDROOT
BRANCH   1   2
ATOM      2  N   UNL     1     -10.634  13.255  65.744  0.00  0.00    -0.251 NA
BRANCH   2   3
ATOM      3  C   UNL     1     -10.868  14.600  66.193  0.00  0.00    +0.188 C 
BRANCH   3   4
ATOM      4  C   UNL     1     -10.382  15.636  65.265  0.00  0.00    +0.381 C 
ATOM      5  O   UNL     1     -11.237  16.129  64.301  0.00  0.00    -0.244 OA
ATOM      6  O   UNL     1      -9.456  16.394  65.647  0.00  0.00    -0.244 OA
ENDBRANCH   3   4
ENDBRANCH   2   3
BRANCH   2   7
ATOM      7  C   UNL     1     -11.817  12.602  65.252  0.00  0.00    +0.188 C 
BRANCH   7   8
ATOM      8  C   UNL     1     -11.854  12.461  63.783  0.00  0.00    +0.381 C 
ATOM      9  O   UNL     1     -10.654  12.092  63.166  0.00  0.00    -0.244 OA
ATOM     10  O   UNL     1     -12.891  12.059  63.172  0.00  0.00    -0.244 OA
ENDBRANCH   7   8
ENDBRANCH   2   7
ENDBRANCH   1   2
BRANCH   1  11
ATOM     11  C   UNL     1     -11.367  13.273  67.986  0.00  0.00    +0.091 C 
BRANCH  11  12
ATOM     12  N   UNL     1     -11.474  12.452  69.192  0.00  0.00    -0.261 NA
BRANCH  12  13
ATOM     13  C   UNL     1     -12.606  12.973  69.957  0.00  0.00    +0.090 C 
BRANCH  13  14
ATOM     14  C   UNL     1     -12.172  13.748  71.166  0.00  0.00    +0.091 C 
BRANCH  14  15
ATOM     15  N   UNL     1     -12.593  15.119  71.174  0.00  0.00    -0.252 NA
BRANCH  15  16
ATOM     16  C   UNL     1     -13.565  15.443  72.176  0.00  0.00    +0.188 C 
BRANCH  16  17
ATOM     17  C   UNL     1     -12.989  15.643  73.524  0.00  0.00    +0.381 C 
ATOM     18  O   UNL     1     -12.559  14.598  74.338  0.00  0.00    -0.244 OA
ATOM     19  O   UNL     1     -12.845  16.802  74.017  0.00  0.00    -0.244 OA
ENDBRANCH  16  17
ENDBRANCH  15  16
BRANCH  15  20
ATOM     20  C   UNL     1     -11.507  16.064  71.093  0.00  0.00    +0.188 C 
BRANCH  20  22
ATOM     21  O   UNL     1      -9.793  16.250  69.409  0.00  0.00    -0.244 OA
ATOM     22  C   UNL     1     -11.002  16.230  69.703  0.00  0.00    +0.381 C 
ATOM     23  O   UNL     1     -11.925  16.600  68.722  0.00  0.00    -0.244 OA
ENDBRANCH  20  22
ENDBRANCH  15  20
ENDBRANCH  14  15
ENDBRANCH  13  14
ENDBRANCH  12  13
BRANCH  12  24
ATOM     24  C   UNL     1     -11.803  11.086  68.876  0.00  0.00    +0.188 C 
BRANCH  24  25
ATOM     25  C   UNL     1     -11.071  10.098  69.690  0.00  0.00    +0.381 C 
ATOM     26  O   UNL     1     -11.847   9.381  70.608  0.00  0.00    -0.244 OA
ATOM     27  O   UNL     1      -9.830  10.169  69.927  0.00  0.00    -0.244 OA
ENDBRANCH  24  25
ENDBRANCH  12  24
ENDBRANCH  11  12
ENDBRANCH   1  11
BRANCH   1  28
ATOM     28  C   UNL     1      -9.037  13.541  67.460  0.00  0.00    +0.166 C 
BRANCH  28  29
ATOM     29  O   UNL     1      -7.870  12.821  67.459  0.00  0.00    -0.313 OA
BRANCH  29  30
ATOM     30  P   UNL     1      -6.544  13.705  67.970  0.00  0.00    +0.214 P 
ATOM     31  O   UNL     1      -6.285  13.345  69.607  0.00  0.00    -0.437 OA
ATOM     32  O   UNL     1      -5.351  13.241  67.170  0.00  0.00    -0.517 OA
BRANCH  30  33
ATOM     33  O   UNL     1      -6.698  15.356  67.729  0.00  0.00    -0.317 OA
BRANCH  33  34
ATOM     34  C   UNL     1      -5.525  16.060  67.924  0.00  0.00    +0.122 C 
ATOM     35  C   UNL     1      -5.192  16.988  66.776  0.00  0.00    +0.031 C 
ATOM     36  C   UNL     1      -6.233  18.066  66.590  0.00  0.00    +0.011 C 
ATOM     37  C   UNL     1      -6.560  18.791  67.865  0.00  0.00    +0.038 C 
ATOM     38  C   UNL     1      -6.832  17.832  69.013  0.00  0.00    +0.011 C 
ATOM     39  C   UNL     1      -5.642  16.926  69.174  0.00  0.00    +0.031 C 
BRANCH  37  40
ATOM     40  C   UNL     1      -7.835  19.537  67.633  0.00  0.00    -0.019 A 
ATOM     41  C   UNL     1      -8.793  19.427  68.615  0.00  0.00    -0.004 A 
ATOM     42  C   UNL     1     -10.134  19.677  68.383  0.00  0.00    -0.000 A 
ATOM     43  C   UNL     1     -10.564  19.713  67.069  0.00  0.00    -0.000 A 
ATOM     44  C   UNL     1      -9.634  19.871  66.076  0.00  0.00    -0.000 A 
ATOM     45  C   UNL     1      -8.290  19.626  66.326  0.00  0.00    -0.004 A 
ENDBRANCH  37  40
BRANCH  37  46
ATOM     46  C   UNL     1      -5.541  19.802  68.222  0.00  0.00    -0.019 A 
ATOM     47  C   UNL     1      -4.473  20.123  67.396  0.00  0.00    -0.004 A 
ATOM     48  C   UNL     1      -3.293  20.640  67.917  0.00  0.00    -0.000 A 
ATOM     49  C   UNL     1      -3.186  20.755  69.293  0.00  0.00    -0.000 A 
ATOM     50  C   UNL     1      -4.376  20.948  69.979  0.00  0.00    -0.000 A 
ATOM     51  C   UNL     1      -5.547  20.400  69.476  0.00  0.00    -0.004 A 
ENDBRANCH  37  46
ENDBRANCH  33  34
ENDBRANCH  30  33
ENDBRANCH  29  30
ENDBRANCH  28  29
ENDBRANCH   1  28
TORSDOF 23
ENDMDL
MODEL 5
REMARK VINA RESULT:      -7.0      1.675      3.795
REMARK  Name = 
REMARK  23 active torsions:
REMARK  status: ('A' for Active; 'I' for Inactive)
REMARK    1  A    between atoms: C_2  and  C_4
REMARK    2  A    between atoms: C_4  and  N_5
REMARK    3  A    between atoms: N_5  and  C_6
REMARK    4  A    between atoms: N_5  and  C_48
REMARK    5  A    between atoms: C_6  and  C_7
REMARK    6  A    between atoms: C_7  and  N_8
REMARK    7  A    between atoms: N_8  and  C_9
REMARK    8  A    between atoms: N_8  and  C_13
REMARK    9  A    between atoms: C_9  and  C_10
REMARK   10  A    between atoms: C_13  and  C_14
REMARK   11  A    between atoms: C_14  and  C_15
REMARK   12  A    between atoms: C_14  and  N_39
REMARK   13  A    between atoms: C_15  and  O_16
REMARK   14  A    between atoms: O_16  and  P_17
REMARK   15  A    between atoms: P_17  and  O_20
REMARK   16  A    between atoms: O_20  and  C_21
REMARK   17  A    between atoms: C_24  and  C_25
REMARK   18  A    between atoms: C_24  and  C_31
REMARK   19  A    between atoms: N_39  and  C_40
REMARK   20  A    between atoms: N_39  and  C_44
REMARK   21  A    between atoms: C_40  and  C_41
REMARK   22  A    between atoms: C_44  and  C_45
REMARK   23  A    between atoms: C_48  and  C_49
REMARK                            x       y       z     vdW  Elec       q    Type
REMARK                         _______ _______ _______ _____ _____    ______ ____
ROOT
ATOM      1  C   UNL     1     -11.139  14.120  67.419  0.00  0.00    +0.105 C 
ENDROOT
BRANCH   1   2
ATOM      2  N   UNL     1     -11.520  13.943  65.876  0.00  0.00    -0.251 NA
BRANCH   2   3
ATOM      3  C   UNL     1     -11.185  12.578  65.574  0.00  0.00    +0.188 C 
BRANCH   3   4
ATOM      4  C   UNL     1     -11.879  12.037  64.393  0.00  0.00    +0.381 C 
ATOM      5  O   UNL     1     -13.254  12.122  64.325  0.00  0.00    -0.244 OA
ATOM      6  O   UNL     1     -11.257  11.989  63.303  0.00  0.00    -0.244 OA
ENDBRANCH   3   4
ENDBRANCH   2   3
BRANCH   2   7
ATOM      7  C   UNL     1     -10.704  14.900  65.178  0.00  0.00    +0.188 C 
BRANCH   7   8
ATOM      8  C   UNL     1     -11.456  15.753  64.236  0.00  0.00    +0.381 C 
ATOM      9  O   UNL     1     -12.734  15.308  63.884  0.00  0.00    -0.244 OA
ATOM     10  O   UNL     1     -11.329  17.016  64.225  0.00  0.00    -0.244 OA
ENDBRANCH   7   8
ENDBRANCH   2   7
ENDBRANCH   1   2
BRANCH   1  11
ATOM     11  C   UNL     1     -10.414  15.598  67.140  0.00  0.00    +0.091 C 
BRANCH  11  12
ATOM     12  N   UNL     1     -11.116  16.490  68.063  0.00  0.00    -0.261 NA
BRANCH  12  13
ATOM     13  C   UNL     1     -11.775  15.639  69.052  0.00  0.00    +0.090 C 
BRANCH  13  14
ATOM     14  C   UNL     1     -11.433  16.027  70.460  0.00  0.00    +0.091 C 
BRANCH  14  15
ATOM     15  N   UNL     1     -12.438  15.692  71.427  0.00  0.00    -0.252 NA
BRANCH  15  16
ATOM     16  C   UNL     1     -13.396  14.721  70.986  0.00  0.00    +0.188 C 
BRANCH  16  17
ATOM     17  C   UNL     1     -13.046  13.329  71.347  0.00  0.00    +0.381 C 
ATOM     18  O   UNL     1     -12.098  12.574  70.663  0.00  0.00    -0.244 OA
ATOM     19  O   UNL     1     -13.597  12.742  72.326  0.00  0.00    -0.244 OA
ENDBRANCH  16  17
ENDBRANCH  15  16
BRANCH  15  20
ATOM     20  C   UNL     1     -11.916  15.432  72.746  0.00  0.00    +0.188 C 
BRANCH  20  22
ATOM     21  O   UNL     1     -12.473  15.975  75.027  0.00  0.00    -0.244 OA
ATOM     22  C   UNL     1     -12.754  16.038  73.817  0.00  0.00    +0.381 C 
ATOM     23  O   UNL     1     -14.021  16.504  73.457  0.00  0.00    -0.244 OA
ENDBRANCH  20  22
ENDBRANCH  15  20
ENDBRANCH  14  15
ENDBRANCH  13  14
ENDBRANCH  12  13
BRANCH  12  24
ATOM     24  C   UNL     1     -10.198  17.319  68.800  0.00  0.00    +0.188 C 
BRANCH  24  25
ATOM     25  C   UNL     1     -10.111  18.701  68.292  0.00  0.00    +0.381 C 
ATOM     26  O   UNL     1      -9.390  19.593  69.094  0.00  0.00    -0.244 OA
ATOM     27  O   UNL     1     -10.951  19.206  67.492  0.00  0.00    -0.244 OA
ENDBRANCH  24  25
ENDBRANCH  12  24
ENDBRANCH  11  12
ENDBRANCH   1  11
BRANCH   1  28
ATOM     28  C   UNL     1      -9.695  13.306  67.232  0.00  0.00    +0.166 C 
BRANCH  28  29
ATOM     29  O   UNL     1      -8.927  13.664  68.310  0.00  0.00    -0.313 OA
BRANCH  29  30
ATOM     30  P   UNL     1      -7.497  12.801  68.423  0.00  0.00    +0.214 P 
ATOM     31  O   UNL     1      -6.789  12.776  66.882  0.00  0.00    -0.437 OA
ATOM     32  O   UNL     1      -6.589  13.546  69.370  0.00  0.00    -0.517 OA
BRANCH  30  33
ATOM     33  O   UNL     1      -7.689  11.250  69.027  0.00  0.00    -0.317 OA
BRANCH  33  34
ATOM     34  C   UNL     1      -7.376  10.256  68.120  0.00  0.00    +0.122 C 
ATOM     35  C   UNL     1      -6.953   8.962  68.780  0.00  0.00    +0.031 C 
ATOM     36  C   UNL     1      -8.057   8.355  69.613  0.00  0.00    +0.011 C 
ATOM     37  C   UNL     1      -9.359   8.246  68.870  0.00  0.00    +0.038 C 
ATOM     38  C   UNL     1      -9.727   9.544  68.169  0.00  0.00    +0.011 C 
ATOM     39  C   UNL     1      -8.594   9.937  67.260  0.00  0.00    +0.031 C 
BRANCH  37  40
ATOM     40  C   UNL     1     -10.427   8.003  69.887  0.00  0.00    -0.019 A 
ATOM     41  C   UNL     1     -11.082   9.117  70.362  0.00  0.00    -0.004 A 
ATOM     42  C   UNL     1     -11.763   9.128  71.566  0.00  0.00    -0.000 A 
ATOM     43  C   UNL     1     -11.501   8.108  72.463  0.00  0.00    -0.000 A 
ATOM     44  C   UNL     1     -10.894   6.969  72.006  0.00  0.00    -0.000 A 
ATOM     45  C   UNL     1     -10.223   6.970  70.789  0.00  0.00    -0.004 A 
ENDBRANCH  37  40
BRANCH  37  46
ATOM     46  C   UNL     1      -9.390   7.093  67.944  0.00  0.00    -0.019 A 
ATOM     47  C   UNL     1     -10.479   6.804  67.133  0.00  0.00    -0.004 A 
ATOM     48  C   UNL     1     -10.719   5.510  66.689  0.00  0.00    -0.000 A 
ATOM     49  C   UNL     1      -9.884   4.503  67.141  0.00  0.00    -0.000 A 
ATOM     50  C   UNL     1      -8.588   4.885  67.454  0.00  0.00    -0.000 A 
ATOM     51  C   UNL     1      -8.355   6.167  67.933  0.00  0.00    -0.004 A 
ENDBRANCH  37  46
ENDBRANCH  33  34
ENDBRANCH  30  33
ENDBRANCH  29  30
ENDBRANCH  28  29
ENDBRANCH   1  28
TORSDOF 23
ENDMDL
MODEL 6
REMARK VINA RESULT:      -7.0      2.205      4.434
REMARK  Name = 
REMARK  23 active torsions:
REMARK  status: ('A' for Active; 'I' for Inactive)
REMARK    1  A    between atoms: C_2  and  C_4
REMARK    2  A    between atoms: C_4  and  N_5
REMARK    3  A    between atoms: N_5  and  C_6
REMARK    4  A    between atoms: N_5  and  C_48
REMARK    5  A    between atoms: C_6  and  C_7
REMARK    6  A    between atoms: C_7  and  N_8
REMARK    7  A    between atoms: N_8  and  C_9
REMARK    8  A    between atoms: N_8  and  C_13
REMARK    9  A    between atoms: C_9  and  C_10
REMARK   10  A    between atoms: C_13  and  C_14
REMARK   11  A    between atoms: C_14  and  C_15
REMARK   12  A    between atoms: C_14  and  N_39
REMARK   13  A    between atoms: C_15  and  O_16
REMARK   14  A    between atoms: O_16  and  P_17
REMARK   15  A    between atoms: P_17  and  O_20
REMARK   16  A    between atoms: O_20  and  C_21
REMARK   17  A    between atoms: C_24  and  C_25
REMARK   18  A    between atoms: C_24  and  C_31
REMARK   19  A    between atoms: N_39  and  C_40
REMARK   20  A    between atoms: N_39  and  C_44
REMARK   21  A    between atoms: C_40  and  C_41
REMARK   22  A    between atoms: C_44  and  C_45
REMARK   23  A    between atoms: C_48  and  C_49
REMARK                            x       y       z     vdW  Elec       q    Type
REMARK                         _______ _______ _______ _____ _____    ______ ____
ROOT
ATOM      1  C   UNL     1     -10.393  13.285  67.819  0.00  0.00    +0.105 C 
ENDROOT
BRANCH   1   2
ATOM      2  N   UNL     1     -10.837  12.804  66.360  0.00  0.00    -0.251 NA
BRANCH   2   3
ATOM      3  C   UNL     1     -12.073  13.493  66.111  0.00  0.00    +0.188 C 
BRANCH   3   4
ATOM      4  C   UNL     1     -12.455  13.547  64.689  0.00  0.00    +0.381 C 
ATOM      5  O   UNL     1     -13.200  12.517  64.155  0.00  0.00    -0.244 OA
ATOM      6  O   UNL     1     -12.563  14.672  64.141  0.00  0.00    -0.244 OA
ENDBRANCH   3   4
ENDBRANCH   2   3
BRANCH   2   7
ATOM      7  C   UNL     1     -10.990  11.377  66.468  0.00  0.00    +0.188 C 
BRANCH   7   8
ATOM      8  C   UNL     1     -10.412  10.627  65.336  0.00  0.00    +0.381 C 
ATOM      9  O   UNL     1      -9.671  11.372  64.413  0.00  0.00    -0.244 OA
ATOM     10  O   UNL     1     -10.024   9.424  65.454  0.00  0.00    -0.244 OA
ENDBRANCH   7   8
ENDBRANCH   2   7
ENDBRANCH   1   2
BRANCH   1  11
ATOM     11  C   UNL     1      -9.814  14.739  67.236  0.00  0.00    +0.091 C 
BRANCH  11  12
ATOM     12  N   UNL     1     -10.449  15.723  68.112  0.00  0.00    -0.261 NA
BRANCH  12  13
ATOM     13  C   UNL     1     -10.358  15.196  69.473  0.00  0.00    +0.090 C 
BRANCH  13  14
ATOM     14  C   UNL     1     -11.177  15.988  70.450  0.00  0.00    +0.091 C 
BRANCH  14  15
ATOM     15  N   UNL     1     -12.060  15.199  71.258  0.00  0.00    -0.252 NA
BRANCH  15  16
ATOM     16  C   UNL     1     -12.848  15.948  72.194  0.00  0.00    +0.188 C 
BRANCH  16  17
ATOM     17  C   UNL     1     -12.448  15.750  73.604  0.00  0.00    +0.381 C 
ATOM     18  O   UNL     1     -12.443  16.770  74.551  0.00  0.00    -0.244 OA
ATOM     19  O   UNL     1     -12.091  14.613  74.038  0.00  0.00    -0.244 OA
ENDBRANCH  16  17
ENDBRANCH  15  16
BRANCH  15  20
ATOM     20  C   UNL     1     -12.817  14.222  70.516  0.00  0.00    +0.188 C 
BRANCH  20  22
ATOM     21  O   UNL     1     -12.050  11.938  70.560  0.00  0.00    -0.244 OA
ATOM     22  C   UNL     1     -12.700  12.855  71.093  0.00  0.00    +0.381 C 
ATOM     23  O   UNL     1     -13.538  12.534  72.163  0.00  0.00    -0.244 OA
ENDBRANCH  20  22
ENDBRANCH  15  20
ENDBRANCH  14  15
ENDBRANCH  13  14
ENDBRANCH  12  13
BRANCH  12  24
ATOM     24  C   UNL     1      -9.728  16.970  68.119  0.00  0.00    +0.188 C 
BRANCH  24  25
ATOM     25  C   UNL     1     -10.292  17.984  67.209  0.00  0.00    +0.381 C 
ATOM     26  O   UNL     1      -9.582  18.187  66.020  0.00  0.00    -0.244 OA
ATOM     27  O   UNL     1     -11.043  18.927  67.592  0.00  0.00    -0.244 OA
ENDBRANCH  24  25
ENDBRANCH  12  24
ENDBRANCH  11  12
ENDBRANCH   1  11
BRANCH   1  28
ATOM     28  C   UNL     1      -8.896  12.562  67.683  0.00  0.00    +0.166 C 
BRANCH  28  29
ATOM     29  O   UNL     1      -8.573  12.141  68.947  0.00  0.00    -0.313 OA
BRANCH  29  30
ATOM     30  P   UNL     1      -7.936  10.594  68.989  0.00  0.00    +0.214 P 
ATOM     31  O   UNL     1      -7.483  10.180  67.408  0.00  0.00    -0.437 OA
ATOM     32  O   UNL     1      -6.705  10.631  69.860  0.00  0.00    -0.517 OA
BRANCH  30  33
ATOM     33  O   UNL     1      -8.977   9.453  69.639  0.00  0.00    -0.317 OA
BRANCH  33  34
ATOM     34  C   UNL     1      -8.332   8.375  70.216  0.00  0.00    +0.122 C 
ATOM     35  C   UNL     1      -8.310   8.436  71.728  0.00  0.00    +0.031 C 
ATOM     36  C   UNL     1      -9.698   8.388  72.323  0.00  0.00    +0.011 C 
ATOM     37  C   UNL     1     -10.527   7.256  71.786  0.00  0.00    +0.038 C 
ATOM     38  C   UNL     1     -10.481   7.185  70.268  0.00  0.00    +0.011 C 
ATOM     39  C   UNL     1      -9.044   7.081  69.835  0.00  0.00    +0.031 C 
BRANCH  37  40
ATOM     40  C   UNL     1     -11.949   7.542  72.148  0.00  0.00    -0.019 A 
ATOM     41  C   UNL     1     -12.898   6.707  71.601  0.00  0.00    -0.004 A 
ATOM     42  C   UNL     1     -14.228   7.065  71.478  0.00  0.00    -0.000 A 
ATOM     43  C   UNL     1     -14.547   8.406  71.597  0.00  0.00    -0.000 A 
ATOM     44  C   UNL     1     -13.640   9.249  72.182  0.00  0.00    -0.000 A 
ATOM     45  C   UNL     1     -12.310   8.871  72.309  0.00  0.00    -0.004 A 
ENDBRANCH  37  40
BRANCH  37  46
ATOM     46  C   UNL     1     -10.188   5.957  72.407  0.00  0.00    -0.019 A 
ATOM     47  C   UNL     1     -10.033   4.788  71.677  0.00  0.00    -0.004 A 
ATOM     48  C   UNL     1     -10.234   3.544  72.263  0.00  0.00    -0.000 A 
ATOM     49  C   UNL     1     -10.668   3.508  73.577  0.00  0.00    -0.000 A 
ATOM     50  C   UNL     1     -10.288   4.581  74.370  0.00  0.00    -0.000 A 
ATOM     51  C   UNL     1     -10.124   5.830  73.789  0.00  0.00    -0.004 A 
ENDBRANCH  37  46
ENDBRANCH  33  34
ENDBRANCH  30  33
ENDBRANCH  29  30
ENDBRANCH  28  29
ENDBRANCH   1  28
TORSDOF 23
ENDMDL
MODEL 7
REMARK VINA RESULT:      -6.9      2.669      8.445
REMARK  Name = 
REMARK  23 active torsions:
REMARK  status: ('A' for Active; 'I' for Inactive)
REMARK    1  A    between atoms: C_2  and  C_4
REMARK    2  A    between atoms: C_4  and  N_5
REMARK    3  A    between atoms: N_5  and  C_6
REMARK    4  A    between atoms: N_5  and  C_48
REMARK    5  A    between atoms: C_6  and  C_7
REMARK    6  A    between atoms: C_7  and  N_8
REMARK    7  A    between atoms: N_8  and  C_9
REMARK    8  A    between atoms: N_8  and  C_13
REMARK    9  A    between atoms: C_9  and  C_10
REMARK   10  A    between atoms: C_13  and  C_14
REMARK   11  A    between atoms: C_14  and  C_15
REMARK   12  A    between atoms: C_14  and  N_39
REMARK   13  A    between atoms: C_15  and  O_16
REMARK   14  A    between atoms: O_16  and  P_17
REMARK   15  A    between atoms: P_17  and  O_20
REMARK   16  A    between atoms: O_20  and  C_21
REMARK   17  A    between atoms: C_24  and  C_25
REMARK   18  A    between atoms: C_24  and  C_31
REMARK   19  A    between atoms: N_39  and  C_40
REMARK   20  A    between atoms: N_39  and  C_44
REMARK   21  A    between atoms: C_40  and  C_41
REMARK   22  A    between atoms: C_44  and  C_45
REMARK   23  A    between atoms: C_48  and  C_49
REMARK                            x       y       z     vdW  Elec       q    Type
REMARK                         _______ _______ _______ _____ _____    ______ ____
ROOT
ATOM      1  C   UNL     1     -10.287  12.881  67.127  0.00  0.00    +0.105 C 
ENDROOT
BRANCH   1   2
ATOM      2  N   UNL     1     -10.208  13.633  65.717  0.00  0.00    -0.251 NA
BRANCH   2   3
ATOM      3  C   UNL     1     -10.950  14.849  65.912  0.00  0.00    +0.188 C 
BRANCH   3   4
ATOM      4  C   UNL     1     -10.414  16.004  65.174  0.00  0.00    +0.381 C 
ATOM      5  O   UNL     1     -11.267  16.757  64.393  0.00  0.00    -0.244 OA
ATOM      6  O   UNL     1      -9.397  16.585  65.628  0.00  0.00    -0.244 OA
ENDBRANCH   3   4
ENDBRANCH   2   3
BRANCH   2   7
ATOM      7  C   UNL     1     -10.822  12.732  64.779  0.00  0.00    +0.188 C 
BRANCH   7   8
ATOM      8  C   UNL     1     -12.212  13.088  64.431  0.00  0.00    +0.381 C 
ATOM      9  O   UNL     1     -12.406  13.673  63.176  0.00  0.00    -0.244 OA
ATOM     10  O   UNL     1     -13.202  12.406  64.839  0.00  0.00    -0.244 OA
ENDBRANCH   7   8
ENDBRANCH   2   7
ENDBRANCH   1   2
BRANCH   1  11
ATOM     11  C   UNL     1     -11.470  13.918  67.689  0.00  0.00    +0.091 C 
BRANCH  11  12
ATOM     12  N   UNL     1     -12.127  13.134  68.735  0.00  0.00    -0.261 NA
BRANCH  12  13
ATOM     13  C   UNL     1     -11.519  11.804  68.709  0.00  0.00    +0.090 C 
BRANCH  13  14
ATOM     14  C   UNL     1     -12.168  10.858  69.675  0.00  0.00    +0.091 C 
BRANCH  14  15
ATOM     15  N   UNL     1     -11.393   9.689  69.972  0.00  0.00    -0.252 NA
BRANCH  15  16
ATOM     16  C   UNL     1     -10.265   9.483  69.111  0.00  0.00    +0.188 C 
BRANCH  16  17
ATOM     17  C   UNL     1     -10.012   8.062  68.787  0.00  0.00    +0.381 C 
ATOM     18  O   UNL     1     -10.986   7.070  68.870  0.00  0.00    -0.244 OA
ATOM     19  O   UNL     1      -8.873   7.664  68.398  0.00  0.00    -0.244 OA
ENDBRANCH  16  17
ENDBRANCH  15  16
BRANCH  15  20
ATOM     20  C   UNL     1     -11.090   9.528  71.371  0.00  0.00    +0.188 C 
BRANCH  20  22
ATOM     21  O   UNL     1     -11.714   7.318  72.102  0.00  0.00    -0.244 OA
ATOM     22  C   UNL     1     -11.975   8.532  72.033  0.00  0.00    +0.381 C 
ATOM     23  O   UNL     1     -13.258   8.951  72.396  0.00  0.00    -0.244 OA
ENDBRANCH  20  22
ENDBRANCH  15  20
ENDBRANCH  14  15
ENDBRANCH  13  14
ENDBRANCH  12  13
BRANCH  12  24
ATOM     24  C   UNL     1     -11.859  13.668  70.045  0.00  0.00    +0.188 C 
BRANCH  24  25
ATOM     25  C   UNL     1     -12.757  14.774  70.426  0.00  0.00    +0.381 C 
ATOM     26  O   UNL     1     -12.221  16.060  70.290  0.00  0.00    -0.244 OA
ATOM     27  O   UNL     1     -13.725  14.644  71.231  0.00  0.00    -0.244 OA
ENDBRANCH  24  25
ENDBRANCH  12  24
ENDBRANCH  11  12
ENDBRANCH   1  11
BRANCH   1  28
ATOM     28  C   UNL     1      -9.070  13.818  67.778  0.00  0.00    +0.166 C 
BRANCH  28  29
ATOM     29  O   UNL     1      -7.978  12.994  67.869  0.00  0.00    -0.313 OA
BRANCH  29  30
ATOM     30  P   UNL     1      -6.531  13.823  68.008  0.00  0.00    +0.214 P 
ATOM     31  O   UNL     1      -6.019  13.701  69.620  0.00  0.00    -0.437 OA
ATOM     32  O   UNL     1      -5.524  13.133  67.119  0.00  0.00    -0.517 OA
BRANCH  30  33
ATOM     33  O   UNL     1      -6.619  15.423  67.520  0.00  0.00    -0.317 OA
BRANCH  33  34
ATOM     34  C   UNL     1      -5.479  16.154  67.795  0.00  0.00    +0.122 C 
ATOM     35  C   UNL     1      -5.144  17.162  66.719  0.00  0.00    +0.031 C 
ATOM     36  C   UNL     1      -6.218  18.214  66.565  0.00  0.00    +0.011 C 
ATOM     37  C   UNL     1      -6.610  18.846  67.871  0.00  0.00    +0.038 C 
ATOM     38  C   UNL     1      -6.882  17.808  68.948  0.00  0.00    +0.011 C 
ATOM     39  C   UNL     1      -5.665  16.935  69.092  0.00  0.00    +0.031 C 
BRANCH  37  40
ATOM     40  C   UNL     1      -7.903  19.560  67.643  0.00  0.00    -0.019 A 
ATOM     41  C   UNL     1      -8.914  19.293  68.539  0.00  0.00    -0.004 A 
ATOM     42  C   UNL     1     -10.248  19.514  68.249  0.00  0.00    -0.000 A 
ATOM     43  C   UNL     1     -10.598  19.689  66.922  0.00  0.00    -0.000 A 
ATOM     44  C   UNL     1      -9.618  20.003  66.019  0.00  0.00    -0.000 A 
ATOM     45  C   UNL     1      -8.282  19.787  66.329  0.00  0.00    -0.004 A 
ENDBRANCH  37  40
BRANCH  37  46
ATOM     46  C   UNL     1      -5.640  19.867  68.323  0.00  0.00    -0.019 A 
ATOM     47  C   UNL     1      -4.481  20.170  67.622  0.00  0.00    -0.004 A 
ATOM     48  C   UNL     1      -3.371  20.702  68.268  0.00  0.00    -0.000 A 
ATOM     49  C   UNL     1      -3.429  20.849  69.643  0.00  0.00    -0.000 A 
ATOM     50  C   UNL     1      -4.692  21.057  70.178  0.00  0.00    -0.000 A 
ATOM     51  C   UNL     1      -5.795  20.494  69.552  0.00  0.00    -0.004 A 
ENDBRANCH  37  46
ENDBRANCH  33  34
ENDBRANCH  30  33
ENDBRANCH  29  30
ENDBRANCH  28  29
ENDBRANCH   1  28
TORSDOF 23
ENDMDL
MODEL 8
REMARK VINA RESULT:      -6.9      2.469      6.138
REMARK  Name = 
REMARK  23 active torsions:
REMARK  status: ('A' for Active; 'I' for Inactive)
REMARK    1  A    between atoms: C_2  and  C_4
REMARK    2  A    between atoms: C_4  and  N_5
REMARK    3  A    between atoms: N_5  and  C_6
REMARK    4  A    between atoms: N_5  and  C_48
REMARK    5  A    between atoms: C_6  and  C_7
REMARK    6  A    between atoms: C_7  and  N_8
REMARK    7  A    between atoms: N_8  and  C_9
REMARK    8  A    between atoms: N_8  and  C_13
REMARK    9  A    between atoms: C_9  and  C_10
REMARK   10  A    between atoms: C_13  and  C_14
REMARK   11  A    between atoms: C_14  and  C_15
REMARK   12  A    between atoms: C_14  and  N_39
REMARK   13  A    between atoms: C_15  and  O_16
REMARK   14  A    between atoms: O_16  and  P_17
REMARK   15  A    between atoms: P_17  and  O_20
REMARK   16  A    between atoms: O_20  and  C_21
REMARK   17  A    between atoms: C_24  and  C_25
REMARK   18  A    between atoms: C_24  and  C_31
REMARK   19  A    between atoms: N_39  and  C_40
REMARK   20  A    between atoms: N_39  and  C_44
REMARK   21  A    between atoms: C_40  and  C_41
REMARK   22  A    between atoms: C_44  and  C_45
REMARK   23  A    between atoms: C_48  and  C_49
REMARK                            x       y       z     vdW  Elec       q    Type
REMARK                         _______ _______ _______ _____ _____    ______ ____
ROOT
ATOM      1  C   UNL     1     -11.975  13.611  67.303  0.00  0.00    +0.105 C 
ENDROOT
BRANCH   1   2
ATOM      2  N   UNL     1     -11.890  13.841  65.722  0.00  0.00    -0.251 NA
BRANCH   2   3
ATOM      3  C   UNL     1     -11.238  12.662  65.220  0.00  0.00    +0.188 C 
BRANCH   3   4
ATOM      4  C   UNL     1     -11.713  12.234  63.893  0.00  0.00    +0.381 C 
ATOM      5  O   UNL     1     -11.009  11.265  63.208  0.00  0.00    -0.244 OA
ATOM      6  O   UNL     1     -12.937  12.339  63.632  0.00  0.00    -0.244 OA
ENDBRANCH   3   4
ENDBRANCH   2   3
BRANCH   2   7
ATOM      7  C   UNL     1     -11.110  15.039  65.561  0.00  0.00    +0.188 C 
BRANCH   7   8
ATOM      8  C   UNL     1     -11.547  15.889  64.436  0.00  0.00    +0.381 C 
ATOM      9  O   UNL     1     -12.806  15.604  63.897  0.00  0.00    -0.244 OA
ATOM     10  O   UNL     1     -11.214  17.110  64.347  0.00  0.00    -0.244 OA
ENDBRANCH   7   8
ENDBRANCH   2   7
ENDBRANCH   1   2
BRANCH   1  11
ATOM     11  C   UNL     1     -10.443  14.233  67.543  0.00  0.00    +0.091 C 
BRANCH  11  12
ATOM     12  N   UNL     1     -10.479  14.670  68.938  0.00  0.00    -0.261 NA
BRANCH  12  13
ATOM     13  C   UNL     1      -9.380  15.620  69.111  0.00  0.00    +0.090 C 
BRANCH  13  14
ATOM     14  C   UNL     1      -9.730  16.995  68.625  0.00  0.00    +0.091 C 
BRANCH  14  15
ATOM     15  N   UNL     1      -8.661  17.677  67.955  0.00  0.00    -0.252 NA
BRANCH  15  16
ATOM     16  C   UNL     1      -8.349  17.167  66.651  0.00  0.00    +0.188 C 
BRANCH  16  17
ATOM     17  C   UNL     1      -6.992  17.520  66.181  0.00  0.00    +0.381 C 
ATOM     18  O   UNL     1      -5.826  17.100  66.815  0.00  0.00    -0.244 OA
ATOM     19  O   UNL     1      -6.814  18.232  65.147  0.00  0.00    -0.244 OA
ENDBRANCH  16  17
ENDBRANCH  15  16
BRANCH  15  20
ATOM     20  C   UNL     1      -8.761  19.114  68.006  0.00  0.00    +0.188 C 
BRANCH  20  22
ATOM     21  O   UNL     1     -11.101  19.585  67.676  0.00  0.00    -0.244 OA
ATOM     22  C   UNL     1      -9.934  19.629  67.249  0.00  0.00    +0.381 C 
ATOM     23  O   UNL     1      -9.734  19.974  65.910  0.00  0.00    -0.244 OA
ENDBRANCH  20  22
ENDBRANCH  15  20
ENDBRANCH  14  15
ENDBRANCH  13  14
ENDBRANCH  12  13
BRANCH  12  24
ATOM     24  C   UNL     1     -11.685  15.399  69.235  0.00  0.00    +0.188 C 
BRANCH  24  25
ATOM     25  C   UNL     1     -12.161  15.215  70.619  0.00  0.00    +0.381 C 
ATOM     26  O   UNL     1     -13.478  15.623  70.861  0.00  0.00    -0.244 OA
ATOM     27  O   UNL     1     -11.391  15.152  71.621  0.00  0.00    -0.244 OA
ENDBRANCH  24  25
ENDBRANCH  12  24
ENDBRANCH  11  12
ENDBRANCH   1  11
BRANCH   1  28
ATOM     28  C   UNL     1     -11.390  12.053  67.182  0.00  0.00    +0.166 C 
BRANCH  28  29
ATOM     29  O   UNL     1     -12.175  11.299  68.016  0.00  0.00    -0.313 OA
BRANCH  29  30
ATOM     30  P   UNL     1     -11.405  10.859  69.435  0.00  0.00    +0.214 P 
ATOM     31  O   UNL     1      -9.756  11.211  69.257  0.00  0.00    -0.437 OA
ATOM     32  O   UNL     1     -11.973  11.709  70.545  0.00  0.00    -0.517 OA
BRANCH  30  33
ATOM     33  O   UNL     1     -11.639   9.255  69.862  0.00  0.00    -0.317 OA
BRANCH  33  34
ATOM     34  C   UNL     1     -11.896   9.068  71.206  0.00  0.00    +0.122 C 
ATOM     35  C   UNL     1     -12.753   7.853  71.484  0.00  0.00    +0.031 C 
ATOM     36  C   UNL     1     -12.079   6.568  71.063  0.00  0.00    +0.011 C 
ATOM     37  C   UNL     1     -10.678   6.440  71.592  0.00  0.00    +0.038 C 
ATOM     38  C   UNL     1      -9.860   7.699  71.350  0.00  0.00    +0.011 C 
ATOM     39  C   UNL     1     -10.585   8.867  71.961  0.00  0.00    +0.031 C 
BRANCH  37  40
ATOM     40  C   UNL     1     -10.011   5.353  70.812  0.00  0.00    -0.019 A 
ATOM     41  C   UNL     1      -8.667   5.171  71.047  0.00  0.00    -0.004 A 
ATOM     42  C   UNL     1      -7.830   4.537  70.146  0.00  0.00    -0.000 A 
ATOM     43  C   UNL     1      -8.281   4.381  68.848  0.00  0.00    -0.000 A 
ATOM     44  C   UNL     1      -9.621   4.509  68.597  0.00  0.00    -0.000 A 
ATOM     45  C   UNL     1     -10.451   5.139  69.515  0.00  0.00    -0.004 A 
ENDBRANCH  37  40
BRANCH  37  46
ATOM     46  C   UNL     1     -10.641   6.024  73.011  0.00  0.00    -0.019 A 
ATOM     47  C   UNL     1     -10.059   6.793  74.008  0.00  0.00    -0.004 A 
ATOM     48  C   UNL     1      -9.572   6.210  75.172  0.00  0.00    -0.000 A 
ATOM     49  C   UNL     1      -9.615   4.830  75.273  0.00  0.00    -0.000 A 
ATOM     50  C   UNL     1     -10.634   4.203  74.572  0.00  0.00    -0.000 A 
ATOM     51  C   UNL     1     -11.094   4.767  73.391  0.00  0.00    -0.004 A 
ENDBRANCH  37  46
ENDBRANCH  33  34
ENDBRANCH  30  33
ENDBRANCH  29  30
ENDBRANCH  28  29
ENDBRANCH   1  28
TORSDOF 23
ENDMDL
MODEL 9
REMARK VINA RESULT:      -6.9      2.704      5.176
REMARK  Name = 
REMARK  23 active torsions:
REMARK  status: ('A' for Active; 'I' for Inactive)
REMARK    1  A    between atoms: C_2  and  C_4
REMARK    2  A    between atoms: C_4  and  N_5
REMARK    3  A    between atoms: N_5  and  C_6
REMARK    4  A    between atoms: N_5  and  C_48
REMARK    5  A    between atoms: C_6  and  C_7
REMARK    6  A    between atoms: C_7  and  N_8
REMARK    7  A    between atoms: N_8  and  C_9
REMARK    8  A    between atoms: N_8  and  C_13
REMARK    9  A    between atoms: C_9  and  C_10
REMARK   10  A    between atoms: C_13  and  C_14
REMARK   11  A    between atoms: C_14  and  C_15
REMARK   12  A    between atoms: C_14  and  N_39
REMARK   13  A    between atoms: C_15  and  O_16
REMARK   14  A    between atoms: O_16  and  P_17
REMARK   15  A    between atoms: P_17  and  O_20
REMARK   16  A    between atoms: O_20  and  C_21
REMARK   17  A    between atoms: C_24  and  C_25
REMARK   18  A    between atoms: C_24  and  C_31
REMARK   19  A    between atoms: N_39  and  C_40
REMARK   20  A    between atoms: N_39  and  C_44
REMARK   21  A    between atoms: C_40  and  C_41
REMARK   22  A    between atoms: C_44  and  C_45
REMARK   23  A    between atoms: C_48  and  C_49
REMARK                            x       y       z     vdW  Elec       q    Type
REMARK                         _______ _______ _______ _____ _____    ______ ____
ROOT
ATOM      1  C   UNL     1     -11.410  13.617  67.443  0.00  0.00    +0.105 C 
ENDROOT
BRANCH   1   2
ATOM      2  N   UNL     1     -11.686  13.636  65.867  0.00  0.00    -0.251 NA
BRANCH   2   3
ATOM      3  C   UNL     1     -11.101  12.416  65.381  0.00  0.00    +0.188 C 
BRANCH   3   4
ATOM      4  C   UNL     1     -11.183  12.252  63.920  0.00  0.00    +0.381 C 
ATOM      5  O   UNL     1     -10.043  11.918  63.217  0.00  0.00    -0.244 OA
ATOM      6  O   UNL     1     -12.282  11.911  63.417  0.00  0.00    -0.244 OA
ENDBRANCH   3   4
ENDBRANCH   2   3
BRANCH   2   7
ATOM      7  C   UNL     1     -11.022  14.819  65.387  0.00  0.00    +0.188 C 
BRANCH   7   8
ATOM      8  C   UNL     1     -11.886  15.702  64.579  0.00  0.00    +0.381 C 
ATOM      9  O   UNL     1     -11.332  16.928  64.195  0.00  0.00    -0.244 OA
ATOM     10  O   UNL     1     -12.736  15.242  63.756  0.00  0.00    -0.244 OA
ENDBRANCH   7   8
ENDBRANCH   2   7
ENDBRANCH   1   2
BRANCH   1  11
ATOM     11  C   UNL     1     -10.178  14.736  67.309  0.00  0.00    +0.091 C 
BRANCH  11  12
ATOM     12  N   UNL     1     -10.615  15.816  68.193  0.00  0.00    -0.261 NA
BRANCH  12  13
ATOM     13  C   UNL     1     -10.745  15.239  69.530  0.00  0.00    +0.090 C 
BRANCH  13  14
ATOM     14  C   UNL     1     -11.858  15.863  70.319  0.00  0.00    +0.091 C 
BRANCH  14  15
ATOM     15  N   UNL     1     -12.398  15.023  71.348  0.00  0.00    -0.252 NA
BRANCH  15  16
ATOM     16  C   UNL     1     -12.436  13.627  71.025  0.00  0.00    +0.188 C 
BRANCH  16  17
ATOM     17  C   UNL     1     -13.391  12.849  71.845  0.00  0.00    +0.381 C 
ATOM     18  O   UNL     1     -13.237  11.494  72.125  0.00  0.00    -0.244 OA
ATOM     19  O   UNL     1     -14.417  13.390  72.357  0.00  0.00    -0.244 OA
ENDBRANCH  16  17
ENDBRANCH  15  16
BRANCH  15  20
ATOM     20  C   UNL     1     -11.875  15.300  72.662  0.00  0.00    +0.188 C 
BRANCH  20  22
ATOM     21  O   UNL     1     -13.987  16.358  73.139  0.00  0.00    -0.244 OA
ATOM     22  C   UNL     1     -12.852  16.024  73.521  0.00  0.00    +0.381 C 
ATOM     23  O   UNL     1     -12.384  16.541  74.732  0.00  0.00    -0.244 OA
ENDBRANCH  20  22
ENDBRANCH  15  20
ENDBRANCH  14  15
ENDBRANCH  13  14
ENDBRANCH  12  13
BRANCH  12  24
ATOM     24  C   UNL     1      -9.618  16.849  68.301  0.00  0.00    +0.188 C 
BRANCH  24  25
ATOM     25  C   UNL     1      -9.848  17.989  67.394  0.00  0.00    +0.381 C 
ATOM     26  O   UNL     1     -11.107  18.592  67.491  0.00  0.00    -0.244 OA
ATOM     27  O   UNL     1      -9.218  18.158  66.309  0.00  0.00    -0.244 OA
ENDBRANCH  24  25
ENDBRANCH  12  24
ENDBRANCH  11  12
ENDBRANCH   1  11
BRANCH   1  28
ATOM     28  C   UNL     1     -10.345  12.339  67.315  0.00  0.00    +0.166 C 
BRANCH  28  29
ATOM     29  O   UNL     1     -10.235  11.822  68.580  0.00  0.00    -0.313 OA
BRANCH  29  30
ATOM     30  P   UNL     1     -10.997  10.343  68.763  0.00  0.00    +0.214 P 
ATOM     31  O   UNL     1     -12.631  10.644  69.098  0.00  0.00    -0.437 OA
ATOM     32  O   UNL     1     -10.891   9.611  67.448  0.00  0.00    -0.517 OA
BRANCH  30  33
ATOM     33  O   UNL     1     -10.307   9.368  69.938  0.00  0.00    -0.317 OA
BRANCH  33  34
ATOM     34  C   UNL     1     -11.204   8.515  70.551  0.00  0.00    +0.122 C 
ATOM     35  C   UNL     1     -10.956   7.058  70.226  0.00  0.00    +0.031 C 
ATOM     36  C   UNL     1      -9.610   6.582  70.719  0.00  0.00    +0.011 C 
ATOM     37  C   UNL     1      -9.361   6.919  72.163  0.00  0.00    +0.038 C 
ATOM     38  C   UNL     1      -9.676   8.375  72.471  0.00  0.00    +0.011 C 
ATOM     39  C   UNL     1     -11.098   8.654  72.066  0.00  0.00    +0.031 C 
BRANCH  37  40
ATOM     40  C   UNL     1      -7.897   6.748  72.409  0.00  0.00    -0.019 A 
ATOM     41  C   UNL     1      -7.139   7.897  72.407  0.00  0.00    -0.004 A 
ATOM     42  C   UNL     1      -5.772   7.892  72.193  0.00  0.00    -0.000 A 
ATOM     43  C   UNL     1      -5.212   6.754  71.641  0.00  0.00    -0.000 A 
ATOM     44  C   UNL     1      -5.926   5.586  71.674  0.00  0.00    -0.000 A 
ATOM     45  C   UNL     1      -7.296   5.606  71.901  0.00  0.00    -0.004 A 
ENDBRANCH  37  40
BRANCH  37  46
ATOM     46  C   UNL     1     -10.055   5.999  73.090  0.00  0.00    -0.019 A 
ATOM     47  C   UNL     1      -9.922   6.073  74.469  0.00  0.00    -0.004 A 
ATOM     48  C   UNL     1     -10.123   4.956  75.270  0.00  0.00    -0.000 A 
ATOM     49  C   UNL     1     -10.387   3.748  74.646  0.00  0.00    -0.000 A 
ATOM     50  C   UNL     1     -11.023   3.828  73.417  0.00  0.00    -0.000 A 
ATOM     51  C   UNL     1     -10.792   4.927  72.601  0.00  0.00    -0.004 A 
ENDBRANCH  37  46
ENDBRANCH  33  34
ENDBRANCH  30  33
ENDBRANCH  29  30
ENDBRANCH  28  29
ENDBRANCH   1  28
TORSDOF 23
ENDMDL
