MODEL 1
REMARK VINA RESULT:      -7.9      0.000      0.000
REMARK  Name = 
REMARK  0 active torsions:
REMARK  status: ('A' for Active; 'I' for Inactive)
REMARK                            x       y       z     vdW  Elec       q    Type
REMARK                         _______ _______ _______ _____ _____    ______ ____
ROOT
ATOM      1  C   UNL     1     -12.613  12.275  64.360  0.00  0.00    +0.090 C 
ATOM      2  N   UNL     1     -11.560  12.866  65.170  0.00  0.00    -0.271 NA
ATOM      3  C   UNL     1     -10.800  11.830  65.824  0.00  0.00    +0.077 C 
ATOM      4  C   UNL     1     -11.249  11.558  67.232  0.00  0.00    +0.039 C 
ATOM      5  C   UNL     1     -11.120  12.795  68.058  0.00  0.00    -0.041 C 
ATOM      6  C   UNL     1     -11.633  12.813  69.288  0.00  0.00    -0.008 C 
ATOM      7  C   UNL     1     -11.855  11.470  69.841  0.00  0.00    -0.004 A 
ATOM      8  C   UNL     1     -12.599  11.153  70.960  0.00  0.00    -0.014 A 
ATOM      9  C   UNL     1     -12.297   9.992  71.662  0.00  0.00    -0.004 A 
ATOM     10  C   UNL     1     -11.291   9.180  71.210  0.00  0.00    -0.000 A 
ATOM     11  C   UNL     1     -10.582   9.412  70.041  0.00  0.00    -0.000 A 
ATOM     12  C   UNL     1     -13.568  11.970  71.752  0.00  0.00    +0.096 C 
ATOM     13  C   UNL     1     -13.039  13.321  72.050  0.00  0.00    +0.183 C 
ATOM     14  O   UNL     1     -13.155  13.769  73.231  0.00  0.00    -0.290 OA
ATOM     15  C   UNL     1     -12.506  14.332  71.125  0.00  0.00    +0.064 A 
ATOM     16  S   UNL     1     -11.990  15.929  71.495  0.00  0.00    -0.084 S 
ATOM     17  C   UNL     1     -11.231  16.318  70.005  0.00  0.00    +0.036 A 
ATOM     18  C   UNL     1     -11.736  15.295  69.209  0.00  0.00    +0.008 A 
ATOM     19  C   UNL     1     -10.961  10.538  69.326  0.00  0.00    -0.000 A 
ATOM     20  C   UNL     1     -11.859  14.126  69.909  0.00  0.00    +0.009 A 
ATOM     21  C   UNL     1     -11.219  14.076  67.289  0.00  0.00    +0.039 C 
ATOM     22  C   UNL     1     -12.123  13.789  66.117  0.00  0.00    +0.077 C 
ENDROOT
TORSDOF 0
ENDMDL
MODEL 2
REMARK VINA RESULT:      -7.8      2.995      4.945
REMARK  Name = 
REMARK  0 active torsions:
REMARK  status: ('A' for Active; 'I' for Inactive)
REMARK                            x       y       z     vdW  Elec       q    Type
REMARK                         _______ _______ _______ _____ _____    ______ ____
ROOT
ATOM      1  C   UNL     1     -12.425  15.641  73.515  0.00  0.00    +0.090 C 
ATOM      2  N   UNL     1     -13.010  15.258  72.241  0.00  0.00    -0.271 NA
ATOM      3  C   UNL     1     -13.849  14.097  72.412  0.00  0.00    +0.077 C 
ATOM      4  C   UNL     1     -13.153  12.805  72.084  0.00  0.00    +0.039 C 
ATOM      5  C   UNL     1     -12.694  12.819  70.663  0.00  0.00    -0.041 C 
ATOM      6  C   UNL     1     -11.900  11.840  70.226  0.00  0.00    -0.008 C 
ATOM      7  C   UNL     1     -11.951  10.636  71.067  0.00  0.00    -0.004 A 
ATOM      8  C   UNL     1     -11.073   9.571  71.034  0.00  0.00    -0.014 A 
ATOM      9  C   UNL     1     -11.514   8.323  71.455  0.00  0.00    -0.004 A 
ATOM     10  C   UNL     1     -12.796   8.187  71.918  0.00  0.00    -0.000 A 
ATOM     11  C   UNL     1     -13.680   9.247  72.055  0.00  0.00    -0.000 A 
ATOM     12  C   UNL     1      -9.736   9.428  70.381  0.00  0.00    +0.096 C 
ATOM     13  C   UNL     1      -9.747   9.922  68.984  0.00  0.00    +0.183 C 
ATOM     14  O   UNL     1      -9.204   9.208  68.087  0.00  0.00    -0.290 OA
ATOM     15  C   UNL     1     -10.176  11.230  68.466  0.00  0.00    +0.064 A 
ATOM     16  S   UNL     1     -10.083  11.802  66.850  0.00  0.00    -0.084 S 
ATOM     17  C   UNL     1     -11.049  13.213  67.009  0.00  0.00    +0.036 A 
ATOM     18  C   UNL     1     -11.092  13.314  68.396  0.00  0.00    +0.008 A 
ATOM     19  C   UNL     1     -13.182  10.490  71.698  0.00  0.00    -0.000 A 
ATOM     20  C   UNL     1     -11.145  12.082  68.989  0.00  0.00    +0.009 A 
ATOM     21  C   UNL     1     -12.422  14.181  70.105  0.00  0.00    +0.039 C 
ATOM     22  C   UNL     1     -11.977  15.027  71.270  0.00  0.00    +0.077 C 
ENDROOT
TORSDOF 0
ENDMDL
MODEL 3
REMARK VINA RESULT:      -7.5      3.346      5.547
REMARK  Name = 
REMARK  0 active torsions:
REMARK  status: ('A' for Active; 'I' for Inactive)
REMARK                            x       y       z     vdW  Elec       q    Type
REMARK                         _______ _______ _______ _____ _____    ______ ____
ROOT
ATOM      1  C   UNL     1      -7.446  19.011  68.444  0.00  0.00    +0.090 C 
ATOM      2  N   UNL     1      -8.725  18.941  67.757  0.00  0.00    -0.271 NA
ATOM      3  C   UNL     1      -9.799  18.892  68.718  0.00  0.00    +0.077 C 
ATOM      4  C   UNL     1     -10.276  17.496  69.011  0.00  0.00    +0.039 C 
ATOM      5  C   UNL     1     -10.768  16.851  67.757  0.00  0.00    -0.041 C 
ATOM      6  C   UNL     1     -11.068  15.552  67.768  0.00  0.00    -0.008 C 
ATOM      7  C   UNL     1     -11.311  15.026  69.119  0.00  0.00    -0.004 A 
ATOM      8  C   UNL     1     -11.384  13.697  69.483  0.00  0.00    -0.014 A 
ATOM      9  C   UNL     1     -12.123  13.347  70.607  0.00  0.00    -0.004 A 
ATOM     10  C   UNL     1     -12.735  14.331  71.337  0.00  0.00    -0.000 A 
ATOM     11  C   UNL     1     -12.611  15.684  71.060  0.00  0.00    -0.000 A 
ATOM     12  C   UNL     1     -10.999  12.458  68.740  0.00  0.00    +0.096 C 
ATOM     13  C   UNL     1     -11.500  12.471  67.346  0.00  0.00    +0.183 C 
ATOM     14  O   UNL     1     -12.060  11.426  66.897  0.00  0.00    -0.290 OA
ATOM     15  C   UNL     1     -11.318  13.493  66.305  0.00  0.00    +0.064 A 
ATOM     16  S   UNL     1     -11.831  13.429  64.667  0.00  0.00    -0.084 S 
ATOM     17  C   UNL     1     -11.549  15.066  64.234  0.00  0.00    +0.036 A 
ATOM     18  C   UNL     1     -10.753  15.460  65.305  0.00  0.00    +0.008 A 
ATOM     19  C   UNL     1     -11.804  16.001  69.979  0.00  0.00    -0.000 A 
ATOM     20  C   UNL     1     -11.149  14.865  66.472  0.00  0.00    +0.009 A 
ATOM     21  C   UNL     1     -10.145  17.369  66.499  0.00  0.00    +0.039 C 
ATOM     22  C   UNL     1      -8.753  17.808  66.874  0.00  0.00    +0.077 C 
ENDROOT
TORSDOF 0
ENDMDL
MODEL 4
REMARK VINA RESULT:      -7.4      3.217      6.240
REMARK  Name = 
REMARK  0 active torsions:
REMARK  status: ('A' for Active; 'I' for Inactive)
REMARK                            x       y       z     vdW  Elec       q    Type
REMARK                         _______ _______ _______ _____ _____    ______ ____
ROOT
ATOM      1  C   UNL     1     -14.673  15.550  71.898  0.00  0.00    +0.090 C 
ATOM      2  N   UNL     1     -13.364  14.919  71.900  0.00  0.00    -0.271 NA
ATOM      3  C   UNL     1     -12.386  15.807  71.323  0.00  0.00    +0.077 C 
ATOM      4  C   UNL     1     -12.124  15.542  69.866  0.00  0.00    +0.039 C 
ATOM      5  C   UNL     1     -11.623  14.146  69.684  0.00  0.00    -0.041 C 
ATOM      6  C   UNL     1     -11.500  13.655  68.450  0.00  0.00    -0.008 C 
ATOM      7  C   UNL     1     -11.438  14.698  67.417  0.00  0.00    -0.004 A 
ATOM      8  C   UNL     1     -11.572  14.516  66.055  0.00  0.00    -0.014 A 
ATOM      9  C   UNL     1     -10.977  15.429  65.192  0.00  0.00    -0.004 A 
ATOM     10  C   UNL     1     -10.300  16.499  65.715  0.00  0.00    -0.000 A 
ATOM     11  C   UNL     1     -10.221  16.770  67.072  0.00  0.00    -0.000 A 
ATOM     12  C   UNL     1     -12.057  13.340  65.270  0.00  0.00    +0.096 C 
ATOM     13  C   UNL     1     -11.450  12.073  65.739  0.00  0.00    +0.183 C 
ATOM     14  O   UNL     1     -11.000  11.263  64.874  0.00  0.00    -0.290 OA
ATOM     15  C   UNL     1     -11.411  11.510  67.097  0.00  0.00    +0.064 A 
ATOM     16  S   UNL     1     -10.782   9.989  67.587  0.00  0.00    -0.084 S 
ATOM     17  C   UNL     1     -10.809  10.224  69.288  0.00  0.00    +0.036 A 
ATOM     18  C   UNL     1     -11.628  11.346  69.358  0.00  0.00    +0.008 A 
ATOM     19  C   UNL     1     -10.890  15.881  67.899  0.00  0.00    -0.000 A 
ATOM     20  C   UNL     1     -11.409  12.196  68.309  0.00  0.00    +0.009 A 
ATOM     21  C   UNL     1     -12.070  13.177  70.733  0.00  0.00    +0.039 C 
ATOM     22  C   UNL     1     -13.417  13.664  71.203  0.00  0.00    +0.077 C 
ENDROOT
TORSDOF 0
ENDMDL
MODEL 5
REMARK VINA RESULT:      -7.2      2.121      4.821
REMARK  Name = 
REMARK  0 active torsions:
REMARK  status: ('A' for Active; 'I' for Inactive)
REMARK                            x       y       z     vdW  Elec       q    Type
REMARK                         _______ _______ _______ _____ _____    ______ ____
ROOT
ATOM      1  C   UNL     1      -8.975   8.421  68.877  0.00  0.00    +0.090 C 
ATOM      2  N   UNL     1     -10.339   8.872  69.098  0.00  0.00    -0.271 NA
ATOM      3  C   UNL     1     -11.006   9.064  67.834  0.00  0.00    +0.077 C 
ATOM      4  C   UNL     1     -10.983  10.490  67.358  0.00  0.00    +0.039 C 
ATOM      5  C   UNL     1     -11.656  11.373  68.357  0.00  0.00    -0.041 C 
ATOM      6  C   UNL     1     -11.585  12.696  68.208  0.00  0.00    -0.008 C 
ATOM      7  C   UNL     1     -11.246  13.106  66.838  0.00  0.00    -0.004 A 
ATOM      8  C   UNL     1     -10.850  14.364  66.430  0.00  0.00    -0.014 A 
ATOM      9  C   UNL     1     -11.082  14.748  65.114  0.00  0.00    -0.004 A 
ATOM     10  C   UNL     1     -11.670  13.861  64.252  0.00  0.00    -0.000 A 
ATOM     11  C   UNL     1     -11.999  12.559  64.596  0.00  0.00    -0.000 A 
ATOM     12  C   UNL     1     -10.406  15.552  67.220  0.00  0.00    +0.096 C 
ATOM     13  C   UNL     1     -11.303  15.819  68.369  0.00  0.00    +0.183 C 
ATOM     14  O   UNL     1     -11.680  17.012  68.575  0.00  0.00    -0.290 OA
ATOM     15  C   UNL     1     -11.730  14.909  69.442  0.00  0.00    +0.064 A 
ATOM     16  S   UNL     1     -12.694  15.281  70.814  0.00  0.00    -0.084 S 
ATOM     17  C   UNL     1     -13.002  13.685  71.366  0.00  0.00    +0.036 A 
ATOM     18  C   UNL     1     -12.044  12.993  70.632  0.00  0.00    +0.008 A 
ATOM     19  C   UNL     1     -11.683  12.185  65.893  0.00  0.00    -0.000 A 
ATOM     20  C   UNL     1     -11.884  13.527  69.383  0.00  0.00    +0.009 A 
ATOM     21  C   UNL     1     -11.616  10.870  69.766  0.00  0.00    +0.039 C 
ATOM     22  C   UNL     1     -10.343  10.072  69.888  0.00  0.00    +0.077 C 
ENDROOT
TORSDOF 0
ENDMDL
MODEL 6
REMARK VINA RESULT:      -7.0      3.198      5.045
REMARK  Name = 
REMARK  0 active torsions:
REMARK  status: ('A' for Active; 'I' for Inactive)
REMARK                            x       y       z     vdW  Elec       q    Type
REMARK                         _______ _______ _______ _____ _____    ______ ____
ROOT
ATOM      1  C   UNL     1     -10.182  17.278  69.125  0.00  0.00    +0.090 C 
ATOM      2  N   UNL     1     -11.215  16.619  68.342  0.00  0.00    -0.271 NA
ATOM      3  C   UNL     1     -12.012  15.769  69.191  0.00  0.00    +0.077 C 
ATOM      4  C   UNL     1     -11.573  14.330  69.176  0.00  0.00    +0.039 C 
ATOM      5  C   UNL     1     -11.661  13.784  67.789  0.00  0.00    -0.041 C 
ATOM      6  C   UNL     1     -11.149  12.581  67.530  0.00  0.00    -0.008 C 
ATOM      7  C   UNL     1     -10.974  11.756  68.734  0.00  0.00    -0.004 A 
ATOM      8  C   UNL     1     -10.243  10.589  68.832  0.00  0.00    -0.014 A 
ATOM      9  C   UNL     1     -10.585   9.662  69.809  0.00  0.00    -0.004 A 
ATOM     10  C   UNL     1     -11.618   9.942  70.664  0.00  0.00    -0.000 A 
ATOM     11  C   UNL     1     -12.317  11.139  70.660  0.00  0.00    -0.000 A 
ATOM     12  C   UNL     1      -9.248   9.979  67.899  0.00  0.00    +0.096 C 
ATOM     13  C   UNL     1      -9.731   9.976  66.499  0.00  0.00    +0.183 C 
ATOM     14  O   UNL     1      -9.601   8.915  65.817  0.00  0.00    -0.290 OA
ATOM     15  C   UNL     1     -10.228  11.098  65.688  0.00  0.00    +0.064 A 
ATOM     16  S   UNL     1     -10.689  11.075  64.033  0.00  0.00    -0.084 S 
ATOM     17  C   UNL     1     -11.432  12.621  63.942  0.00  0.00    +0.036 A 
ATOM     18  C   UNL     1     -10.962  13.179  65.125  0.00  0.00    +0.008 A 
ATOM     19  C   UNL     1     -11.899  12.072  69.723  0.00  0.00    -0.000 A 
ATOM     20  C   UNL     1     -10.880  12.248  66.124  0.00  0.00    +0.009 A 
ATOM     21  C   UNL     1     -11.517  14.805  66.703  0.00  0.00    +0.039 C 
ATOM     22  C   UNL     1     -10.623  15.882  67.260  0.00  0.00    +0.077 C 
ENDROOT
TORSDOF 0
ENDMDL
MODEL 7
REMARK VINA RESULT:      -7.0      2.314      4.776
REMARK  Name = 
REMARK  0 active torsions:
REMARK  status: ('A' for Active; 'I' for Inactive)
REMARK                            x       y       z     vdW  Elec       q    Type
REMARK                         _______ _______ _______ _____ _____    ______ ____
ROOT
ATOM      1  C   UNL     1      -7.346   8.438  66.811  0.00  0.00    +0.090 C 
ATOM      2  N   UNL     1      -8.732   8.171  67.157  0.00  0.00    -0.271 NA
ATOM      3  C   UNL     1      -9.603   8.659  66.116  0.00  0.00    +0.077 C 
ATOM      4  C   UNL     1     -10.162  10.026  66.397  0.00  0.00    +0.039 C 
ATOM      5  C   UNL     1     -10.950  10.005  67.666  0.00  0.00    -0.041 C 
ATOM      6  C   UNL     1     -11.379  11.156  68.184  0.00  0.00    -0.008 C 
ATOM      7  C   UNL     1     -11.416  12.252  67.205  0.00  0.00    -0.004 A 
ATOM      8  C   UNL     1     -11.560  13.597  67.482  0.00  0.00    -0.014 A 
ATOM      9  C   UNL     1     -12.106  14.428  66.511  0.00  0.00    -0.004 A 
ATOM     10  C   UNL     1     -12.459  13.898  65.298  0.00  0.00    -0.000 A 
ATOM     11  C   UNL     1     -12.246  12.574  64.947  0.00  0.00    -0.000 A 
ATOM     12  C   UNL     1     -11.458  14.346  68.771  0.00  0.00    +0.096 C 
ATOM     13  C   UNL     1     -12.210  13.678  69.859  0.00  0.00    +0.183 C 
ATOM     14  O   UNL     1     -12.954  14.388  70.602  0.00  0.00    -0.290 OA
ATOM     15  C   UNL     1     -12.120  12.288  70.331  0.00  0.00    +0.064 A 
ATOM     16  S   UNL     1     -12.939  11.575  71.661  0.00  0.00    -0.084 S 
ATOM     17  C   UNL     1     -12.571   9.927  71.350  0.00  0.00    +0.036 A 
ATOM     18  C   UNL     1     -11.549  10.085  70.419  0.00  0.00    +0.008 A 
ATOM     19  C   UNL     1     -11.630  11.791  65.911  0.00  0.00    -0.000 A 
ATOM     20  C   UNL     1     -11.778  11.155  69.598  0.00  0.00    +0.009 A 
ATOM     21  C   UNL     1     -10.524   8.962  68.651  0.00  0.00    +0.039 C 
ATOM     22  C   UNL     1      -9.048   8.758  68.430  0.00  0.00    +0.077 C 
ENDROOT
TORSDOF 0
ENDMDL
MODEL 8
REMARK VINA RESULT:      -6.7      3.547      6.343
REMARK  Name = 
REMARK  0 active torsions:
REMARK  status: ('A' for Active; 'I' for Inactive)
REMARK                            x       y       z     vdW  Elec       q    Type
REMARK                         _______ _______ _______ _____ _____    ______ ____
ROOT
ATOM      1  C   UNL     1     -14.687   7.689  71.750  0.00  0.00    +0.090 C 
ATOM      2  N   UNL     1     -13.290   8.003  71.999  0.00  0.00    -0.271 NA
ATOM      3  C   UNL     1     -13.149   9.398  72.335  0.00  0.00    +0.077 C 
ATOM      4  C   UNL     1     -12.771  10.260  71.163  0.00  0.00    +0.039 C 
ATOM      5  C   UNL     1     -11.468   9.804  70.593  0.00  0.00    -0.041 C 
ATOM      6  C   UNL     1     -11.044  10.322  69.441  0.00  0.00    -0.008 C 
ATOM      7  C   UNL     1     -11.688  11.602  69.112  0.00  0.00    -0.004 A 
ATOM      8  C   UNL     1     -11.660  12.247  67.891  0.00  0.00    -0.014 A 
ATOM      9  C   UNL     1     -11.821  13.627  67.856  0.00  0.00    -0.004 A 
ATOM     10  C   UNL     1     -12.030  14.306  69.028  0.00  0.00    -0.000 A 
ATOM     11  C   UNL     1     -12.157  13.687  70.262  0.00  0.00    -0.000 A 
ATOM     12  C   UNL     1     -11.236  11.765  66.542  0.00  0.00    +0.096 C 
ATOM     13  C   UNL     1      -9.941  11.047  66.592  0.00  0.00    +0.183 C 
ATOM     14  O   UNL     1      -9.063  11.326  65.721  0.00  0.00    -0.290 OA
ATOM     15  C   UNL     1      -9.544   9.911  67.435  0.00  0.00    +0.064 A 
ATOM     16  S   UNL     1      -8.063   9.040  67.397  0.00  0.00    -0.084 S 
ATOM     17  C   UNL     1      -8.247   8.137  68.846  0.00  0.00    +0.036 A 
ATOM     18  C   UNL     1      -9.605   8.330  69.074  0.00  0.00    +0.008 A 
ATOM     19  C   UNL     1     -12.068  12.304  70.250  0.00  0.00    -0.000 A 
ATOM     20  C   UNL     1     -10.003   9.587  68.709  0.00  0.00    +0.009 A 
ATOM     21  C   UNL     1     -11.160   8.355  70.812  0.00  0.00    +0.039 C 
ATOM     22  C   UNL     1     -12.491   7.649  70.859  0.00  0.00    +0.077 C 
ENDROOT
TORSDOF 0
ENDMDL
MODEL 9
REMARK VINA RESULT:      -6.6      3.272      5.021
REMARK  Name = 
REMARK  0 active torsions:
REMARK  status: ('A' for Active; 'I' for Inactive)
REMARK                            x       y       z     vdW  Elec       q    Type
REMARK                         _______ _______ _______ _____ _____    ______ ____
ROOT
ATOM      1  C   UNL     1     -10.095  15.609  69.478  0.00  0.00    +0.090 C 
ATOM      2  N   UNL     1     -10.872  14.765  68.586  0.00  0.00    -0.271 NA
ATOM      3  C   UNL     1     -12.018  14.234  69.281  0.00  0.00    +0.077 C 
ATOM      4  C   UNL     1     -11.796  12.851  69.829  0.00  0.00    +0.039 C 
ATOM      5  C   UNL     1     -11.472  11.908  68.717  0.00  0.00    -0.041 C 
ATOM      6  C   UNL     1     -11.067  10.672  69.010  0.00  0.00    -0.008 C 
ATOM      7  C   UNL     1     -11.429  10.253  70.371  0.00  0.00    -0.004 A 
ATOM      8  C   UNL     1     -10.938   9.156  71.053  0.00  0.00    -0.014 A 
ATOM      9  C   UNL     1     -11.716   8.582  72.050  0.00  0.00    -0.004 A 
ATOM     10  C   UNL     1     -12.934   9.133  72.351  0.00  0.00    -0.000 A 
ATOM     11  C   UNL     1     -13.422  10.286  71.756  0.00  0.00    -0.000 A 
ATOM     12  C   UNL     1      -9.773   8.267  70.761  0.00  0.00    +0.096 C 
ATOM     13  C   UNL     1      -9.739   7.846  69.342  0.00  0.00    +0.183 C 
ATOM     14  O   UNL     1      -9.524   6.624  69.080  0.00  0.00    -0.290 OA
ATOM     15  C   UNL     1      -9.772   8.675  68.128  0.00  0.00    +0.064 A 
ATOM     16  S   UNL     1      -9.633   8.156  66.496  0.00  0.00    -0.084 S 
ATOM     17  C   UNL     1     -10.087   9.614  65.712  0.00  0.00    +0.036 A 
ATOM     18  C   UNL     1      -9.984  10.499  66.780  0.00  0.00    +0.008 A 
ATOM     19  C   UNL     1     -12.587  10.877  70.821  0.00  0.00    -0.000 A 
ATOM     20  C   UNL     1     -10.376   9.918  67.955  0.00  0.00    +0.009 A 
ATOM     21  C   UNL     1     -10.828  12.542  67.524  0.00  0.00    +0.039 C 
ATOM     22  C   UNL     1     -10.046  13.719  68.048  0.00  0.00    +0.077 C 
ENDROOT
TORSDOF 0
ENDMDL
