MODEL 1
REMARK VINA RESULT:      -7.1      0.000      0.000
REMARK  Name = 
REMARK  26 active torsions:
REMARK  status: ('A' for Active; 'I' for Inactive)
REMARK    1  A    between atoms: O_2  and  C_3
REMARK    2  A    between atoms: C_6  and  C_7
REMARK    3  A    between atoms: C_7  and  C_8
REMARK    4  A    between atoms: C_11  and  O_12
REMARK    5  A    between atoms: C_14  and  O_15
REMARK    6  A    between atoms: N_21  and  C_23
REMARK    7  A    between atoms: C_23  and  C_24
REMARK    8  A    between atoms: C_24  and  C_25
REMARK    9  A    between atoms: C_25  and  O_27
REMARK   10  A    between atoms: O_27  and  C_28
REMARK   11  A    between atoms: C_28  and  C_29
REMARK   12  A    between atoms: C_29  and  C_30
REMARK   13  A    between atoms: C_30  and  C_31
REMARK   14  A    between atoms: C_31  and  C_32
REMARK   15  A    between atoms: C_32  and  O_33
REMARK   16  A    between atoms: O_33  and  C_34
REMARK   17  A    between atoms: C_34  and  C_36
REMARK   18  A    between atoms: C_36  and  C_37
REMARK   19  A    between atoms: C_37  and  N_38
REMARK   20  A    between atoms: C_44  and  O_45
REMARK   21  A    between atoms: C_47  and  O_48
REMARK   22  A    between atoms: C_52  and  C_53
REMARK   23  A    between atoms: C_53  and  C_54
REMARK   24  A    between atoms: C_57  and  O_58
REMARK   25  A    between atoms: C_60  and  O_61
REMARK   26  A    between atoms: C_65  and  O_66
REMARK                            x       y       z     vdW  Elec       q    Type
REMARK                         _______ _______ _______ _____ _____    ______ ____
ROOT
ATOM      1  C   UNL     1      -8.662   9.557  70.175  0.00  0.00    +0.008 C 
ENDROOT
BRANCH   1   2
ATOM      2  C   UNL     1      -7.488  10.362  69.629  0.00  0.00    +0.048 C 
BRANCH   2   3
ATOM      3  C   UNL     1      -7.949  11.005  68.327  0.00  0.00    +0.208 C 
BRANCH   3   4
ATOM      4  O   UNL     1      -7.823  12.404  68.573  0.00  0.00    -0.448 OA
BRANCH   4   5
ATOM      5  C   UNL     1      -7.378  13.192  67.504  0.00  0.00    +0.323 C 
ATOM      6  O   UNL     1      -6.150  13.259  67.220  0.00  0.00    -0.250 OA
BRANCH   5   7
ATOM      7  C   UNL     1      -8.305  14.251  67.060  0.00  0.00    +0.170 C 
BRANCH   7   8
ATOM      8  C   UNL     1      -9.708  13.814  66.848  0.00  0.00    +0.121 C 
BRANCH   8   9
ATOM      9  N   UNL     1     -10.698  14.878  67.069  0.00  0.00    +0.301 N 
ATOM     10  C   UNL     1     -10.155  15.576  68.391  0.00  0.00    +0.086 C 
ATOM     11  C   UNL     1     -11.403  15.133  69.359  0.00  0.00    +0.027 A 
ATOM     12  C   UNL     1     -11.474  13.738  69.489  0.00  0.00    -0.012 A 
ATOM     13  C   UNL     1     -12.298  13.282  70.516  0.00  0.00    +0.036 A 
ATOM     14  C   UNL     1     -12.715  14.137  71.530  0.00  0.00    +0.172 A 
ATOM     15  C   UNL     1     -11.907  15.257  71.708  0.00  0.00    +0.172 A 
ATOM     16  C   UNL     1     -11.670  13.047  68.168  0.00  0.00    +0.087 C 
ATOM     17  C   UNL     1     -11.131  15.674  70.626  0.00  0.00    +0.041 A 
ATOM     18  C   UNL     1     -11.913  14.260  67.265  0.00  0.00    +0.114 C 
ATOM     19  C   UNL     1     -10.487  15.752  65.987  0.00  0.00    +0.171 C 
BRANCH  14  20
ATOM     20  O   UNL     1     -13.968  14.022  72.143  0.00  0.00    -0.468 OA
ATOM     21  C   UNL     1     -15.069  14.724  71.568  0.00  0.00    +0.253 C 
ENDBRANCH  14  20
BRANCH  15  22
ATOM     22  O   UNL     1     -12.433  16.240  72.556  0.00  0.00    -0.468 OA
ATOM     23  C   UNL     1     -12.361  16.119  73.976  0.00  0.00    +0.253 C 
ENDBRANCH  15  22
BRANCH  10  24
ATOM     24  C   UNL     1     -10.792  17.071  68.068  0.00  0.00    +0.086 C 
BRANCH  24  25
ATOM     25  C   UNL     1      -9.808  18.121  68.258  0.00  0.00    -0.013 A 
ATOM     26  C   UNL     1      -8.425  17.934  68.161  0.00  0.00    +0.036 A 
ATOM     27  C   UNL     1      -7.551  18.983  68.210  0.00  0.00    +0.172 A 
ATOM     28  C   UNL     1      -7.988  20.161  67.633  0.00  0.00    +0.172 A 
ATOM     29  C   UNL     1      -9.328  20.306  67.295  0.00  0.00    +0.040 A 
ATOM     30  C   UNL     1     -10.095  19.184  67.379  0.00  0.00    -0.001 A 
BRANCH  28  31
ATOM     31  O   UNL     1      -7.120  21.196  67.388  0.00  0.00    -0.468 OA
ATOM     32  C   UNL     1      -6.137  21.087  66.375  0.00  0.00    +0.253 C 
ENDBRANCH  28  31
BRANCH  27  33
ATOM     33  O   UNL     1      -6.246  18.892  68.659  0.00  0.00    -0.468 OA
ATOM     34  C   UNL     1      -5.984  17.911  69.661  0.00  0.00    +0.253 C 
ENDBRANCH  27  33
ENDBRANCH  24  25
ENDBRANCH  10  24
ENDBRANCH   8   9
ENDBRANCH   7   8
ENDBRANCH   5   7
ENDBRANCH   4   5
ENDBRANCH   3   4
ENDBRANCH   2   3
ENDBRANCH   1   2
BRANCH   1  35
ATOM     35  C   UNL     1      -9.979  10.050  69.653  0.00  0.00    +0.048 C 
BRANCH  35  36
ATOM     36  C   UNL     1     -11.011   9.927  70.769  0.00  0.00    +0.208 C 
BRANCH  36  37
ATOM     37  O   UNL     1     -11.820   8.789  70.617  0.00  0.00    -0.448 OA
BRANCH  37  38
ATOM     38  C   UNL     1     -11.526   7.610  71.309  0.00  0.00    +0.323 C 
ATOM     39  O   UNL     1     -11.725   7.607  72.539  0.00  0.00    -0.250 OA
BRANCH  38  40
ATOM     40  C   UNL     1     -11.565   6.315  70.560  0.00  0.00    +0.170 C 
BRANCH  40  41
ATOM     41  C   UNL     1     -10.750   6.454  69.311  0.00  0.00    +0.121 C 
BRANCH  41  43
ATOM     42  C   UNL     1      -9.143   5.671  67.626  0.00  0.00    +0.086 C 
ATOM     43  N   UNL     1      -9.736   5.539  69.091  0.00  0.00    +0.301 N 
ATOM     44  C   UNL     1      -8.499   5.939  69.778  0.00  0.00    +0.171 C 
ATOM     45  C   UNL     1      -9.955   4.194  69.410  0.00  0.00    +0.114 C 
ATOM     46  C   UNL     1      -8.915   3.224  68.944  0.00  0.00    +0.087 C 
ATOM     47  C   UNL     1      -9.158   3.184  67.464  0.00  0.00    -0.012 A 
ATOM     48  C   UNL     1      -8.650   2.227  66.641  0.00  0.00    +0.036 A 
ATOM     49  C   UNL     1      -8.642   2.446  65.270  0.00  0.00    +0.172 A 
ATOM     50  C   UNL     1      -9.559   3.387  64.814  0.00  0.00    +0.172 A 
ATOM     51  C   UNL     1     -10.055   4.376  65.661  0.00  0.00    +0.041 A 
ATOM     52  C   UNL     1      -9.852   4.316  67.037  0.00  0.00    +0.027 A 
BRANCH  50  53
ATOM     53  O   UNL     1      -9.848   3.363  63.453  0.00  0.00    -0.468 OA
ATOM     54  C   UNL     1      -9.450   4.395  62.560  0.00  0.00    +0.253 C 
ENDBRANCH  50  53
BRANCH  49  55
ATOM     55  O   UNL     1      -7.496   2.188  64.505  0.00  0.00    -0.468 OA
ATOM     56  C   UNL     1      -6.330   3.006  64.624  0.00  0.00    +0.253 C 
ENDBRANCH  49  55
BRANCH  42  57
ATOM     57  C   UNL     1     -10.377   6.628  67.049  0.00  0.00    +0.086 C 
BRANCH  57  61
ATOM     58  C   UNL     1      -9.067   9.584  64.441  0.00  0.00    +0.172 A 
ATOM     59  C   UNL     1      -8.096   8.719  64.937  0.00  0.00    +0.172 A 
ATOM     60  C   UNL     1      -8.435   7.812  65.940  0.00  0.00    +0.036 A 
ATOM     61  C   UNL     1      -9.676   7.840  66.566  0.00  0.00    -0.013 A 
ATOM     62  C   UNL     1     -10.351   9.050  66.428  0.00  0.00    -0.001 A 
ATOM     63  C   UNL     1     -10.075   9.886  65.351  0.00  0.00    +0.040 A 
BRANCH  58  65
ATOM     64  C   UNL     1      -9.015  10.818  62.387  0.00  0.00    +0.253 C 
ATOM     65  O   UNL     1      -9.303   9.730  63.069  0.00  0.00    -0.468 OA
ENDBRANCH  58  65
BRANCH  59  66
ATOM     66  O   UNL     1      -7.086   8.346  64.044  0.00  0.00    -0.468 OA
ATOM     67  C   UNL     1      -6.813   6.986  63.740  0.00  0.00    +0.253 C 
ENDBRANCH  59  66
ENDBRANCH  57  61
ENDBRANCH  42  57
ENDBRANCH  41  43
ENDBRANCH  40  41
ENDBRANCH  38  40
ENDBRANCH  37  38
ENDBRANCH  36  37
ENDBRANCH  35  36
ENDBRANCH   1  35
TORSDOF 26
ENDMDL
MODEL 2
REMARK VINA RESULT:      -6.9      2.675      6.510
REMARK  Name = 
REMARK  26 active torsions:
REMARK  status: ('A' for Active; 'I' for Inactive)
REMARK    1  A    between atoms: O_2  and  C_3
REMARK    2  A    between atoms: C_6  and  C_7
REMARK    3  A    between atoms: C_7  and  C_8
REMARK    4  A    between atoms: C_11  and  O_12
REMARK    5  A    between atoms: C_14  and  O_15
REMARK    6  A    between atoms: N_21  and  C_23
REMARK    7  A    between atoms: C_23  and  C_24
REMARK    8  A    between atoms: C_24  and  C_25
REMARK    9  A    between atoms: C_25  and  O_27
REMARK   10  A    between atoms: O_27  and  C_28
REMARK   11  A    between atoms: C_28  and  C_29
REMARK   12  A    between atoms: C_29  and  C_30
REMARK   13  A    between atoms: C_30  and  C_31
REMARK   14  A    between atoms: C_31  and  C_32
REMARK   15  A    between atoms: C_32  and  O_33
REMARK   16  A    between atoms: O_33  and  C_34
REMARK   17  A    between atoms: C_34  and  C_36
REMARK   18  A    between atoms: C_36  and  C_37
REMARK   19  A    between atoms: C_37  and  N_38
REMARK   20  A    between atoms: C_44  and  O_45
REMARK   21  A    between atoms: C_47  and  O_48
REMARK   22  A    between atoms: C_52  and  C_53
REMARK   23  A    between atoms: C_53  and  C_54
REMARK   24  A    between atoms: C_57  and  O_58
REMARK   25  A    between atoms: C_60  and  O_61
REMARK   26  A    between atoms: C_65  and  O_66
REMARK                            x       y       z     vdW  Elec       q    Type
REMARK                         _______ _______ _______ _____ _____    ______ ____
ROOT
ATOM      1  C   UNL     1     -12.198  12.301  63.760  0.00  0.00    +0.008 C 
ENDROOT
BRANCH   1   2
ATOM      2  C   UNL     1     -12.389  12.574  65.247  0.00  0.00    +0.048 C 
BRANCH   2   3
ATOM      3  C   UNL     1     -12.787  14.038  65.390  0.00  0.00    +0.208 C 
BRANCH   3   4
ATOM      4  O   UNL     1     -12.069  14.691  64.345  0.00  0.00    -0.448 OA
BRANCH   4   5
ATOM      5  C   UNL     1     -11.194  15.714  64.729  0.00  0.00    +0.323 C 
ATOM      6  O   UNL     1     -11.313  16.876  64.250  0.00  0.00    -0.250 OA
BRANCH   5   7
ATOM      7  C   UNL     1      -9.913  15.276  65.313  0.00  0.00    +0.170 C 
BRANCH   7   8
ATOM      8  C   UNL     1      -9.238  16.277  66.177  0.00  0.00    +0.121 C 
BRANCH   8   9
ATOM      9  N   UNL     1      -8.710  15.717  67.430  0.00  0.00    +0.301 N 
ATOM     10  C   UNL     1      -9.351  14.262  67.447  0.00  0.00    +0.086 C 
ATOM     11  C   UNL     1     -10.323  14.503  68.745  0.00  0.00    +0.027 A 
ATOM     12  C   UNL     1     -11.277  15.497  68.487  0.00  0.00    -0.012 A 
ATOM     13  C   UNL     1     -12.325  15.563  69.403  0.00  0.00    +0.036 A 
ATOM     14  C   UNL     1     -12.579  14.508  70.274  0.00  0.00    +0.172 A 
ATOM     15  C   UNL     1     -12.072  13.281  69.855  0.00  0.00    +0.172 A 
ATOM     16  C   UNL     1     -10.650  16.822  68.149  0.00  0.00    +0.087 C 
ATOM     17  C   UNL     1     -11.002  13.294  68.959  0.00  0.00    +0.041 A 
ATOM     18  C   UNL     1      -9.183  16.508  68.454  0.00  0.00    +0.114 C 
ATOM     19  C   UNL     1      -7.331  15.592  67.178  0.00  0.00    +0.171 C 
BRANCH  14  20
ATOM     20  O   UNL     1     -13.069  14.706  71.570  0.00  0.00    -0.468 OA
ATOM     21  C   UNL     1     -14.480  14.813  71.749  0.00  0.00    +0.253 C 
ENDBRANCH  14  20
BRANCH  15  22
ATOM     22  O   UNL     1     -12.111  12.264  70.818  0.00  0.00    -0.468 OA
ATOM     23  C   UNL     1     -12.059  10.886  70.451  0.00  0.00    +0.253 C 
ENDBRANCH  15  22
BRANCH  10  24
ATOM     24  C   UNL     1      -8.147  13.556  68.339  0.00  0.00    +0.086 C 
BRANCH  24  25
ATOM     25  C   UNL     1      -7.696  12.315  67.738  0.00  0.00    -0.013 A 
ATOM     26  C   UNL     1      -6.567  12.198  66.920  0.00  0.00    +0.036 A 
ATOM     27  C   UNL     1      -6.107  10.983  66.496  0.00  0.00    +0.172 A 
ATOM     28  C   UNL     1      -6.249   9.938  67.390  0.00  0.00    +0.172 A 
ATOM     29  C   UNL     1      -7.060  10.093  68.507  0.00  0.00    +0.040 A 
ATOM     30  C   UNL     1      -7.514  11.353  68.752  0.00  0.00    -0.001 A 
BRANCH  28  31
ATOM     31  O   UNL     1      -5.603   8.742  67.191  0.00  0.00    -0.468 OA
ATOM     32  C   UNL     1      -5.320   7.888  68.285  0.00  0.00    +0.253 C 
ENDBRANCH  28  31
BRANCH  27  33
ATOM     33  O   UNL     1      -5.402  10.782  65.323  0.00  0.00    -0.468 OA
ATOM     34  C   UNL     1      -6.149  10.312  64.203  0.00  0.00    +0.253 C 
ENDBRANCH  27  33
ENDBRANCH  24  25
ENDBRANCH  10  24
ENDBRANCH   8   9
ENDBRANCH   7   8
ENDBRANCH   5   7
ENDBRANCH   4   5
ENDBRANCH   3   4
ENDBRANCH   2   3
ENDBRANCH   1   2
BRANCH   1  35
ATOM     35  C   UNL     1     -10.912  11.581  63.475  0.00  0.00    +0.048 C 
BRANCH  35  36
ATOM     36  C   UNL     1     -10.126  11.475  64.778  0.00  0.00    +0.208 C 
BRANCH  36  37
ATOM     37  O   UNL     1      -9.366  10.296  64.841  0.00  0.00    -0.448 OA
BRANCH  37  38
ATOM     38  C   UNL     1      -9.524   9.405  65.908  0.00  0.00    +0.323 C 
ATOM     39  O   UNL     1     -10.390   9.684  66.760  0.00  0.00    -0.250 OA
BRANCH  38  40
ATOM     40  C   UNL     1      -9.132   7.975  65.706  0.00  0.00    +0.170 C 
BRANCH  40  41
ATOM     41  C   UNL     1      -8.942   7.331  67.045  0.00  0.00    +0.121 C 
BRANCH  41  43
ATOM     42  C   UNL     1      -9.657   5.763  68.794  0.00  0.00    +0.086 C 
ATOM     43  N   UNL     1      -9.496   6.081  67.249  0.00  0.00    +0.301 N 
ATOM     44  C   UNL     1     -10.938   6.083  66.958  0.00  0.00    +0.171 C 
ATOM     45  C   UNL     1      -8.954   4.979  66.578  0.00  0.00    +0.114 C 
ATOM     46  C   UNL     1      -9.444   3.632  67.008  0.00  0.00    +0.087 C 
ATOM     47  C   UNL     1      -8.790   3.469  68.348  0.00  0.00    -0.012 A 
ATOM     48  C   UNL     1      -8.704   2.282  69.006  0.00  0.00    +0.036 A 
ATOM     49  C   UNL     1      -8.392   2.277  70.359  0.00  0.00    +0.172 A 
ATOM     50  C   UNL     1      -7.740   3.415  70.822  0.00  0.00    +0.172 A 
ATOM     51  C   UNL     1      -7.854   4.631  70.152  0.00  0.00    +0.041 A 
ATOM     52  C   UNL     1      -8.410   4.702  68.876  0.00  0.00    +0.027 A 
BRANCH  50  53
ATOM     53  O   UNL     1      -7.084   3.300  72.043  0.00  0.00    -0.468 OA
ATOM     54  C   UNL     1      -7.170   4.288  73.062  0.00  0.00    +0.253 C 
ENDBRANCH  50  53
BRANCH  49  55
ATOM     55  O   UNL     1      -9.124   1.497  71.266  0.00  0.00    -0.468 OA
ATOM     56  C   UNL     1     -10.187   2.063  72.034  0.00  0.00    +0.253 C 
ENDBRANCH  49  55
BRANCH  42  57
ATOM     57  C   UNL     1      -8.690   7.017  69.308  0.00  0.00    +0.086 C 
BRANCH  57  61
ATOM     58  C   UNL     1     -10.760   7.663  72.851  0.00  0.00    +0.172 A 
ATOM     59  C   UNL     1     -11.527   7.550  71.696  0.00  0.00    +0.172 A 
ATOM     60  C   UNL     1     -10.894   7.500  70.455  0.00  0.00    +0.036 A 
ATOM     61  C   UNL     1      -9.524   7.703  70.321  0.00  0.00    -0.013 A 
ATOM     62  C   UNL     1      -8.943   8.357  71.404  0.00  0.00    -0.001 A 
ATOM     63  C   UNL     1      -9.537   8.296  72.660  0.00  0.00    +0.040 A 
BRANCH  58  65
ATOM     64  C   UNL     1     -10.468   5.583  74.006  0.00  0.00    +0.253 C 
ATOM     65  O   UNL     1     -10.937   6.811  73.947  0.00  0.00    -0.468 OA
ENDBRANCH  58  65
BRANCH  59  66
ATOM     66  O   UNL     1     -12.747   6.877  71.825  0.00  0.00    -0.468 OA
ATOM     67  C   UNL     1     -13.993   7.538  71.659  0.00  0.00    +0.253 C 
ENDBRANCH  59  66
ENDBRANCH  57  61
ENDBRANCH  42  57
ENDBRANCH  41  43
ENDBRANCH  40  41
ENDBRANCH  38  40
ENDBRANCH  37  38
ENDBRANCH  36  37
ENDBRANCH  35  36
ENDBRANCH   1  35
TORSDOF 26
ENDMDL
MODEL 3
REMARK VINA RESULT:      -6.8      2.195      3.636
REMARK  Name = 
REMARK  26 active torsions:
REMARK  status: ('A' for Active; 'I' for Inactive)
REMARK    1  A    between atoms: O_2  and  C_3
REMARK    2  A    between atoms: C_6  and  C_7
REMARK    3  A    between atoms: C_7  and  C_8
REMARK    4  A    between atoms: C_11  and  O_12
REMARK    5  A    between atoms: C_14  and  O_15
REMARK    6  A    between atoms: N_21  and  C_23
REMARK    7  A    between atoms: C_23  and  C_24
REMARK    8  A    between atoms: C_24  and  C_25
REMARK    9  A    between atoms: C_25  and  O_27
REMARK   10  A    between atoms: O_27  and  C_28
REMARK   11  A    between atoms: C_28  and  C_29
REMARK   12  A    between atoms: C_29  and  C_30
REMARK   13  A    between atoms: C_30  and  C_31
REMARK   14  A    between atoms: C_31  and  C_32
REMARK   15  A    between atoms: C_32  and  O_33
REMARK   16  A    between atoms: O_33  and  C_34
REMARK   17  A    between atoms: C_34  and  C_36
REMARK   18  A    between atoms: C_36  and  C_37
REMARK   19  A    between atoms: C_37  and  N_38
REMARK   20  A    between atoms: C_44  and  O_45
REMARK   21  A    between atoms: C_47  and  O_48
REMARK   22  A    between atoms: C_52  and  C_53
REMARK   23  A    between atoms: C_53  and  C_54
REMARK   24  A    between atoms: C_57  and  O_58
REMARK   25  A    between atoms: C_60  and  O_61
REMARK   26  A    between atoms: C_65  and  O_66
REMARK                            x       y       z     vdW  Elec       q    Type
REMARK                         _______ _______ _______ _____ _____    ______ ____
ROOT
ATOM      1  C   UNL     1     -10.290  10.048  67.709  0.00  0.00    +0.008 C 
ENDROOT
BRANCH   1   2
ATOM      2  C   UNL     1      -9.283   9.927  66.571  0.00  0.00    +0.048 C 
BRANCH   2   3
ATOM      3  C   UNL     1      -7.967  10.512  67.069  0.00  0.00    +0.208 C 
BRANCH   3   4
ATOM      4  O   UNL     1      -7.970  11.843  66.558  0.00  0.00    -0.448 OA
BRANCH   4   5
ATOM      5  C   UNL     1      -7.734  12.870  67.481  0.00  0.00    +0.323 C 
ATOM      6  O   UNL     1      -7.201  12.621  68.599  0.00  0.00    -0.250 OA
BRANCH   5   7
ATOM      7  C   UNL     1      -8.528  14.098  67.291  0.00  0.00    +0.170 C 
BRANCH   7   8
ATOM      8  C   UNL     1      -9.875  13.893  66.699  0.00  0.00    +0.121 C 
BRANCH   8   9
ATOM      9  N   UNL     1     -10.812  14.992  66.969  0.00  0.00    +0.301 N 
ATOM     10  C   UNL     1     -10.204  15.641  68.288  0.00  0.00    +0.086 C 
ATOM     11  C   UNL     1     -11.440  15.230  69.284  0.00  0.00    +0.027 A 
ATOM     12  C   UNL     1     -11.566  13.838  69.390  0.00  0.00    -0.012 A 
ATOM     13  C   UNL     1     -12.380  13.395  70.431  0.00  0.00    +0.036 A 
ATOM     14  C   UNL     1     -12.731  14.247  71.473  0.00  0.00    +0.172 A 
ATOM     15  C   UNL     1     -11.871  15.328  71.648  0.00  0.00    +0.172 A 
ATOM     16  C   UNL     1     -11.829  13.182  68.062  0.00  0.00    +0.087 C 
ATOM     17  C   UNL     1     -11.110  15.734  70.552  0.00  0.00    +0.041 A 
ATOM     18  C   UNL     1     -12.047  14.422  67.190  0.00  0.00    +0.114 C 
ATOM     19  C   UNL     1     -10.596  15.878  65.898  0.00  0.00    +0.171 C 
BRANCH  14  20
ATOM     20  O   UNL     1     -13.970  14.171  72.120  0.00  0.00    -0.468 OA
ATOM     21  C   UNL     1     -15.087  14.823  71.519  0.00  0.00    +0.253 C 
ENDBRANCH  14  20
BRANCH  15  22
ATOM     22  O   UNL     1     -12.332  16.315  72.530  0.00  0.00    -0.468 OA
ATOM     23  C   UNL     1     -12.289  16.133  73.944  0.00  0.00    +0.253 C 
ENDBRANCH  15  22
BRANCH  10  24
ATOM     24  C   UNL     1     -10.786  17.167  68.012  0.00  0.00    +0.086 C 
BRANCH  24  25
ATOM     25  C   UNL     1      -9.760  18.173  68.219  0.00  0.00    -0.013 A 
ATOM     26  C   UNL     1      -8.387  17.940  68.088  0.00  0.00    +0.036 A 
ATOM     27  C   UNL     1      -7.475  18.955  68.156  0.00  0.00    +0.172 A 
ATOM     28  C   UNL     1      -7.879  20.167  67.630  0.00  0.00    +0.172 A 
ATOM     29  C   UNL     1      -9.219  20.372  67.324  0.00  0.00    +0.040 A 
ATOM     30  C   UNL     1     -10.025  19.277  67.384  0.00  0.00    -0.001 A 
BRANCH  28  31
ATOM     31  O   UNL     1      -6.978  21.179  67.404  0.00  0.00    -0.468 OA
ATOM     32  C   UNL     1      -6.053  21.093  66.336  0.00  0.00    +0.253 C 
ENDBRANCH  28  31
BRANCH  27  33
ATOM     33  O   UNL     1      -6.166  18.800  68.576  0.00  0.00    -0.468 OA
ATOM     34  C   UNL     1      -5.901  19.068  69.951  0.00  0.00    +0.253 C 
ENDBRANCH  27  33
ENDBRANCH  24  25
ENDBRANCH  10  24
ENDBRANCH   8   9
ENDBRANCH   7   8
ENDBRANCH   5   7
ENDBRANCH   4   5
ENDBRANCH   3   4
ENDBRANCH   2   3
ENDBRANCH   1   2
BRANCH   1  35
ATOM     35  C   UNL     1      -9.641   9.921  69.057  0.00  0.00    +0.048 C 
BRANCH  35  36
ATOM     36  C   UNL     1     -10.673  10.286  70.119  0.00  0.00    +0.208 C 
BRANCH  36  37
ATOM     37  O   UNL     1     -11.666   9.302  70.251  0.00  0.00    -0.448 OA
BRANCH  37  38
ATOM     38  C   UNL     1     -12.522   9.300  71.357  0.00  0.00    +0.323 C 
ATOM     39  O   UNL     1     -13.706   9.636  71.161  0.00  0.00    -0.250 OA
BRANCH  38  40
ATOM     40  C   UNL     1     -12.198   8.398  72.506  0.00  0.00    +0.170 C 
BRANCH  40  41
ATOM     41  C   UNL     1     -11.577   7.142  71.977  0.00  0.00    +0.121 C 
BRANCH  41  43
ATOM     42  C   UNL     1      -9.532   5.865  71.513  0.00  0.00    +0.086 C 
ATOM     43  N   UNL     1     -10.388   6.718  72.540  0.00  0.00    +0.301 N 
ATOM     44  C   UNL     1      -9.422   7.822  72.640  0.00  0.00    +0.171 C 
ATOM     45  C   UNL     1     -10.413   6.093  73.792  0.00  0.00    +0.114 C 
ATOM     46  C   UNL     1      -9.136   5.458  74.244  0.00  0.00    +0.087 C 
ATOM     47  C   UNL     1      -9.047   4.254  73.353  0.00  0.00    -0.012 A 
ATOM     48  C   UNL     1      -8.206   3.210  73.578  0.00  0.00    +0.036 A 
ATOM     49  C   UNL     1      -7.947   2.313  72.550  0.00  0.00    +0.172 A 
ATOM     50  C   UNL     1      -8.905   2.272  71.543  0.00  0.00    +0.172 A 
ATOM     51  C   UNL     1      -9.746   3.358  71.307  0.00  0.00    +0.041 A 
ATOM     52  C   UNL     1      -9.833   4.413  72.212  0.00  0.00    +0.027 A 
BRANCH  50  53
ATOM     53  O   UNL     1      -8.888   1.154  70.715  0.00  0.00    -0.468 OA
ATOM     54  C   UNL     1      -9.324  -0.130  71.141  0.00  0.00    +0.253 C 
ENDBRANCH  50  53
BRANCH  49  55
ATOM     55  O   UNL     1      -6.636   1.908  72.258  0.00  0.00    -0.468 OA
ATOM     56  C   UNL     1      -5.770   2.727  71.470  0.00  0.00    +0.253 C 
ENDBRANCH  49  55
BRANCH  42  57
ATOM     57  C   UNL     1     -10.771   5.653  70.422  0.00  0.00    +0.086 C 
BRANCH  57  61
ATOM     58  C   UNL     1      -9.309   5.986  66.548  0.00  0.00    +0.172 A 
ATOM     59  C   UNL     1      -8.427   6.312  67.574  0.00  0.00    +0.172 A 
ATOM     60  C   UNL     1      -8.897   6.383  68.885  0.00  0.00    +0.036 A 
ATOM     61  C   UNL     1     -10.252   6.281  69.185  0.00  0.00    -0.013 A 
ATOM     62  C   UNL     1     -11.090   6.528  68.102  0.00  0.00    -0.001 A 
ATOM     63  C   UNL     1     -10.630   6.338  66.802  0.00  0.00    +0.040 A 
BRANCH  58  65
ATOM     64  C   UNL     1      -9.669   3.838  65.548  0.00  0.00    +0.253 C 
ATOM     65  O   UNL     1      -9.025   4.983  65.614  0.00  0.00    -0.468 OA
ENDBRANCH  58  65
BRANCH  59  66
ATOM     66  O   UNL     1      -7.093   5.935  67.387  0.00  0.00    -0.468 OA
ATOM     67  C   UNL     1      -6.575   4.718  67.903  0.00  0.00    +0.253 C 
ENDBRANCH  59  66
ENDBRANCH  57  61
ENDBRANCH  42  57
ENDBRANCH  41  43
ENDBRANCH  40  41
ENDBRANCH  38  40
ENDBRANCH  37  38
ENDBRANCH  36  37
ENDBRANCH  35  36
ENDBRANCH   1  35
TORSDOF 26
ENDMDL
MODEL 4
REMARK VINA RESULT:      -6.8      2.037      5.758
REMARK  Name = 
REMARK  26 active torsions:
REMARK  status: ('A' for Active; 'I' for Inactive)
REMARK    1  A    between atoms: O_2  and  C_3
REMARK    2  A    between atoms: C_6  and  C_7
REMARK    3  A    between atoms: C_7  and  C_8
REMARK    4  A    between atoms: C_11  and  O_12
REMARK    5  A    between atoms: C_14  and  O_15
REMARK    6  A    between atoms: N_21  and  C_23
REMARK    7  A    between atoms: C_23  and  C_24
REMARK    8  A    between atoms: C_24  and  C_25
REMARK    9  A    between atoms: C_25  and  O_27
REMARK   10  A    between atoms: O_27  and  C_28
REMARK   11  A    between atoms: C_28  and  C_29
REMARK   12  A    between atoms: C_29  and  C_30
REMARK   13  A    between atoms: C_30  and  C_31
REMARK   14  A    between atoms: C_31  and  C_32
REMARK   15  A    between atoms: C_32  and  O_33
REMARK   16  A    between atoms: O_33  and  C_34
REMARK   17  A    between atoms: C_34  and  C_36
REMARK   18  A    between atoms: C_36  and  C_37
REMARK   19  A    between atoms: C_37  and  N_38
REMARK   20  A    between atoms: C_44  and  O_45
REMARK   21  A    between atoms: C_47  and  O_48
REMARK   22  A    between atoms: C_52  and  C_53
REMARK   23  A    between atoms: C_53  and  C_54
REMARK   24  A    between atoms: C_57  and  O_58
REMARK   25  A    between atoms: C_60  and  O_61
REMARK   26  A    between atoms: C_65  and  O_66
REMARK                            x       y       z     vdW  Elec       q    Type
REMARK                         _______ _______ _______ _____ _____    ______ ____
ROOT
ATOM      1  C   UNL     1     -13.781  14.999  72.413  0.00  0.00    +0.008 C 
ENDROOT
BRANCH   1   2
ATOM      2  C   UNL     1     -12.284  15.158  72.654  0.00  0.00    +0.048 C 
BRANCH   2   3
ATOM      3  C   UNL     1     -11.790  16.251  71.713  0.00  0.00    +0.208 C 
BRANCH   3   4
ATOM      4  O   UNL     1     -12.530  16.031  70.515  0.00  0.00    -0.448 OA
BRANCH   4   5
ATOM      5  C   UNL     1     -11.797  15.644  69.386  0.00  0.00    +0.323 C 
ATOM      6  O   UNL     1     -12.027  14.540  68.816  0.00  0.00    -0.250 OA
BRANCH   5   7
ATOM      7  C   UNL     1     -10.501  16.323  69.200  0.00  0.00    +0.170 C 
BRANCH   7   8
ATOM      8  C   UNL     1     -10.372  17.103  67.943  0.00  0.00    +0.121 C 
BRANCH   8   9
ATOM      9  N   UNL     1      -9.134  16.828  67.201  0.00  0.00    +0.301 N 
ATOM     10  C   UNL     1      -8.067  16.664  68.369  0.00  0.00    +0.086 C 
ATOM     11  C   UNL     1      -7.194  18.005  68.012  0.00  0.00    +0.027 A 
ATOM     12  C   UNL     1      -7.964  19.167  68.160  0.00  0.00    -0.012 A 
ATOM     13  C   UNL     1      -7.240  20.358  68.173  0.00  0.00    +0.036 A 
ATOM     14  C   UNL     1      -5.866  20.355  68.383  0.00  0.00    +0.172 A 
ATOM     15  C   UNL     1      -5.384  19.219  69.028  0.00  0.00    +0.172 A 
ATOM     16  C   UNL     1      -9.173  19.173  67.265  0.00  0.00    +0.087 C 
ATOM     17  C   UNL     1      -6.148  18.055  68.946  0.00  0.00    +0.041 A 
ATOM     18  C   UNL     1      -8.883  17.932  66.415  0.00  0.00    +0.114 C 
ATOM     19  C   UNL     1      -9.368  15.563  66.631  0.00  0.00    +0.171 C 
BRANCH  14  20
ATOM     20  O   UNL     1      -5.011  21.283  67.776  0.00  0.00    -0.468 OA
ATOM     21  C   UNL     1      -4.896  21.266  66.354  0.00  0.00    +0.253 C 
ENDBRANCH  14  20
BRANCH  15  22
ATOM     22  O   UNL     1      -3.989  19.090  69.039  0.00  0.00    -0.468 OA
ATOM     23  C   UNL     1      -3.313  18.202  68.150  0.00  0.00    +0.253 C 
ENDBRANCH  15  22
BRANCH  10  24
ATOM     24  C   UNL     1      -7.058  15.648  67.536  0.00  0.00    +0.086 C 
BRANCH  24  25
ATOM     25  C   UNL     1      -6.474  14.645  68.407  0.00  0.00    -0.013 A 
ATOM     26  C   UNL     1      -6.646  14.608  69.795  0.00  0.00    +0.036 A 
ATOM     27  C   UNL     1      -6.193  13.563  70.549  0.00  0.00    +0.172 A 
ATOM     28  C   UNL     1      -6.255  12.317  69.955  0.00  0.00    +0.172 A 
ATOM     29  C   UNL     1      -6.499  12.216  68.591  0.00  0.00    +0.040 A 
ATOM     30  C   UNL     1      -6.860  13.366  67.957  0.00  0.00    -0.001 A 
BRANCH  28  31
ATOM     31  O   UNL     1      -6.076  11.170  70.689  0.00  0.00    -0.468 OA
ATOM     32  C   UNL     1      -4.792  10.585  70.808  0.00  0.00    +0.253 C 
ENDBRANCH  28  31
BRANCH  27  33
ATOM     33  O   UNL     1      -5.824  13.663  71.879  0.00  0.00    -0.468 OA
ATOM     34  C   UNL     1      -4.675  14.457  72.165  0.00  0.00    +0.253 C 
ENDBRANCH  27  33
ENDBRANCH  24  25
ENDBRANCH  10  24
ENDBRANCH   8   9
ENDBRANCH   7   8
ENDBRANCH   5   7
ENDBRANCH   4   5
ENDBRANCH   3   4
ENDBRANCH   2   3
ENDBRANCH   1   2
BRANCH   1  35
ATOM     35  C   UNL     1     -14.179  13.562  72.245  0.00  0.00    +0.048 C 
BRANCH  35  36
ATOM     36  C   UNL     1     -12.960  12.781  71.766  0.00  0.00    +0.208 C 
BRANCH  36  37
ATOM     37  O   UNL     1     -13.120  11.396  71.934  0.00  0.00    -0.448 OA
BRANCH  37  38
ATOM     38  C   UNL     1     -12.654  10.504  70.963  0.00  0.00    +0.323 C 
ATOM     39  O   UNL     1     -12.715  10.872  69.775  0.00  0.00    -0.250 OA
BRANCH  38  40
ATOM     40  C   UNL     1     -11.628   9.490  71.363  0.00  0.00    +0.170 C 
BRANCH  40  41
ATOM     41  C   UNL     1     -11.147   8.778  70.136  0.00  0.00    +0.121 C 
BRANCH  41  43
ATOM     42  C   UNL     1      -9.188   8.200  68.772  0.00  0.00    +0.086 C 
ATOM     43  N   UNL     1      -9.908   8.165  70.185  0.00  0.00    +0.301 N 
ATOM     44  C   UNL     1      -8.919   9.013  70.865  0.00  0.00    +0.171 C 
ATOM     45  C   UNL     1      -9.803   6.890  70.754  0.00  0.00    +0.114 C 
ATOM     46  C   UNL     1      -8.493   6.189  70.576  0.00  0.00    +0.087 C 
ATOM     47  C   UNL     1      -8.526   5.822  69.122  0.00  0.00    -0.012 A 
ATOM     48  C   UNL     1      -7.682   4.920  68.552  0.00  0.00    +0.036 A 
ATOM     49  C   UNL     1      -7.555   4.888  67.170  0.00  0.00    +0.172 A 
ATOM     50  C   UNL     1      -8.622   5.434  66.464  0.00  0.00    +0.172 A 
ATOM     51  C   UNL     1      -9.465   6.375  67.050  0.00  0.00    +0.041 A 
ATOM     52  C   UNL     1      -9.433   6.617  68.422  0.00  0.00    +0.027 A 
BRANCH  50  53
ATOM     53  O   UNL     1      -8.716   5.090  65.119  0.00  0.00    -0.468 OA
ATOM     54  C   UNL     1      -9.109   3.798  64.678  0.00  0.00    +0.253 C 
ENDBRANCH  50  53
BRANCH  49  55
ATOM     55  O   UNL     1      -6.293   4.835  66.562  0.00  0.00    -0.468 OA
ATOM     56  C   UNL     1      -5.666   3.584  66.270  0.00  0.00    +0.253 C 
ENDBRANCH  49  55
BRANCH  42  57
ATOM     57  C   UNL     1     -10.546   8.650  67.921  0.00  0.00    +0.086 C 
BRANCH  57  61
ATOM     58  C   UNL     1     -10.712  12.011  65.485  0.00  0.00    +0.172 A 
ATOM     59  C   UNL     1     -10.131  10.873  64.934  0.00  0.00    +0.172 A 
ATOM     60  C   UNL     1      -9.892   9.764  65.745  0.00  0.00    +0.036 A 
ATOM     61  C   UNL     1     -10.083   9.808  67.122  0.00  0.00    -0.013 A 
ATOM     62  C   UNL     1     -10.107  11.097  67.648  0.00  0.00    -0.001 A 
ATOM     63  C   UNL     1     -10.462  12.175  66.843  0.00  0.00    +0.040 A 
BRANCH  58  65
ATOM     64  C   UNL     1     -12.437  13.674  65.427  0.00  0.00    +0.253 C 
ATOM     65  O   UNL     1     -11.822  12.636  64.903  0.00  0.00    -0.468 OA
ENDBRANCH  58  65
BRANCH  59  66
ATOM     66  O   UNL     1     -10.394  10.637  63.580  0.00  0.00    -0.468 OA
ATOM     67  C   UNL     1      -9.378  10.712  62.591  0.00  0.00    +0.253 C 
ENDBRANCH  59  66
ENDBRANCH  57  61
ENDBRANCH  42  57
ENDBRANCH  41  43
ENDBRANCH  40  41
ENDBRANCH  38  40
ENDBRANCH  37  38
ENDBRANCH  36  37
ENDBRANCH  35  36
ENDBRANCH   1  35
TORSDOF 26
ENDMDL
MODEL 5
REMARK VINA RESULT:      -6.8      2.760      6.538
REMARK  Name = 
REMARK  26 active torsions:
REMARK  status: ('A' for Active; 'I' for Inactive)
REMARK    1  A    between atoms: O_2  and  C_3
REMARK    2  A    between atoms: C_6  and  C_7
REMARK    3  A    between atoms: C_7  and  C_8
REMARK    4  A    between atoms: C_11  and  O_12
REMARK    5  A    between atoms: C_14  and  O_15
REMARK    6  A    between atoms: N_21  and  C_23
REMARK    7  A    between atoms: C_23  and  C_24
REMARK    8  A    between atoms: C_24  and  C_25
REMARK    9  A    between atoms: C_25  and  O_27
REMARK   10  A    between atoms: O_27  and  C_28
REMARK   11  A    between atoms: C_28  and  C_29
REMARK   12  A    between atoms: C_29  and  C_30
REMARK   13  A    between atoms: C_30  and  C_31
REMARK   14  A    between atoms: C_31  and  C_32
REMARK   15  A    between atoms: C_32  and  O_33
REMARK   16  A    between atoms: O_33  and  C_34
REMARK   17  A    between atoms: C_34  and  C_36
REMARK   18  A    between atoms: C_36  and  C_37
REMARK   19  A    between atoms: C_37  and  N_38
REMARK   20  A    between atoms: C_44  and  O_45
REMARK   21  A    between atoms: C_47  and  O_48
REMARK   22  A    between atoms: C_52  and  C_53
REMARK   23  A    between atoms: C_53  and  C_54
REMARK   24  A    between atoms: C_57  and  O_58
REMARK   25  A    between atoms: C_60  and  O_61
REMARK   26  A    between atoms: C_65  and  O_66
REMARK                            x       y       z     vdW  Elec       q    Type
REMARK                         _______ _______ _______ _____ _____    ______ ____
ROOT
ATOM      1  C   UNL     1     -10.761  12.274  64.860  0.00  0.00    +0.008 C 
ENDROOT
BRANCH   1   2
ATOM      2  C   UNL     1     -12.054  12.654  65.572  0.00  0.00    +0.048 C 
BRANCH   2   3
ATOM      3  C   UNL     1     -12.417  14.065  65.127  0.00  0.00    +0.208 C 
BRANCH   3   4
ATOM      4  O   UNL     1     -11.154  14.706  64.958  0.00  0.00    -0.448 OA
BRANCH   4   5
ATOM      5  C   UNL     1     -11.167  16.103  64.870  0.00  0.00    +0.323 C 
ATOM      6  O   UNL     1     -11.687  16.681  63.875  0.00  0.00    -0.250 OA
BRANCH   5   7
ATOM      7  C   UNL     1     -10.176  16.807  65.706  0.00  0.00    +0.170 C 
BRANCH   7   8
ATOM      8  C   UNL     1      -9.169  15.934  66.361  0.00  0.00    +0.121 C 
BRANCH   8   9
ATOM      9  N   UNL     1      -8.946  16.250  67.779  0.00  0.00    +0.301 N 
ATOM     10  C   UNL     1      -7.361  16.354  67.859  0.00  0.00    +0.086 C 
ATOM     11  C   UNL     1      -7.136  15.035  68.807  0.00  0.00    +0.027 A 
ATOM     12  C   UNL     1      -7.557  13.865  68.157  0.00  0.00    -0.012 A 
ATOM     13  C   UNL     1      -7.135  12.676  68.749  0.00  0.00    +0.036 A 
ATOM     14  C   UNL     1      -6.101  12.670  69.679  0.00  0.00    +0.172 A 
ATOM     15  C   UNL     1      -5.252  13.770  69.604  0.00  0.00    +0.172 A 
ATOM     16  C   UNL     1      -9.015  13.905  67.789  0.00  0.00    +0.087 C 
ATOM     17  C   UNL     1      -5.754  14.937  69.025  0.00  0.00    +0.041 A 
ATOM     18  C   UNL     1      -9.437  15.189  68.508  0.00  0.00    +0.114 C 
ATOM     19  C   UNL     1      -9.484  17.543  67.916  0.00  0.00    +0.171 C 
BRANCH  14  20
ATOM     20  O   UNL     1      -6.066  11.776  70.756  0.00  0.00    -0.468 OA
ATOM     21  C   UNL     1      -5.481  10.492  70.549  0.00  0.00    +0.253 C 
ENDBRANCH  14  20
BRANCH  15  22
ATOM     22  O   UNL     1      -4.354  13.900  70.672  0.00  0.00    -0.468 OA
ATOM     23  C   UNL     1      -4.592  14.813  71.742  0.00  0.00    +0.253 C 
ENDBRANCH  15  22
BRANCH  10  24
ATOM     24  C   UNL     1      -7.324  17.413  69.132  0.00  0.00    +0.086 C 
BRANCH  24  25
ATOM     25  C   UNL     1      -6.522  18.583  68.828  0.00  0.00    -0.013 A 
ATOM     26  C   UNL     1      -5.608  19.166  69.714  0.00  0.00    +0.036 A 
ATOM     27  C   UNL     1      -4.777  20.179  69.327  0.00  0.00    +0.172 A 
ATOM     28  C   UNL     1      -4.319  20.122  68.024  0.00  0.00    +0.172 A 
ATOM     29  C   UNL     1      -4.910  19.242  67.125  0.00  0.00    +0.040 A 
ATOM     30  C   UNL     1      -5.786  18.342  67.651  0.00  0.00    -0.001 A 
BRANCH  28  31
ATOM     31  O   UNL     1      -3.289  20.923  67.597  0.00  0.00    -0.468 OA
ATOM     32  C   UNL     1      -3.463  21.792  66.493  0.00  0.00    +0.253 C 
ENDBRANCH  28  31
BRANCH  27  33
ATOM     33  O   UNL     1      -4.272  21.143  70.181  0.00  0.00    -0.468 OA
ATOM     34  C   UNL     1      -4.490  20.936  71.575  0.00  0.00    +0.253 C 
ENDBRANCH  27  33
ENDBRANCH  24  25
ENDBRANCH  10  24
ENDBRANCH   8   9
ENDBRANCH   7   8
ENDBRANCH   5   7
ENDBRANCH   4   5
ENDBRANCH   3   4
ENDBRANCH   2   3
ENDBRANCH   1   2
BRANCH   1  35
ATOM     35  C   UNL     1     -11.014  11.506  63.596  0.00  0.00    +0.048 C 
BRANCH  35  36
ATOM     36  C   UNL     1      -9.795  10.634  63.315  0.00  0.00    +0.208 C 
BRANCH  36  37
ATOM     37  O   UNL     1      -9.466   9.818  64.410  0.00  0.00    -0.448 OA
BRANCH  37  38
ATOM     38  C   UNL     1      -8.140   9.706  64.840  0.00  0.00    +0.323 C 
ATOM     39  O   UNL     1      -7.251  10.079  64.050  0.00  0.00    -0.250 OA
BRANCH  38  40
ATOM     40  C   UNL     1      -7.864   9.722  66.311  0.00  0.00    +0.170 C 
BRANCH  40  41
ATOM     41  C   UNL     1      -9.157   9.551  67.047  0.00  0.00    +0.121 C 
BRANCH  41  43
ATOM     42  C   UNL     1     -10.082   8.508  69.069  0.00  0.00    +0.086 C 
ATOM     43  N   UNL     1      -9.408   8.329  67.645  0.00  0.00    +0.301 N 
ATOM     44  C   UNL     1     -10.563   7.661  67.027  0.00  0.00    +0.171 C 
ATOM     45  C   UNL     1      -8.381   7.380  67.707  0.00  0.00    +0.114 C 
ATOM     46  C   UNL     1      -8.640   6.176  68.557  0.00  0.00    +0.087 C 
ATOM     47  C   UNL     1      -8.555   6.742  69.943  0.00  0.00    -0.012 A 
ATOM     48  C   UNL     1      -8.437   5.980  71.064  0.00  0.00    +0.036 A 
ATOM     49  C   UNL     1      -8.699   6.550  72.303  0.00  0.00    +0.172 A 
ATOM     50  C   UNL     1      -8.599   7.937  72.351  0.00  0.00    +0.172 A 
ATOM     51  C   UNL     1      -8.744   8.708  71.200  0.00  0.00    +0.041 A 
ATOM     52  C   UNL     1      -8.745   8.124  69.935  0.00  0.00    +0.027 A 
BRANCH  50  53
ATOM     53  O   UNL     1      -8.477   8.506  73.615  0.00  0.00    -0.468 OA
ATOM     54  C   UNL     1      -7.571   8.021  74.596  0.00  0.00    +0.253 C 
ENDBRANCH  50  53
BRANCH  49  55
ATOM     55  O   UNL     1      -9.506   5.894  73.243  0.00  0.00    -0.468 OA
ATOM     56  C   UNL     1     -10.891   5.655  72.988  0.00  0.00    +0.253 C 
ENDBRANCH  49  55
BRANCH  42  57
ATOM     57  C   UNL     1      -9.754  10.135  69.189  0.00  0.00    +0.086 C 
BRANCH  57  61
ATOM     58  C   UNL     1     -12.762  12.355  71.001  0.00  0.00    +0.172 A 
ATOM     59  C   UNL     1     -12.934  10.975  70.983  0.00  0.00    +0.172 A 
ATOM     60  C   UNL     1     -12.052  10.183  70.249  0.00  0.00    +0.036 A 
ATOM     61  C   UNL     1     -11.088  10.740  69.415  0.00  0.00    -0.013 A 
ATOM     62  C   UNL     1     -11.346  12.059  69.055  0.00  0.00    -0.001 A 
ATOM     63  C   UNL     1     -12.139  12.864  69.867  0.00  0.00    +0.040 A 
BRANCH  58  65
ATOM     64  C   UNL     1     -13.601  14.027  72.500  0.00  0.00    +0.253 C 
ATOM     65  O   UNL     1     -12.734  13.086  72.195  0.00  0.00    -0.468 OA
ENDBRANCH  58  65
BRANCH  59  66
ATOM     66  O   UNL     1     -13.513  10.408  72.124  0.00  0.00    -0.468 OA
ATOM     67  C   UNL     1     -13.560   9.004  72.326  0.00  0.00    +0.253 C 
ENDBRANCH  59  66
ENDBRANCH  57  61
ENDBRANCH  42  57
ENDBRANCH  41  43
ENDBRANCH  40  41
ENDBRANCH  38  40
ENDBRANCH  37  38
ENDBRANCH  36  37
ENDBRANCH  35  36
ENDBRANCH   1  35
TORSDOF 26
ENDMDL
MODEL 6
REMARK VINA RESULT:      -6.7      2.115     11.047
REMARK  Name = 
REMARK  26 active torsions:
REMARK  status: ('A' for Active; 'I' for Inactive)
REMARK    1  A    between atoms: O_2  and  C_3
REMARK    2  A    between atoms: C_6  and  C_7
REMARK    3  A    between atoms: C_7  and  C_8
REMARK    4  A    between atoms: C_11  and  O_12
REMARK    5  A    between atoms: C_14  and  O_15
REMARK    6  A    between atoms: N_21  and  C_23
REMARK    7  A    between atoms: C_23  and  C_24
REMARK    8  A    between atoms: C_24  and  C_25
REMARK    9  A    between atoms: C_25  and  O_27
REMARK   10  A    between atoms: O_27  and  C_28
REMARK   11  A    between atoms: C_28  and  C_29
REMARK   12  A    between atoms: C_29  and  C_30
REMARK   13  A    between atoms: C_30  and  C_31
REMARK   14  A    between atoms: C_31  and  C_32
REMARK   15  A    between atoms: C_32  and  O_33
REMARK   16  A    between atoms: O_33  and  C_34
REMARK   17  A    between atoms: C_34  and  C_36
REMARK   18  A    between atoms: C_36  and  C_37
REMARK   19  A    between atoms: C_37  and  N_38
REMARK   20  A    between atoms: C_44  and  O_45
REMARK   21  A    between atoms: C_47  and  O_48
REMARK   22  A    between atoms: C_52  and  C_53
REMARK   23  A    between atoms: C_53  and  C_54
REMARK   24  A    between atoms: C_57  and  O_58
REMARK   25  A    between atoms: C_60  and  O_61
REMARK   26  A    between atoms: C_65  and  O_66
REMARK                            x       y       z     vdW  Elec       q    Type
REMARK                         _______ _______ _______ _____ _____    ______ ____
ROOT
ATOM      1  C   UNL     1     -13.564  15.305  72.722  0.00  0.00    +0.008 C 
ENDROOT
BRANCH   1   2
ATOM      2  C   UNL     1     -14.308  14.117  72.125  0.00  0.00    +0.048 C 
BRANCH   2   3
ATOM      3  C   UNL     1     -13.506  12.866  72.463  0.00  0.00    +0.208 C 
BRANCH   3   4
ATOM      4  O   UNL     1     -13.333  12.220  71.204  0.00  0.00    -0.448 OA
BRANCH   4   5
ATOM      5  C   UNL     1     -12.829  10.914  71.233  0.00  0.00    +0.323 C 
ATOM      6  O   UNL     1     -13.186  10.105  72.135  0.00  0.00    -0.250 OA
BRANCH   5   7
ATOM      7  C   UNL     1     -11.574  10.695  70.490  0.00  0.00    +0.170 C 
BRANCH   7   8
ATOM      8  C   UNL     1     -11.158   9.275  70.358  0.00  0.00    +0.121 C 
BRANCH   8   9
ATOM      9  N   UNL     1      -9.896   9.095  69.626  0.00  0.00    +0.301 N 
ATOM     10  C   UNL     1     -10.401   8.817  68.143  0.00  0.00    +0.086 C 
ATOM     11  C   UNL     1      -9.894   7.259  68.064  0.00  0.00    +0.027 A 
ATOM     12  C   UNL     1     -10.558   6.461  69.007  0.00  0.00    -0.012 A 
ATOM     13  C   UNL     1     -10.421   5.087  68.819  0.00  0.00    +0.036 A 
ATOM     14  C   UNL     1      -9.972   4.574  67.607  0.00  0.00    +0.172 A 
ATOM     15  C   UNL     1     -10.138   5.430  66.522  0.00  0.00    +0.172 A 
ATOM     16  C   UNL     1     -10.333   6.930  70.418  0.00  0.00    +0.087 C 
ATOM     17  C   UNL     1     -10.238   6.797  66.785  0.00  0.00    +0.041 A 
ATOM     18  C   UNL     1      -9.265   8.001  70.177  0.00  0.00    +0.114 C 
ATOM     19  C   UNL     1      -9.310  10.374  69.663  0.00  0.00    +0.171 C 
BRANCH  14  20
ATOM     20  O   UNL     1      -9.191   3.415  67.525  0.00  0.00    -0.468 OA
ATOM     21  C   UNL     1      -9.437   2.367  68.461  0.00  0.00    +0.253 C 
ENDBRANCH  14  20
BRANCH  15  22
ATOM     22  O   UNL     1      -9.486   5.033  65.347  0.00  0.00    -0.468 OA
ATOM     23  C   UNL     1      -8.341   5.729  64.856  0.00  0.00    +0.253 C 
ENDBRANCH  15  22
BRANCH  10  24
ATOM     24  C   UNL     1      -9.050   9.411  67.390  0.00  0.00    +0.086 C 
BRANCH  24  25
ATOM     25  C   UNL     1      -9.398  10.333  66.324  0.00  0.00    -0.013 A 
ATOM     26  C   UNL     1      -9.791   9.943  65.039  0.00  0.00    +0.036 A 
ATOM     27  C   UNL     1     -10.243  10.847  64.119  0.00  0.00    +0.172 A 
ATOM     28  C   UNL     1     -10.977  11.905  64.621  0.00  0.00    +0.172 A 
ATOM     29  C   UNL     1     -10.989  12.147  65.989  0.00  0.00    +0.040 A 
ATOM     30  C   UNL     1     -10.422  11.191  66.775  0.00  0.00    -0.001 A 
BRANCH  28  31
ATOM     31  O   UNL     1     -11.697  12.728  63.789  0.00  0.00    -0.468 OA
ATOM     32  C   UNL     1     -12.173  13.979  64.251  0.00  0.00    +0.253 C 
ENDBRANCH  28  31
BRANCH  27  33
ATOM     33  O   UNL     1     -10.132  10.687  62.750  0.00  0.00    -0.468 OA
ATOM     34  C   UNL     1      -9.066   9.861  62.288  0.00  0.00    +0.253 C 
ENDBRANCH  27  33
ENDBRANCH  24  25
ENDBRANCH  10  24
ENDBRANCH   8   9
ENDBRANCH   7   8
ENDBRANCH   5   7
ENDBRANCH   4   5
ENDBRANCH   3   4
ENDBRANCH   2   3
ENDBRANCH   1   2
BRANCH   1  35
ATOM     35  C   UNL     1     -12.081  15.207  72.518  0.00  0.00    +0.048 C 
BRANCH  35  36
ATOM     36  C   UNL     1     -11.687  16.168  71.401  0.00  0.00    +0.208 C 
BRANCH  36  37
ATOM     37  O   UNL     1     -12.420  15.938  70.225  0.00  0.00    -0.448 OA
BRANCH  37  38
ATOM     38  C   UNL     1     -11.861  15.209  69.170  0.00  0.00    +0.323 C 
ATOM     39  O   UNL     1     -12.241  14.032  69.027  0.00  0.00    -0.250 OA
BRANCH  38  40
ATOM     40  C   UNL     1     -11.341  15.959  67.984  0.00  0.00    +0.170 C 
BRANCH  40  41
ATOM     41  C   UNL     1      -9.878  16.218  68.178  0.00  0.00    +0.121 C 
BRANCH  41  43
ATOM     42  C   UNL     1      -7.710  17.242  67.647  0.00  0.00    +0.086 C 
ATOM     43  N   UNL     1      -9.256  17.108  67.321  0.00  0.00    +0.301 N 
ATOM     44  C   UNL     1      -9.066  16.518  65.988  0.00  0.00    +0.171 C 
ATOM     45  C   UNL     1      -9.825  18.371  67.123  0.00  0.00    +0.114 C 
ATOM     46  C   UNL     1      -8.996  19.363  66.369  0.00  0.00    +0.087 C 
ATOM     47  C   UNL     1      -7.931  19.710  67.368  0.00  0.00    -0.012 A 
ATOM     48  C   UNL     1      -7.107  20.785  67.249  0.00  0.00    +0.036 A 
ATOM     49  C   UNL     1      -5.954  20.845  68.020  0.00  0.00    +0.172 A 
ATOM     50  C   UNL     1      -5.967  20.061  69.169  0.00  0.00    +0.172 A 
ATOM     51  C   UNL     1      -6.799  18.948  69.270  0.00  0.00    +0.041 A 
ATOM     52  C   UNL     1      -7.816  18.722  68.345  0.00  0.00    +0.027 A 
BRANCH  50  53
ATOM     53  O   UNL     1      -5.023  20.371  70.142  0.00  0.00    -0.468 OA
ATOM     54  C   UNL     1      -5.297  20.300  71.535  0.00  0.00    +0.253 C 
ENDBRANCH  50  53
BRANCH  49  55
ATOM     55  O   UNL     1      -4.722  21.195  67.450  0.00  0.00    -0.468 OA
ATOM     56  C   UNL     1      -4.266  20.579  66.243  0.00  0.00    +0.253 C 
ENDBRANCH  49  55
BRANCH  42  57
ATOM     57  C   UNL     1      -7.801  16.483  69.125  0.00  0.00    +0.086 C 
BRANCH  57  61
ATOM     58  C   UNL     1      -5.742  12.954  69.877  0.00  0.00    +0.172 A 
ATOM     59  C   UNL     1      -5.145  14.127  70.325  0.00  0.00    +0.172 A 
ATOM     60  C   UNL     1      -5.694  15.357  69.963  0.00  0.00    +0.036 A 
ATOM     61  C   UNL     1      -6.738  15.453  69.049  0.00  0.00    -0.013 A 
ATOM     62  C   UNL     1      -6.886  14.330  68.241  0.00  0.00    -0.001 A 
ATOM     63  C   UNL     1      -6.430  13.089  68.676  0.00  0.00    +0.040 A 
BRANCH  58  65
ATOM     64  C   UNL     1      -5.684  10.656  70.560  0.00  0.00    +0.253 C 
ATOM     65  O   UNL     1      -6.062  11.903  70.745  0.00  0.00    -0.468 OA
ENDBRANCH  58  65
BRANCH  59  66
ATOM     66  O   UNL     1      -4.480  14.054  71.554  0.00  0.00    -0.468 OA
ATOM     67  C   UNL     1      -5.167  14.181  72.790  0.00  0.00    +0.253 C 
ENDBRANCH  59  66
ENDBRANCH  57  61
ENDBRANCH  42  57
ENDBRANCH  41  43
ENDBRANCH  40  41
ENDBRANCH  38  40
ENDBRANCH  37  38
ENDBRANCH  36  37
ENDBRANCH  35  36
ENDBRANCH   1  35
TORSDOF 26
ENDMDL
MODEL 7
REMARK VINA RESULT:      -6.7      2.964      8.971
REMARK  Name = 
REMARK  26 active torsions:
REMARK  status: ('A' for Active; 'I' for Inactive)
REMARK    1  A    between atoms: O_2  and  C_3
REMARK    2  A    between atoms: C_6  and  C_7
REMARK    3  A    between atoms: C_7  and  C_8
REMARK    4  A    between atoms: C_11  and  O_12
REMARK    5  A    between atoms: C_14  and  O_15
REMARK    6  A    between atoms: N_21  and  C_23
REMARK    7  A    between atoms: C_23  and  C_24
REMARK    8  A    between atoms: C_24  and  C_25
REMARK    9  A    between atoms: C_25  and  O_27
REMARK   10  A    between atoms: O_27  and  C_28
REMARK   11  A    between atoms: C_28  and  C_29
REMARK   12  A    between atoms: C_29  and  C_30
REMARK   13  A    between atoms: C_30  and  C_31
REMARK   14  A    between atoms: C_31  and  C_32
REMARK   15  A    between atoms: C_32  and  O_33
REMARK   16  A    between atoms: O_33  and  C_34
REMARK   17  A    between atoms: C_34  and  C_36
REMARK   18  A    between atoms: C_36  and  C_37
REMARK   19  A    between atoms: C_37  and  N_38
REMARK   20  A    between atoms: C_44  and  O_45
REMARK   21  A    between atoms: C_47  and  O_48
REMARK   22  A    between atoms: C_52  and  C_53
REMARK   23  A    between atoms: C_53  and  C_54
REMARK   24  A    between atoms: C_57  and  O_58
REMARK   25  A    between atoms: C_60  and  O_61
REMARK   26  A    between atoms: C_65  and  O_66
REMARK                            x       y       z     vdW  Elec       q    Type
REMARK                         _______ _______ _______ _____ _____    ______ ____
ROOT
ATOM      1  C   UNL     1      -9.497  19.730  66.659  0.00  0.00    +0.008 C 
ENDROOT
BRANCH   1   2
ATOM      2  C   UNL     1      -9.971  20.069  68.068  0.00  0.00    +0.048 C 
BRANCH   2   3
ATOM      3  C   UNL     1      -9.363  19.038  69.010  0.00  0.00    +0.208 C 
BRANCH   3   4
ATOM      4  O   UNL     1      -8.236  18.542  68.291  0.00  0.00    -0.448 OA
BRANCH   4   5
ATOM      5  C   UNL     1      -7.388  17.666  68.980  0.00  0.00    +0.323 C 
ATOM      6  O   UNL     1      -6.358  18.098  69.571  0.00  0.00    -0.250 OA
BRANCH   5   7
ATOM      7  C   UNL     1      -7.488  16.245  68.599  0.00  0.00    +0.170 C 
BRANCH   7   8
ATOM      8  C   UNL     1      -6.992  15.282  69.616  0.00  0.00    +0.121 C 
BRANCH   8   9
ATOM      9  N   UNL     1      -5.797  14.538  69.192  0.00  0.00    +0.301 N 
ATOM     10  C   UNL     1      -6.169  13.044  69.592  0.00  0.00    +0.086 C 
ATOM     11  C   UNL     1      -5.036  12.880  70.766  0.00  0.00    +0.027 A 
ATOM     12  C   UNL     1      -5.260  13.779  71.817  0.00  0.00    -0.012 A 
ATOM     13  C   UNL     1      -4.543  13.517  72.983  0.00  0.00    +0.036 A 
ATOM     14  C   UNL     1      -3.946  12.278  73.190  0.00  0.00    +0.172 A 
ATOM     15  C   UNL     1      -4.498  11.241  72.442  0.00  0.00    +0.172 A 
ATOM     16  C   UNL     1      -5.226  15.213  71.365  0.00  0.00    +0.087 C 
ATOM     17  C   UNL     1      -5.176  11.578  71.270  0.00  0.00    +0.041 A 
ATOM     18  C   UNL     1      -4.738  15.027  69.925  0.00  0.00    +0.114 C 
ATOM     19  C   UNL     1      -5.827  14.643  67.789  0.00  0.00    +0.171 C 
BRANCH  14  20
ATOM     20  O   UNL     1      -2.741  12.131  73.886  0.00  0.00    -0.468 OA
ATOM     21  C   UNL     1      -2.215  13.265  74.573  0.00  0.00    +0.253 C 
ENDBRANCH  14  20
BRANCH  15  22
ATOM     22  O   UNL     1      -3.768  10.045  72.458  0.00  0.00    -0.468 OA
ATOM     23  C   UNL     1      -2.975   9.638  71.344  0.00  0.00    +0.253 C 
ENDBRANCH  15  22
BRANCH  10  24
ATOM     24  C   UNL     1      -5.233  12.320  68.432  0.00  0.00    +0.086 C 
BRANCH  24  25
ATOM     25  C   UNL     1      -5.979  11.315  67.697  0.00  0.00    -0.013 A 
ATOM     26  C   UNL     1      -6.002  11.212  66.302  0.00  0.00    +0.036 A 
ATOM     27  C   UNL     1      -6.606  10.163  65.667  0.00  0.00    +0.172 A 
ATOM     28  C   UNL     1      -6.523   8.941  66.307  0.00  0.00    +0.172 A 
ATOM     29  C   UNL     1      -6.099   8.883  67.629  0.00  0.00    +0.040 A 
ATOM     30  C   UNL     1      -5.598  10.037  68.152  0.00  0.00    -0.001 A 
BRANCH  28  31
ATOM     31  O   UNL     1      -6.857   7.777  65.660  0.00  0.00    -0.468 OA
ATOM     32  C   UNL     1      -7.100   6.590  66.393  0.00  0.00    +0.253 C 
ENDBRANCH  28  31
BRANCH  27  33
ATOM     33  O   UNL     1      -7.148  10.229  64.397  0.00  0.00    -0.468 OA
ATOM     34  C   UNL     1      -6.246  10.048  63.308  0.00  0.00    +0.253 C 
ENDBRANCH  27  33
ENDBRANCH  24  25
ENDBRANCH  10  24
ENDBRANCH   8   9
ENDBRANCH   7   8
ENDBRANCH   5   7
ENDBRANCH   4   5
ENDBRANCH   3   4
ENDBRANCH   2   3
ENDBRANCH   1   2
BRANCH   1  35
ATOM     35  C   UNL     1     -10.601  19.177  65.806  0.00  0.00    +0.048 C 
BRANCH  35  36
ATOM     36  C   UNL     1     -10.565  17.656  65.906  0.00  0.00    +0.208 C 
BRANCH  36  37
ATOM     37  O   UNL     1     -10.919  17.039  64.695  0.00  0.00    -0.448 OA
BRANCH  37  38
ATOM     38  C   UNL     1     -11.266  15.684  64.663  0.00  0.00    +0.323 C 
ATOM     39  O   UNL     1     -12.307  15.377  64.052  0.00  0.00    -0.250 OA
BRANCH  38  40
ATOM     40  C   UNL     1     -10.178  14.667  64.810  0.00  0.00    +0.170 C 
BRANCH  40  41
ATOM     41  C   UNL     1     -10.328  13.985  66.135  0.00  0.00    +0.121 C 
BRANCH  41  43
ATOM     42  C   UNL     1     -11.079  12.182  67.624  0.00  0.00    +0.086 C 
ATOM     43  N   UNL     1     -10.793  12.682  66.146  0.00  0.00    +0.301 N 
ATOM     44  C   UNL     1     -12.193  12.612  65.703  0.00  0.00    +0.171 C 
ATOM     45  C   UNL     1     -10.095  11.706  65.426  0.00  0.00    +0.114 C 
ATOM     46  C   UNL     1     -10.510  10.287  65.658  0.00  0.00    +0.087 C 
ATOM     47  C   UNL     1      -9.981  10.022  67.036  0.00  0.00    -0.012 A 
ATOM     48  C   UNL     1      -9.860   8.778  67.572  0.00  0.00    +0.036 A 
ATOM     49  C   UNL     1      -9.685   8.643  68.943  0.00  0.00    +0.172 A 
ATOM     50  C   UNL     1      -9.181   9.767  69.589  0.00  0.00    +0.172 A 
ATOM     51  C   UNL     1      -9.330  11.039  69.042  0.00  0.00    +0.041 A 
ATOM     52  C   UNL     1      -9.761  11.212  67.728  0.00  0.00    +0.027 A 
BRANCH  50  53
ATOM     53  O   UNL     1      -8.642   9.563  70.856  0.00  0.00    -0.468 OA
ATOM     54  C   UNL     1      -7.521   8.723  71.093  0.00  0.00    +0.253 C 
ENDBRANCH  50  53
BRANCH  49  55
ATOM     55  O   UNL     1     -10.435   7.715  69.679  0.00  0.00    -0.468 OA
ATOM     56  C   UNL     1     -10.779   6.442  69.128  0.00  0.00    +0.253 C 
ENDBRANCH  49  55
BRANCH  42  57
ATOM     57  C   UNL     1     -10.277  13.437  68.366  0.00  0.00    +0.086 C 
BRANCH  57  61
ATOM     58  C   UNL     1     -12.183  15.105  71.659  0.00  0.00    +0.172 A 
ATOM     59  C   UNL     1     -12.718  13.918  71.168  0.00  0.00    +0.172 A 
ATOM     60  C   UNL     1     -12.234  13.392  69.971  0.00  0.00    +0.036 A 
ATOM     61  C   UNL     1     -11.333  14.090  69.174  0.00  0.00    -0.013 A 
ATOM     62  C   UNL     1     -11.294  15.458  69.431  0.00  0.00    -0.001 A 
ATOM     63  C   UNL     1     -11.675  15.947  70.676  0.00  0.00    +0.040 A 
BRANCH  58  65
ATOM     64  C   UNL     1     -12.499  15.613  73.980  0.00  0.00    +0.253 C 
ATOM     65  O   UNL     1     -11.736  15.229  72.980  0.00  0.00    -0.468 OA
ENDBRANCH  58  65
BRANCH  59  66
ATOM     66  O   UNL     1     -13.199  13.014  72.122  0.00  0.00    -0.468 OA
ATOM     67  C   UNL     1     -13.234  11.615  71.884  0.00  0.00    +0.253 C 
ENDBRANCH  59  66
ENDBRANCH  57  61
ENDBRANCH  42  57
ENDBRANCH  41  43
ENDBRANCH  40  41
ENDBRANCH  38  40
ENDBRANCH  37  38
ENDBRANCH  36  37
ENDBRANCH  35  36
ENDBRANCH   1  35
TORSDOF 26
ENDMDL
MODEL 8
REMARK VINA RESULT:      -6.7      2.777     10.558
REMARK  Name = 
REMARK  26 active torsions:
REMARK  status: ('A' for Active; 'I' for Inactive)
REMARK    1  A    between atoms: O_2  and  C_3
REMARK    2  A    between atoms: C_6  and  C_7
REMARK    3  A    between atoms: C_7  and  C_8
REMARK    4  A    between atoms: C_11  and  O_12
REMARK    5  A    between atoms: C_14  and  O_15
REMARK    6  A    between atoms: N_21  and  C_23
REMARK    7  A    between atoms: C_23  and  C_24
REMARK    8  A    between atoms: C_24  and  C_25
REMARK    9  A    between atoms: C_25  and  O_27
REMARK   10  A    between atoms: O_27  and  C_28
REMARK   11  A    between atoms: C_28  and  C_29
REMARK   12  A    between atoms: C_29  and  C_30
REMARK   13  A    between atoms: C_30  and  C_31
REMARK   14  A    between atoms: C_31  and  C_32
REMARK   15  A    between atoms: C_32  and  O_33
REMARK   16  A    between atoms: O_33  and  C_34
REMARK   17  A    between atoms: C_34  and  C_36
REMARK   18  A    between atoms: C_36  and  C_37
REMARK   19  A    between atoms: C_37  and  N_38
REMARK   20  A    between atoms: C_44  and  O_45
REMARK   21  A    between atoms: C_47  and  O_48
REMARK   22  A    between atoms: C_52  and  C_53
REMARK   23  A    between atoms: C_53  and  C_54
REMARK   24  A    between atoms: C_57  and  O_58
REMARK   25  A    between atoms: C_60  and  O_61
REMARK   26  A    between atoms: C_65  and  O_66
REMARK                            x       y       z     vdW  Elec       q    Type
REMARK                         _______ _______ _______ _____ _____    ______ ____
ROOT
ATOM      1  C   UNL     1     -11.641  12.487  63.673  0.00  0.00    +0.008 C 
ENDROOT
BRANCH   1   2
ATOM      2  C   UNL     1     -10.169  12.182  63.926  0.00  0.00    +0.048 C 
BRANCH   2   3
ATOM      3  C   UNL     1      -9.863  10.848  63.256  0.00  0.00    +0.208 C 
BRANCH   3   4
ATOM      4  O   UNL     1     -10.025   9.895  64.304  0.00  0.00    -0.448 OA
BRANCH   4   5
ATOM      5  C   UNL     1      -8.910   9.106  64.614  0.00  0.00    +0.323 C 
ATOM      6  O   UNL     1      -8.539   8.183  63.836  0.00  0.00    -0.250 OA
BRANCH   5   7
ATOM      7  C   UNL     1      -8.509   9.092  66.033  0.00  0.00    +0.170 C 
BRANCH   7   8
ATOM      8  C   UNL     1      -8.054  10.398  66.574  0.00  0.00    +0.121 C 
BRANCH   8   9
ATOM      9  N   UNL     1      -7.909  10.413  68.036  0.00  0.00    +0.301 N 
ATOM     10  C   UNL     1      -9.148   9.536  68.510  0.00  0.00    +0.086 C 
ATOM     11  C   UNL     1      -9.965  10.752  69.246  0.00  0.00    +0.027 A 
ATOM     12  C   UNL     1     -10.339  11.743  68.327  0.00  0.00    -0.012 A 
ATOM     13  C   UNL     1     -11.284  12.655  68.792  0.00  0.00    +0.036 A 
ATOM     14  C   UNL     1     -12.039  12.382  69.928  0.00  0.00    +0.172 A 
ATOM     15  C   UNL     1     -12.135  11.031  70.246  0.00  0.00    +0.172 A 
ATOM     16  C   UNL     1      -9.156  12.359  67.633  0.00  0.00    +0.087 C 
ATOM     17  C   UNL     1     -11.135  10.181  69.770  0.00  0.00    +0.041 A 
ATOM     18  C   UNL     1      -8.015  11.727  68.436  0.00  0.00    +0.114 C 
ATOM     19  C   UNL     1      -6.732   9.674  68.257  0.00  0.00    +0.171 C 
BRANCH  14  20
ATOM     20  O   UNL     1     -12.450  13.385  70.815  0.00  0.00    -0.468 OA
ATOM     21  C   UNL     1     -12.590  14.713  70.316  0.00  0.00    +0.253 C 
ENDBRANCH  14  20
BRANCH  15  22
ATOM     22  O   UNL     1     -12.687  10.755  71.504  0.00  0.00    -0.468 OA
ATOM     23  C   UNL     1     -13.208   9.466  71.825  0.00  0.00    +0.253 C 
ENDBRANCH  15  22
BRANCH  10  24
ATOM     24  C   UNL     1      -8.452   9.003  69.915  0.00  0.00    +0.086 C 
BRANCH  24  25
ATOM     25  C   UNL     1      -9.334   8.105  70.639  0.00  0.00    -0.013 A 
ATOM     26  C   UNL     1      -9.221   6.711  70.632  0.00  0.00    +0.036 A 
ATOM     27  C   UNL     1      -9.988   5.922  71.442  0.00  0.00    +0.172 A 
ATOM     28  C   UNL     1     -10.286   6.443  72.687  0.00  0.00    +0.172 A 
ATOM     29  C   UNL     1     -10.044   7.786  72.947  0.00  0.00    +0.040 A 
ATOM     30  C   UNL     1      -9.337   8.465  72.001  0.00  0.00    -0.001 A 
BRANCH  28  31
ATOM     31  O   UNL     1     -10.821   5.655  73.677  0.00  0.00    -0.468 OA
ATOM     32  C   UNL     1      -9.979   4.994  74.603  0.00  0.00    +0.253 C 
ENDBRANCH  28  31
BRANCH  27  33
ATOM     33  O   UNL     1     -10.348   4.619  71.148  0.00  0.00    -0.468 OA
ATOM     34  C   UNL     1      -9.338   3.794  70.571  0.00  0.00    +0.253 C 
ENDBRANCH  27  33
ENDBRANCH  24  25
ENDBRANCH  10  24
ENDBRANCH   8   9
ENDBRANCH   7   8
ENDBRANCH   5   7
ENDBRANCH   4   5
ENDBRANCH   3   4
ENDBRANCH   2   3
ENDBRANCH   1   2
BRANCH   1  35
ATOM     35  C   UNL     1     -12.434  12.551  64.945  0.00  0.00    +0.048 C 
BRANCH  35  36
ATOM     36  C   UNL     1     -12.392  13.984  65.463  0.00  0.00    +0.208 C 
BRANCH  36  37
ATOM     37  O   UNL     1     -12.243  14.917  64.423  0.00  0.00    -0.448 OA
BRANCH  37  38
ATOM     38  C   UNL     1     -11.237  15.887  64.476  0.00  0.00    +0.323 C 
ATOM     39  O   UNL     1     -11.563  17.061  64.215  0.00  0.00    -0.250 OA
BRANCH  38  40
ATOM     40  C   UNL     1     -10.052  15.636  65.355  0.00  0.00    +0.170 C 
BRANCH  40  41
ATOM     41  C   UNL     1      -9.710  16.900  66.081  0.00  0.00    +0.121 C 
BRANCH  41  43
ATOM     42  C   UNL     1      -7.884  17.292  67.675  0.00  0.00    +0.086 C 
ATOM     43  N   UNL     1      -9.372  16.809  67.419  0.00  0.00    +0.301 N 
ATOM     44  C   UNL     1     -10.002  17.883  68.202  0.00  0.00    +0.171 C 
ATOM     45  C   UNL     1      -9.622  15.614  68.104  0.00  0.00    +0.114 C 
ATOM     46  C   UNL     1      -9.034  15.499  69.475  0.00  0.00    +0.087 C 
ATOM     47  C   UNL     1      -7.573  15.330  69.180  0.00  0.00    -0.012 A 
ATOM     48  C   UNL     1      -6.664  14.899  70.096  0.00  0.00    +0.036 A 
ATOM     49  C   UNL     1      -5.311  15.087  69.849  0.00  0.00    +0.172 A 
ATOM     50  C   UNL     1      -4.971  15.264  68.512  0.00  0.00    +0.172 A 
ATOM     51  C   UNL     1      -5.905  15.727  67.588  0.00  0.00    +0.041 A 
ATOM     52  C   UNL     1      -7.260  15.793  67.903  0.00  0.00    +0.027 A 
BRANCH  50  53
ATOM     53  O   UNL     1      -3.632  15.077  68.183  0.00  0.00    -0.468 OA
ATOM     54  C   UNL     1      -3.132  13.864  67.637  0.00  0.00    +0.253 C 
ENDBRANCH  50  53
BRANCH  49  55
ATOM     55  O   UNL     1      -4.461  15.600  70.839  0.00  0.00    -0.468 OA
ATOM     56  C   UNL     1      -3.663  14.732  71.648  0.00  0.00    +0.253 C 
ENDBRANCH  49  55
BRANCH  42  57
ATOM     57  C   UNL     1      -7.444  17.285  66.070  0.00  0.00    +0.086 C 
BRANCH  57  61
ATOM     58  C   UNL     1      -4.622  20.332  66.199  0.00  0.00    +0.172 A 
ATOM     59  C   UNL     1      -5.764  20.510  66.974  0.00  0.00    +0.172 A 
ATOM     60  C   UNL     1      -6.823  19.612  66.851  0.00  0.00    +0.036 A 
ATOM     61  C   UNL     1      -6.836  18.622  65.874  0.00  0.00    -0.013 A 
ATOM     62  C   UNL     1      -5.967  18.864  64.814  0.00  0.00    -0.001 A 
ATOM     63  C   UNL     1      -4.851  19.675  64.994  0.00  0.00    +0.040 A 
BRANCH  58  65
ATOM     64  C   UNL     1      -2.803  19.300  67.370  0.00  0.00    +0.253 C 
ATOM     65  O   UNL     1      -3.338  20.333  66.755  0.00  0.00    -0.468 OA
ENDBRANCH  58  65
BRANCH  59  66
ATOM     66  O   UNL     1      -5.578  21.123  68.218  0.00  0.00    -0.468 OA
ATOM     67  C   UNL     1      -5.797  20.431  69.438  0.00  0.00    +0.253 C 
ENDBRANCH  59  66
ENDBRANCH  57  61
ENDBRANCH  42  57
ENDBRANCH  41  43
ENDBRANCH  40  41
ENDBRANCH  38  40
ENDBRANCH  37  38
ENDBRANCH  36  37
ENDBRANCH  35  36
ENDBRANCH   1  35
TORSDOF 26
ENDMDL
MODEL 9
REMARK VINA RESULT:      -6.7      2.929     11.414
REMARK  Name = 
REMARK  26 active torsions:
REMARK  status: ('A' for Active; 'I' for Inactive)
REMARK    1  A    between atoms: O_2  and  C_3
REMARK    2  A    between atoms: C_6  and  C_7
REMARK    3  A    between atoms: C_7  and  C_8
REMARK    4  A    between atoms: C_11  and  O_12
REMARK    5  A    between atoms: C_14  and  O_15
REMARK    6  A    between atoms: N_21  and  C_23
REMARK    7  A    between atoms: C_23  and  C_24
REMARK    8  A    between atoms: C_24  and  C_25
REMARK    9  A    between atoms: C_25  and  O_27
REMARK   10  A    between atoms: O_27  and  C_28
REMARK   11  A    between atoms: C_28  and  C_29
REMARK   12  A    between atoms: C_29  and  C_30
REMARK   13  A    between atoms: C_30  and  C_31
REMARK   14  A    between atoms: C_31  and  C_32
REMARK   15  A    between atoms: C_32  and  O_33
REMARK   16  A    between atoms: O_33  and  C_34
REMARK   17  A    between atoms: C_34  and  C_36
REMARK   18  A    between atoms: C_36  and  C_37
REMARK   19  A    between atoms: C_37  and  N_38
REMARK   20  A    between atoms: C_44  and  O_45
REMARK   21  A    between atoms: C_47  and  O_48
REMARK   22  A    between atoms: C_52  and  C_53
REMARK   23  A    between atoms: C_53  and  C_54
REMARK   24  A    between atoms: C_57  and  O_58
REMARK   25  A    between atoms: C_60  and  O_61
REMARK   26  A    between atoms: C_65  and  O_66
REMARK                            x       y       z     vdW  Elec       q    Type
REMARK                         _______ _______ _______ _____ _____    ______ ____
ROOT
ATOM      1  C   UNL     1     -11.399  11.499  64.560  0.00  0.00    +0.008 C 
ENDROOT
BRANCH   1   2
ATOM      2  C   UNL     1     -10.340  11.952  63.562  0.00  0.00    +0.048 C 
BRANCH   2   3
ATOM      3  C   UNL     1      -9.749  10.697  62.930  0.00  0.00    +0.208 C 
BRANCH   3   4
ATOM      4  O   UNL     1      -8.494  10.542  63.590  0.00  0.00    -0.448 OA
BRANCH   4   5
ATOM      5  C   UNL     1      -8.328   9.381  64.356  0.00  0.00    +0.323 C 
ATOM      6  O   UNL     1      -8.414   8.240  63.823  0.00  0.00    -0.250 OA
BRANCH   5   7
ATOM      7  C   UNL     1      -8.517   9.541  65.811  0.00  0.00    +0.170 C 
BRANCH   7   8
ATOM      8  C   UNL     1      -8.136  10.869  66.354  0.00  0.00    +0.121 C 
BRANCH   8   9
ATOM      9  N   UNL     1      -8.072  10.910  67.822  0.00  0.00    +0.301 N 
ATOM     10  C   UNL     1      -9.450  10.237  68.241  0.00  0.00    +0.086 C 
ATOM     11  C   UNL     1     -10.120  11.581  68.900  0.00  0.00    +0.027 A 
ATOM     12  C   UNL     1     -10.294  12.585  67.937  0.00  0.00    -0.012 A 
ATOM     13  C   UNL     1     -11.120  13.639  68.324  0.00  0.00    +0.036 A 
ATOM     14  C   UNL     1     -11.969  13.515  69.419  0.00  0.00    +0.172 A 
ATOM     15  C   UNL     1     -12.278  12.201  69.762  0.00  0.00    +0.172 A 
ATOM     16  C   UNL     1      -8.997  13.002  67.300  0.00  0.00    +0.087 C 
ATOM     17  C   UNL     1     -11.388  11.202  69.366  0.00  0.00    +0.041 A 
ATOM     18  C   UNL     1      -8.007  12.238  68.184  0.00  0.00    +0.114 C 
ATOM     19  C   UNL     1      -7.029  10.016  68.129  0.00  0.00    +0.171 C 
BRANCH  14  20
ATOM     20  O   UNL     1     -12.277  14.593  70.257  0.00  0.00    -0.468 OA
ATOM     21  C   UNL     1     -11.858  15.898  69.860  0.00  0.00    +0.253 C 
ENDBRANCH  14  20
BRANCH  15  22
ATOM     22  O   UNL     1     -12.934  12.048  70.991  0.00  0.00    -0.468 OA
ATOM     23  C   UNL     1     -12.822  10.847  71.753  0.00  0.00    +0.253 C 
ENDBRANCH  15  22
BRANCH  10  24
ATOM     24  C   UNL     1      -8.918   9.653  69.698  0.00  0.00    +0.086 C 
BRANCH  24  25
ATOM     25  C   UNL     1      -9.816   8.642  70.226  0.00  0.00    -0.013 A 
ATOM     26  C   UNL     1      -9.710   7.274  69.955  0.00  0.00    +0.036 A 
ATOM     27  C   UNL     1     -10.494   6.351  70.590  0.00  0.00    +0.172 A 
ATOM     28  C   UNL     1     -10.806   6.628  71.907  0.00  0.00    +0.172 A 
ATOM     29  C   UNL     1     -10.560   7.895  72.421  0.00  0.00    +0.040 A 
ATOM     30  C   UNL     1      -9.836   8.735  71.632  0.00  0.00    -0.001 A 
BRANCH  28  31
ATOM     31  O   UNL     1     -11.360   5.671  72.722  0.00  0.00    -0.468 OA
ATOM     32  C   UNL     1     -10.652   5.189  73.849  0.00  0.00    +0.253 C 
ENDBRANCH  28  31
BRANCH  27  33
ATOM     33  O   UNL     1     -10.856   5.131  70.048  0.00  0.00    -0.468 OA
ATOM     34  C   UNL     1      -9.813   4.174  69.877  0.00  0.00    +0.253 C 
ENDBRANCH  27  33
ENDBRANCH  24  25
ENDBRANCH  10  24
ENDBRANCH   8   9
ENDBRANCH   7   8
ENDBRANCH   5   7
ENDBRANCH   4   5
ENDBRANCH   3   4
ENDBRANCH   2   3
ENDBRANCH   1   2
BRANCH   1  35
ATOM     35  C   UNL     1     -12.410  12.572  64.841  0.00  0.00    +0.048 C 
BRANCH  35  36
ATOM     36  C   UNL     1     -11.895  13.880  64.250  0.00  0.00    +0.208 C 
BRANCH  36  37
ATOM     37  O   UNL     1     -11.809  14.897  65.215  0.00  0.00    -0.448 OA
BRANCH  37  38
ATOM     38  C   UNL     1     -10.933  15.973  65.037  0.00  0.00    +0.323 C 
ATOM     39  O   UNL     1     -11.295  16.880  64.263  0.00  0.00    -0.250 OA
BRANCH  38  40
ATOM     40  C   UNL     1      -9.963  16.290  66.131  0.00  0.00    +0.170 C 
BRANCH  40  41
ATOM     41  C   UNL     1      -9.204  17.527  65.763  0.00  0.00    +0.121 C 
BRANCH  41  43
ATOM     42  C   UNL     1      -7.761  19.327  66.606  0.00  0.00    +0.086 C 
ATOM     43  N   UNL     1      -9.141  18.551  66.691  0.00  0.00    +0.301 N 
ATOM     44  C   UNL     1      -9.968  19.695  66.279  0.00  0.00    +0.171 C 
ATOM     45  C   UNL     1      -9.468  18.280  68.025  0.00  0.00    +0.114 C 
ATOM     46  C   UNL     1      -9.166  19.361  69.015  0.00  0.00    +0.087 C 
ATOM     47  C   UNL     1      -7.669  19.307  69.097  0.00  0.00    -0.012 A 
ATOM     48  C   UNL     1      -6.945  19.906  70.081  0.00  0.00    +0.036 A 
ATOM     49  C   UNL     1      -5.580  20.090  69.903  0.00  0.00    +0.172 A 
ATOM     50  C   UNL     1      -4.985  19.248  68.969  0.00  0.00    +0.172 A 
ATOM     51  C   UNL     1      -5.733  18.659  67.953  0.00  0.00    +0.041 A 
ATOM     52  C   UNL     1      -7.125  18.684  67.974  0.00  0.00    +0.027 A 
BRANCH  50  53
ATOM     53  O   UNL     1      -3.599  19.135  69.032  0.00  0.00    -0.468 OA
ATOM     54  C   UNL     1      -2.863  18.212  68.241  0.00  0.00    +0.253 C 
ENDBRANCH  50  53
BRANCH  49  55
ATOM     55  O   UNL     1      -4.975  21.322  70.191  0.00  0.00    -0.468 OA
ATOM     56  C   UNL     1      -4.350  21.559  71.454  0.00  0.00    +0.253 C 
ENDBRANCH  49  55
BRANCH  42  57
ATOM     57  C   UNL     1      -7.004  18.186  65.659  0.00  0.00    +0.086 C 
BRANCH  57  61
ATOM     58  C   UNL     1      -5.293  19.908  62.288  0.00  0.00    +0.172 A 
ATOM     59  C   UNL     1      -4.533  18.947  62.947  0.00  0.00    +0.172 A 
ATOM     60  C   UNL     1      -4.972  18.450  64.174  0.00  0.00    +0.036 A 
ATOM     61  C   UNL     1      -6.073  18.988  64.832  0.00  0.00    -0.013 A 
ATOM     62  C   UNL     1      -6.414  20.269  64.408  0.00  0.00    -0.001 A 
ATOM     63  C   UNL     1      -6.063  20.701  63.133  0.00  0.00    +0.040 A 
BRANCH  58  65
ATOM     64  C   UNL     1      -5.045  20.404  59.956  0.00  0.00    +0.253 C 
ATOM     65  O   UNL     1      -5.652  19.777  60.941  0.00  0.00    -0.468 OA
ENDBRANCH  58  65
BRANCH  59  66
ATOM     66  O   UNL     1      -3.778  18.092  62.137  0.00  0.00    -0.468 OA
ATOM     67  C   UNL     1      -2.442  18.394  61.762  0.00  0.00    +0.253 C 
ENDBRANCH  59  66
ENDBRANCH  57  61
ENDBRANCH  42  57
ENDBRANCH  41  43
ENDBRANCH  40  41
ENDBRANCH  38  40
ENDBRANCH  37  38
ENDBRANCH  36  37
ENDBRANCH  35  36
ENDBRANCH   1  35
TORSDOF 26
ENDMDL
