MODEL 1
REMARK VINA RESULT:      -9.2      0.000      0.000
REMARK  Name = 
REMARK  5 active torsions:
REMARK  status: ('A' for Active; 'I' for Inactive)
REMARK    1  A    between atoms: C_5  and  N_6
REMARK    2  A    between atoms: C_7  and  C_9
REMARK    3  A    between atoms: C_9  and  C_10
REMARK    4  A    between atoms: C_24  and  C_25
REMARK    5  A    between atoms: C_29  and  C_30
REMARK                            x       y       z     vdW  Elec       q    Type
REMARK                         _______ _______ _______ _____ _____    ______ ____
ROOT
ATOM      1  N   UNL     1     -10.952  17.386  67.702  0.00  0.00    -0.160 NA
ATOM      2  C   UNL     1     -11.237  16.211  68.459  0.00  0.00    +0.250 C 
ATOM      3  O   UNL     1     -11.359  16.396  69.708  0.00  0.00    -0.273 OA
ENDROOT
BRANCH   1   8
ATOM      4  C   UNL     1      -6.819  20.966  67.129  0.00  0.00    +0.033 C 
ATOM      5  C   UNL     1      -7.983  20.119  67.534  0.00  0.00    -0.004 A 
ATOM      6  C   UNL     1      -7.809  19.015  68.360  0.00  0.00    +0.079 A 
ATOM      7  N   UNL     1      -8.830  18.184  68.599  0.00  0.00    -0.229 NA
ATOM      8  C   UNL     1     -10.100  18.427  68.198  0.00  0.00    +0.154 A 
ATOM      9  C   UNL     1     -10.325  19.699  67.685  0.00  0.00    +0.036 A 
ATOM     10  C   UNL     1      -9.287  20.542  67.309  0.00  0.00    +0.000 A 
BRANCH   6  11
ATOM     11  C   UNL     1      -6.568  18.894  69.133  0.00  0.00    +0.018 A 
ATOM     12  C   UNL     1      -6.164  19.896  69.989  0.00  0.00    +0.008 A 
ATOM     13  C   UNL     1      -4.851  20.098  70.360  0.00  0.00    +0.080 A 
ATOM     14  C   UNL     1      -3.891  19.454  69.596  0.00  0.00    +0.007 A 
ATOM     15  C   UNL     1      -4.223  18.321  68.865  0.00  0.00    +0.000 A 
ATOM     16  C   UNL     1      -5.571  18.008  68.739  0.00  0.00    +0.001 A 
BRANCH  13  17
ATOM     17  C   UNL     1      -4.465  20.767  71.602  0.00  0.00    +0.388 C 
ATOM     18  O   UNL     1      -3.642  20.140  72.541  0.00  0.00    -0.241 OA
ATOM     19  O   UNL     1      -4.602  22.018  71.760  0.00  0.00    -0.241 OA
ENDBRANCH  13  17
ENDBRANCH   6  11
ENDBRANCH   1   8
BRANCH   2  20
ATOM     20  C   UNL     1     -10.974  14.831  67.943  0.00  0.00    +0.090 C 
ATOM     21  C   UNL     1      -9.713  14.146  68.542  0.00  0.00    +0.014 C 
ATOM     22  C   UNL     1     -11.068  13.711  68.969  0.00  0.00    +0.014 C 
BRANCH  20  23
ATOM     23  C   UNL     1     -11.235  14.526  66.525  0.00  0.00    -0.011 A 
ATOM     24  C   UNL     1     -10.240  14.071  65.671  0.00  0.00    +0.037 A 
ATOM     25  C   UNL     1     -10.525  13.188  64.636  0.00  0.00    +0.181 A 
ATOM     26  O   UNL     1      -9.726  12.356  63.848  0.00  0.00    -0.395 OA
ATOM     27  C   UNL     1     -10.319  11.062  63.759  0.00  0.00    +0.589 C 
ATOM     28  O   UNL     1     -11.678  11.378  63.994  0.00  0.00    -0.395 OA
ATOM     29  F   UNL     1      -9.776  10.299  64.780  0.00  0.00    -0.125 F 
ATOM     30  F   UNL     1     -10.114  10.496  62.519  0.00  0.00    -0.125 F 
ATOM     31  C   UNL     1     -11.805  12.676  64.476  0.00  0.00    +0.182 A 
ATOM     32  C   UNL     1     -12.820  13.405  65.077  0.00  0.00    +0.040 A 
ATOM     33  C   UNL     1     -12.539  14.295  66.104  0.00  0.00    -0.001 A 
ENDBRANCH  20  23
ENDBRANCH   2  20
TORSDOF 5
ENDMDL
MODEL 2
REMARK VINA RESULT:      -8.9      1.604      2.196
REMARK  Name = 
REMARK  5 active torsions:
REMARK  status: ('A' for Active; 'I' for Inactive)
REMARK    1  A    between atoms: C_5  and  N_6
REMARK    2  A    between atoms: C_7  and  C_9
REMARK    3  A    between atoms: C_9  and  C_10
REMARK    4  A    between atoms: C_24  and  C_25
REMARK    5  A    between atoms: C_29  and  C_30
REMARK                            x       y       z     vdW  Elec       q    Type
REMARK                         _______ _______ _______ _____ _____    ______ ____
ROOT
ATOM      1  N   UNL     1      -9.260  16.972  67.128  0.00  0.00    -0.160 NA
ATOM      2  C   UNL     1     -10.565  16.772  67.668  0.00  0.00    +0.250 C 
ATOM      3  O   UNL     1     -11.275  17.821  67.752  0.00  0.00    -0.273 OA
ENDROOT
BRANCH   1   8
ATOM      4  C   UNL     1      -5.155  20.460  66.027  0.00  0.00    +0.033 C 
ATOM      5  C   UNL     1      -6.342  19.698  66.525  0.00  0.00    -0.004 A 
ATOM      6  C   UNL     1      -6.241  18.868  67.635  0.00  0.00    +0.079 A 
ATOM      7  N   UNL     1      -7.266  18.084  67.985  0.00  0.00    -0.229 NA
ATOM      8  C   UNL     1      -8.488  18.149  67.406  0.00  0.00    +0.154 A 
ATOM      9  C   UNL     1      -8.678  19.222  66.544  0.00  0.00    +0.036 A 
ATOM     10  C   UNL     1      -7.620  19.982  66.061  0.00  0.00    +0.000 A 
BRANCH   6  11
ATOM     11  C   UNL     1      -5.092  19.019  68.535  0.00  0.00    +0.018 A 
ATOM     12  C   UNL     1      -5.126  19.908  69.587  0.00  0.00    +0.008 A 
ATOM     13  C   UNL     1      -3.998  20.460  70.156  0.00  0.00    +0.080 A 
ATOM     14  C   UNL     1      -2.823  20.341  69.430  0.00  0.00    +0.007 A 
ATOM     15  C   UNL     1      -2.683  19.330  68.488  0.00  0.00    +0.000 A 
ATOM     16  C   UNL     1      -3.822  18.615  68.137  0.00  0.00    +0.001 A 
BRANCH  13  17
ATOM     17  C   UNL     1      -3.958  20.961  71.530  0.00  0.00    +0.388 C 
ATOM     18  O   UNL     1      -4.461  22.223  71.859  0.00  0.00    -0.241 OA
ATOM     19  O   UNL     1      -3.748  20.193  72.517  0.00  0.00    -0.241 OA
ENDBRANCH  13  17
ENDBRANCH   6  11
ENDBRANCH   1   8
BRANCH   2  20
ATOM     20  C   UNL     1     -10.930  15.571  68.482  0.00  0.00    +0.090 C 
ATOM     21  C   UNL     1     -10.378  15.583  69.936  0.00  0.00    +0.014 C 
ATOM     22  C   UNL     1     -11.822  15.833  69.686  0.00  0.00    +0.014 C 
BRANCH  20  23
ATOM     23  C   UNL     1     -10.965  14.246  67.839  0.00  0.00    -0.011 A 
ATOM     24  C   UNL     1     -12.092  13.771  67.183  0.00  0.00    +0.037 A 
ATOM     25  C   UNL     1     -11.987  12.939  66.075  0.00  0.00    +0.181 A 
ATOM     26  O   UNL     1     -12.886  12.573  65.071  0.00  0.00    -0.395 OA
ATOM     27  C   UNL     1     -12.249  12.663  63.797  0.00  0.00    +0.589 C 
ATOM     28  O   UNL     1     -10.893  12.504  64.168  0.00  0.00    -0.395 OA
ATOM     29  F   UNL     1     -12.511  13.931  63.306  0.00  0.00    -0.125 F 
ATOM     30  F   UNL     1     -12.684  11.672  62.943  0.00  0.00    -0.125 F 
ATOM     31  C   UNL     1     -10.743  12.622  65.546  0.00  0.00    +0.182 A 
ATOM     32  C   UNL     1      -9.668  12.788  66.406  0.00  0.00    +0.040 A 
ATOM     33  C   UNL     1      -9.772  13.610  67.519  0.00  0.00    -0.001 A 
ENDBRANCH  20  23
ENDBRANCH   2  20
TORSDOF 5
ENDMDL
MODEL 3
REMARK VINA RESULT:      -8.9      6.088      9.133
REMARK  Name = 
REMARK  5 active torsions:
REMARK  status: ('A' for Active; 'I' for Inactive)
REMARK    1  A    between atoms: C_5  and  N_6
REMARK    2  A    between atoms: C_7  and  C_9
REMARK    3  A    between atoms: C_9  and  C_10
REMARK    4  A    between atoms: C_24  and  C_25
REMARK    5  A    between atoms: C_29  and  C_30
REMARK                            x       y       z     vdW  Elec       q    Type
REMARK                         _______ _______ _______ _____ _____    ______ ____
ROOT
ATOM      1  N   UNL     1      -9.288   9.457  70.477  0.00  0.00    -0.160 NA
ATOM      2  C   UNL     1     -10.576   8.853  70.373  0.00  0.00    +0.250 C 
ATOM      3  O   UNL     1     -10.767   8.179  69.316  0.00  0.00    -0.273 OA
ENDROOT
BRANCH   1   8
ATOM      4  C   UNL     1      -7.485  13.672  67.440  0.00  0.00    +0.033 C 
ATOM      5  C   UNL     1      -7.830  12.367  68.084  0.00  0.00    -0.004 A 
ATOM      6  C   UNL     1      -8.879  11.590  67.605  0.00  0.00    +0.079 A 
ATOM      7  N   UNL     1      -9.269  10.499  68.272  0.00  0.00    -0.229 NA
ATOM      8  C   UNL     1      -8.602   9.997  69.338  0.00  0.00    +0.154 A 
ATOM      9  C   UNL     1      -7.364  10.575  69.587  0.00  0.00    +0.036 A 
ATOM     10  C   UNL     1      -6.975  11.776  69.006  0.00  0.00    +0.000 A 
BRANCH   6  11
ATOM     11  C   UNL     1      -9.402  11.854  66.260  0.00  0.00    +0.018 A 
ATOM     12  C   UNL     1     -10.588  12.534  66.080  0.00  0.00    +0.008 A 
ATOM     13  C   UNL     1     -11.375  12.409  64.955  0.00  0.00    +0.080 A 
ATOM     14  C   UNL     1     -11.102  11.328  64.131  0.00  0.00    +0.007 A 
ATOM     15  C   UNL     1      -9.847  10.734  64.151  0.00  0.00    +0.000 A 
ATOM     16  C   UNL     1      -8.978  11.098  65.173  0.00  0.00    +0.001 A 
BRANCH  13  17
ATOM     17  C   UNL     1     -12.308  13.444  64.512  0.00  0.00    +0.388 C 
ATOM     18  O   UNL     1     -12.528  13.692  63.154  0.00  0.00    -0.241 OA
ATOM     19  O   UNL     1     -13.163  13.956  65.296  0.00  0.00    -0.241 OA
ENDBRANCH  13  17
ENDBRANCH   6  11
ENDBRANCH   1   8
BRANCH   2  20
ATOM     20  C   UNL     1     -11.753   9.314  71.173  0.00  0.00    +0.090 C 
ATOM     21  C   UNL     1     -12.724   8.179  71.608  0.00  0.00    +0.014 C 
ATOM     22  C   UNL     1     -11.820   8.807  72.606  0.00  0.00    +0.014 C 
BRANCH  20  23
ATOM     23  C   UNL     1     -12.402  10.593  70.835  0.00  0.00    -0.011 A 
ATOM     24  C   UNL     1     -13.250  11.249  71.717  0.00  0.00    +0.037 A 
ATOM     25  C   UNL     1     -13.324  12.636  71.752  0.00  0.00    +0.181 A 
ATOM     26  O   UNL     1     -13.825  13.539  72.693  0.00  0.00    -0.395 OA
ATOM     27  C   UNL     1     -12.887  14.596  72.894  0.00  0.00    +0.589 C 
ATOM     28  O   UNL     1     -12.189  14.566  71.664  0.00  0.00    -0.395 OA
ATOM     29  F   UNL     1     -12.086  14.224  73.960  0.00  0.00    -0.125 F 
ATOM     30  F   UNL     1     -13.522  15.800  73.113  0.00  0.00    -0.125 F 
ATOM     31  C   UNL     1     -12.490  13.408  70.955  0.00  0.00    +0.182 A 
ATOM     32  C   UNL     1     -11.945  12.761  69.856  0.00  0.00    +0.040 A 
ATOM     33  C   UNL     1     -11.879  11.375  69.813  0.00  0.00    -0.001 A 
ENDBRANCH  20  23
ENDBRANCH   2  20
TORSDOF 5
ENDMDL
MODEL 4
REMARK VINA RESULT:      -8.8      5.289      9.472
REMARK  Name = 
REMARK  5 active torsions:
REMARK  status: ('A' for Active; 'I' for Inactive)
REMARK    1  A    between atoms: C_5  and  N_6
REMARK    2  A    between atoms: C_7  and  C_9
REMARK    3  A    between atoms: C_9  and  C_10
REMARK    4  A    between atoms: C_24  and  C_25
REMARK    5  A    between atoms: C_29  and  C_30
REMARK                            x       y       z     vdW  Elec       q    Type
REMARK                         _______ _______ _______ _____ _____    ______ ____
ROOT
ATOM      1  N   UNL     1     -11.230  11.428  66.054  0.00  0.00    -0.160 NA
ATOM      2  C   UNL     1     -10.675  12.650  65.570  0.00  0.00    +0.250 C 
ATOM      3  O   UNL     1      -9.438  12.602  65.292  0.00  0.00    -0.273 OA
ENDROOT
BRANCH   1   8
ATOM      4  C   UNL     1     -10.666   6.712  68.824  0.00  0.00    +0.033 C 
ATOM      5  C   UNL     1     -10.555   8.044  68.153  0.00  0.00    -0.004 A 
ATOM      6  C   UNL     1     -10.772   9.220  68.861  0.00  0.00    +0.079 A 
ATOM      7  N   UNL     1     -10.810  10.394  68.222  0.00  0.00    -0.229 NA
ATOM      8  C   UNL     1     -10.498  10.543  66.913  0.00  0.00    +0.154 A 
ATOM      9  C   UNL     1      -9.941   9.423  66.307  0.00  0.00    +0.036 A 
ATOM     10  C   UNL     1      -9.994   8.162  66.888  0.00  0.00    +0.000 A 
BRANCH   6  11
ATOM     11  C   UNL     1     -10.742   9.183  70.328  0.00  0.00    +0.018 A 
ATOM     12  C   UNL     1      -9.649   8.682  71.003  0.00  0.00    +0.008 A 
ATOM     13  C   UNL     1      -9.713   8.170  72.282  0.00  0.00    +0.080 A 
ATOM     14  C   UNL     1     -10.980   7.876  72.763  0.00  0.00    +0.007 A 
ATOM     15  C   UNL     1     -12.095   8.508  72.229  0.00  0.00    +0.000 A 
ATOM     16  C   UNL     1     -11.920   9.244  71.063  0.00  0.00    +0.001 A 
BRANCH  13  17
ATOM     17  C   UNL     1      -8.562   8.122  73.183  0.00  0.00    +0.388 C 
ATOM     18  O   UNL     1      -7.405   8.863  72.924  0.00  0.00    -0.241 OA
ATOM     19  O   UNL     1      -8.651   7.661  74.360  0.00  0.00    -0.241 OA
ENDBRANCH  13  17
ENDBRANCH   6  11
ENDBRANCH   1   8
BRANCH   2  20
ATOM     20  C   UNL     1     -11.328  13.978  65.785  0.00  0.00    +0.090 C 
ATOM     21  C   UNL     1     -12.083  14.537  64.545  0.00  0.00    +0.014 C 
ATOM     22  C   UNL     1     -12.847  13.992  65.697  0.00  0.00    +0.014 C 
BRANCH  20  23
ATOM     23  C   UNL     1     -10.650  14.993  66.611  0.00  0.00    -0.011 A 
ATOM     24  C   UNL     1      -9.845  15.979  66.059  0.00  0.00    +0.037 A 
ATOM     25  C   UNL     1      -9.760  17.245  66.627  0.00  0.00    +0.181 A 
ATOM     26  O   UNL     1      -9.301  18.474  66.148  0.00  0.00    -0.395 OA
ATOM     27  C   UNL     1     -10.238  19.499  66.476  0.00  0.00    +0.589 C 
ATOM     28  O   UNL     1     -10.870  18.927  67.605  0.00  0.00    -0.395 OA
ATOM     29  F   UNL     1     -11.099  19.615  65.398  0.00  0.00    -0.125 F 
ATOM     30  F   UNL     1      -9.605  20.688  66.769  0.00  0.00    -0.125 F 
ATOM     31  C   UNL     1     -10.542  17.581  67.723  0.00  0.00    +0.182 A 
ATOM     32  C   UNL     1     -11.033  16.512  68.458  0.00  0.00    +0.040 A 
ATOM     33  C   UNL     1     -11.110  15.244  67.898  0.00  0.00    -0.001 A 
ENDBRANCH  20  23
ENDBRANCH   2  20
TORSDOF 5
ENDMDL
MODEL 5
REMARK VINA RESULT:      -8.7      3.974      9.160
REMARK  Name = 
REMARK  5 active torsions:
REMARK  status: ('A' for Active; 'I' for Inactive)
REMARK    1  A    between atoms: C_5  and  N_6
REMARK    2  A    between atoms: C_7  and  C_9
REMARK    3  A    between atoms: C_9  and  C_10
REMARK    4  A    between atoms: C_24  and  C_25
REMARK    5  A    between atoms: C_29  and  C_30
REMARK                            x       y       z     vdW  Elec       q    Type
REMARK                         _______ _______ _______ _____ _____    ______ ____
ROOT
ATOM      1  N   UNL     1      -8.679  16.548  67.979  0.00  0.00    -0.160 NA
ATOM      2  C   UNL     1      -9.461  17.734  68.111  0.00  0.00    +0.250 C 
ATOM      3  O   UNL     1     -10.694  17.538  68.340  0.00  0.00    -0.273 OA
ENDROOT
BRANCH   1   8
ATOM      4  C   UNL     1     -12.721  13.622  65.670  0.00  0.00    +0.033 C 
ATOM      5  C   UNL     1     -11.457  14.203  66.220  0.00  0.00    -0.004 A 
ATOM      6  C   UNL     1     -10.988  13.832  67.474  0.00  0.00    +0.079 A 
ATOM      7  N   UNL     1      -9.938  14.461  68.014  0.00  0.00    -0.229 NA
ATOM      8  C   UNL     1      -9.184  15.364  67.346  0.00  0.00    +0.154 A 
ATOM      9  C   UNL     1      -9.446  15.463  65.985  0.00  0.00    +0.036 A 
ATOM     10  C   UNL     1     -10.592  14.928  65.409  0.00  0.00    +0.000 A 
BRANCH   6  11
ATOM     11  C   UNL     1     -11.513  12.612  68.097  0.00  0.00    +0.018 A 
ATOM     12  C   UNL     1     -11.957  12.615  69.402  0.00  0.00    +0.008 A 
ATOM     13  C   UNL     1     -12.000  11.489  70.196  0.00  0.00    +0.080 A 
ATOM     14  C   UNL     1     -11.281  10.392  69.745  0.00  0.00    +0.007 A 
ATOM     15  C   UNL     1     -10.978  10.261  68.397  0.00  0.00    +0.000 A 
ATOM     16  C   UNL     1     -11.204  11.361  67.576  0.00  0.00    +0.001 A 
BRANCH  13  17
ATOM     17  C   UNL     1     -12.904  11.348  71.336  0.00  0.00    +0.388 C 
ATOM     18  O   UNL     1     -13.131  10.106  71.936  0.00  0.00    -0.241 OA
ATOM     19  O   UNL     1     -13.290  12.348  72.014  0.00  0.00    -0.241 OA
ENDBRANCH  13  17
ENDBRANCH   6  11
ENDBRANCH   1   8
BRANCH   2  20
ATOM     20  C   UNL     1      -9.013  19.062  67.590  0.00  0.00    +0.090 C 
ATOM     21  C   UNL     1      -9.637  19.466  66.224  0.00  0.00    +0.014 C 
ATOM     22  C   UNL     1     -10.093  20.128  67.474  0.00  0.00    +0.014 C 
BRANCH  20  23
ATOM     23  C   UNL     1      -7.613  19.481  67.783  0.00  0.00    -0.011 A 
ATOM     24  C   UNL     1      -7.236  20.367  68.783  0.00  0.00    +0.037 A 
ATOM     25  C   UNL     1      -5.999  20.268  69.408  0.00  0.00    +0.181 A 
ATOM     26  O   UNL     1      -5.489  20.792  70.598  0.00  0.00    -0.395 OA
ATOM     27  C   UNL     1      -4.801  19.771  71.318  0.00  0.00    +0.589 C 
ATOM     28  O   UNL     1      -4.448  18.896  70.264  0.00  0.00    -0.395 OA
ATOM     29  F   UNL     1      -5.719  19.202  72.185  0.00  0.00    -0.125 F 
ATOM     30  F   UNL     1      -3.701  20.273  71.980  0.00  0.00    -0.125 F 
ATOM     31  C   UNL     1      -5.134  19.227  69.100  0.00  0.00    +0.182 A 
ATOM     32  C   UNL     1      -5.358  18.603  67.882  0.00  0.00    +0.040 A 
ATOM     33  C   UNL     1      -6.589  18.707  67.250  0.00  0.00    -0.001 A 
ENDBRANCH  20  23
ENDBRANCH   2  20
TORSDOF 5
ENDMDL
MODEL 6
REMARK VINA RESULT:      -8.7      3.552      4.542
REMARK  Name = 
REMARK  5 active torsions:
REMARK  status: ('A' for Active; 'I' for Inactive)
REMARK    1  A    between atoms: C_5  and  N_6
REMARK    2  A    between atoms: C_7  and  C_9
REMARK    3  A    between atoms: C_9  and  C_10
REMARK    4  A    between atoms: C_24  and  C_25
REMARK    5  A    between atoms: C_29  and  C_30
REMARK                            x       y       z     vdW  Elec       q    Type
REMARK                         _______ _______ _______ _____ _____    ______ ____
ROOT
ATOM      1  N   UNL     1      -8.856  15.936  66.713  0.00  0.00    -0.160 NA
ATOM      2  C   UNL     1     -10.093  16.267  67.342  0.00  0.00    +0.250 C 
ATOM      3  O   UNL     1     -10.333  17.510  67.426  0.00  0.00    -0.273 OA
ENDROOT
BRANCH   1   8
ATOM      4  C   UNL     1      -6.293  20.695  67.720  0.00  0.00    +0.033 C 
ATOM      5  C   UNL     1      -6.732  19.289  67.458  0.00  0.00    -0.004 A 
ATOM      6  C   UNL     1      -6.680  18.753  66.176  0.00  0.00    +0.079 A 
ATOM      7  N   UNL     1      -7.206  17.549  65.927  0.00  0.00    -0.229 NA
ATOM      8  C   UNL     1      -7.671  16.723  66.894  0.00  0.00    +0.154 A 
ATOM      9  C   UNL     1      -7.392  17.120  68.196  0.00  0.00    +0.036 A 
ATOM     10  C   UNL     1      -6.963  18.405  68.504  0.00  0.00    +0.000 A 
BRANCH   6  11
ATOM     11  C   UNL     1      -5.859  19.421  65.159  0.00  0.00    +0.018 A 
ATOM     12  C   UNL     1      -6.408  20.348  64.300  0.00  0.00    +0.008 A 
ATOM     13  C   UNL     1      -5.880  20.647  63.062  0.00  0.00    +0.080 A 
ATOM     14  C   UNL     1      -4.946  19.752  62.561  0.00  0.00    +0.007 A 
ATOM     15  C   UNL     1      -4.234  18.929  63.422  0.00  0.00    +0.000 A 
ATOM     16  C   UNL     1      -4.654  18.866  64.746  0.00  0.00    +0.001 A 
BRANCH  13  17
ATOM     17  C   UNL     1      -6.103  21.923  62.383  0.00  0.00    +0.388 C 
ATOM     18  O   UNL     1      -5.053  22.616  61.774  0.00  0.00    -0.241 OA
ATOM     19  O   UNL     1      -7.264  22.315  62.058  0.00  0.00    -0.241 OA
ENDBRANCH  13  17
ENDBRANCH   6  11
ENDBRANCH   1   8
BRANCH   2  20
ATOM     20  C   UNL     1     -10.834  15.314  68.225  0.00  0.00    +0.090 C 
ATOM     21  C   UNL     1     -10.412  15.358  69.721  0.00  0.00    +0.014 C 
ATOM     22  C   UNL     1     -11.709  15.947  69.297  0.00  0.00    +0.014 C 
BRANCH  20  23
ATOM     23  C   UNL     1     -11.183  13.976  67.715  0.00  0.00    -0.011 A 
ATOM     24  C   UNL     1     -12.295  13.756  66.914  0.00  0.00    +0.037 A 
ATOM     25  C   UNL     1     -12.292  12.778  65.927  0.00  0.00    +0.181 A 
ATOM     26  O   UNL     1     -13.107  12.545  64.817  0.00  0.00    -0.395 OA
ATOM     27  C   UNL     1     -12.298  12.263  63.676  0.00  0.00    +0.589 C 
ATOM     28  O   UNL     1     -11.124  11.777  64.298  0.00  0.00    -0.395 OA
ATOM     29  F   UNL     1     -12.084  13.468  63.028  0.00  0.00    -0.125 F 
ATOM     30  F   UNL     1     -12.889  11.327  62.855  0.00  0.00    -0.125 F 
ATOM     31  C   UNL     1     -11.144  12.044  65.663  0.00  0.00    +0.182 A 
ATOM     32  C   UNL     1     -10.204  12.016  66.683  0.00  0.00    +0.040 A 
ATOM     33  C   UNL     1     -10.210  12.985  67.676  0.00  0.00    -0.001 A 
ENDBRANCH  20  23
ENDBRANCH   2  20
TORSDOF 5
ENDMDL
MODEL 7
REMARK VINA RESULT:      -8.6      3.575      9.471
REMARK  Name = 
REMARK  5 active torsions:
REMARK  status: ('A' for Active; 'I' for Inactive)
REMARK    1  A    between atoms: C_5  and  N_6
REMARK    2  A    between atoms: C_7  and  C_9
REMARK    3  A    between atoms: C_9  and  C_10
REMARK    4  A    between atoms: C_24  and  C_25
REMARK    5  A    between atoms: C_29  and  C_30
REMARK                            x       y       z     vdW  Elec       q    Type
REMARK                         _______ _______ _______ _____ _____    ______ ____
ROOT
ATOM      1  N   UNL     1     -10.242  17.152  69.108  0.00  0.00    -0.160 NA
ATOM      2  C   UNL     1      -9.948  18.185  68.169  0.00  0.00    +0.250 C 
ATOM      3  O   UNL     1     -10.948  18.617  67.519  0.00  0.00    -0.273 OA
ENDROOT
BRANCH   1   8
ATOM      4  C   UNL     1     -11.977  11.936  69.224  0.00  0.00    +0.033 C 
ATOM      5  C   UNL     1     -11.765  13.411  69.099  0.00  0.00    -0.004 A 
ATOM      6  C   UNL     1     -11.426  13.982  67.878  0.00  0.00    +0.079 A 
ATOM      7  N   UNL     1     -11.099  15.277  67.806  0.00  0.00    -0.229 NA
ATOM      8  C   UNL     1     -11.220  16.136  68.846  0.00  0.00    +0.154 A 
ATOM      9  C   UNL     1     -11.893  15.634  69.953  0.00  0.00    +0.036 A 
ATOM     10  C   UNL     1     -12.139  14.276  70.120  0.00  0.00    +0.000 A 
BRANCH   6  11
ATOM     11  C   UNL     1     -11.638  13.209  66.649  0.00  0.00    +0.018 A 
ATOM     12  C   UNL     1     -10.728  12.257  66.241  0.00  0.00    +0.008 A 
ATOM     13  C   UNL     1     -10.583  11.853  64.931  0.00  0.00    +0.080 A 
ATOM     14  C   UNL     1     -11.166  12.665  63.970  0.00  0.00    +0.007 A 
ATOM     15  C   UNL     1     -12.219  13.504  64.308  0.00  0.00    +0.000 A 
ATOM     16  C   UNL     1     -12.498  13.674  65.660  0.00  0.00    +0.001 A 
BRANCH  13  17
ATOM     17  C   UNL     1     -10.040  10.550  64.552  0.00  0.00    +0.388 C 
ATOM     18  O   UNL     1     -10.057   9.469  65.438  0.00  0.00    -0.241 OA
ATOM     19  O   UNL     1      -9.804  10.248  63.343  0.00  0.00    -0.241 OA
ENDBRANCH  13  17
ENDBRANCH   6  11
ENDBRANCH   1   8
BRANCH   2  20
ATOM     20  C   UNL     1      -8.569  18.438  67.649  0.00  0.00    +0.090 C 
ATOM     21  C   UNL     1      -7.730  17.154  67.388  0.00  0.00    +0.014 C 
ATOM     22  C   UNL     1      -8.286  17.925  66.245  0.00  0.00    +0.014 C 
BRANCH  20  23
ATOM     23  C   UNL     1      -7.802  19.589  68.158  0.00  0.00    -0.011 A 
ATOM     24  C   UNL     1      -7.226  19.595  69.421  0.00  0.00    +0.037 A 
ATOM     25  C   UNL     1      -6.034  20.265  69.668  0.00  0.00    +0.181 A 
ATOM     26  O   UNL     1      -5.100  20.195  70.705  0.00  0.00    -0.395 OA
ATOM     27  C   UNL     1      -3.782  20.144  70.163  0.00  0.00    +0.589 C 
ATOM     28  O   UNL     1      -3.987  20.769  68.910  0.00  0.00    -0.395 OA
ATOM     29  F   UNL     1      -3.453  18.805  70.031  0.00  0.00    -0.125 F 
ATOM     30  F   UNL     1      -2.883  20.827  70.954  0.00  0.00    -0.125 F 
ATOM     31  C   UNL     1      -5.345  20.885  68.635  0.00  0.00    +0.182 A 
ATOM     32  C   UNL     1      -6.097  21.180  67.508  0.00  0.00    +0.040 A 
ATOM     33  C   UNL     1      -7.292  20.520  67.262  0.00  0.00    -0.001 A 
ENDBRANCH  20  23
ENDBRANCH   2  20
TORSDOF 5
ENDMDL
MODEL 8
REMARK VINA RESULT:      -8.6      4.236      8.642
REMARK  Name = 
REMARK  5 active torsions:
REMARK  status: ('A' for Active; 'I' for Inactive)
REMARK    1  A    between atoms: C_5  and  N_6
REMARK    2  A    between atoms: C_7  and  C_9
REMARK    3  A    between atoms: C_9  and  C_10
REMARK    4  A    between atoms: C_24  and  C_25
REMARK    5  A    between atoms: C_29  and  C_30
REMARK                            x       y       z     vdW  Elec       q    Type
REMARK                         _______ _______ _______ _____ _____    ______ ____
ROOT
ATOM      1  N   UNL     1      -8.873  16.546  67.753  0.00  0.00    -0.160 NA
ATOM      2  C   UNL     1      -9.686  17.718  67.770  0.00  0.00    +0.250 C 
ATOM      3  O   UNL     1     -10.927  17.505  67.922  0.00  0.00    -0.273 OA
ENDROOT
BRANCH   1   8
ATOM      4  C   UNL     1     -12.727  13.362  65.464  0.00  0.00    +0.033 C 
ATOM      5  C   UNL     1     -11.502  14.019  66.017  0.00  0.00    -0.004 A 
ATOM      6  C   UNL     1     -11.039  13.707  67.290  0.00  0.00    +0.079 A 
ATOM      7  N   UNL     1     -10.031  14.401  67.829  0.00  0.00    -0.229 NA
ATOM      8  C   UNL     1      -9.309  15.321  67.147  0.00  0.00    +0.154 A 
ATOM      9  C   UNL     1      -9.550  15.367  65.779  0.00  0.00    +0.036 A 
ATOM     10  C   UNL     1     -10.658  14.761  65.201  0.00  0.00    +0.000 A 
BRANCH   6  11
ATOM     11  C   UNL     1     -11.517  12.482  67.940  0.00  0.00    +0.018 A 
ATOM     12  C   UNL     1     -11.920  12.488  69.259  0.00  0.00    +0.008 A 
ATOM     13  C   UNL     1     -11.913  11.368  70.063  0.00  0.00    +0.080 A 
ATOM     14  C   UNL     1     -11.183  10.284  69.600  0.00  0.00    +0.007 A 
ATOM     15  C   UNL     1     -10.919  10.147  68.244  0.00  0.00    +0.000 A 
ATOM     16  C   UNL     1     -11.196  11.233  67.421  0.00  0.00    +0.001 A 
BRANCH  13  17
ATOM     17  C   UNL     1     -12.778  11.218  71.233  0.00  0.00    +0.388 C 
ATOM     18  O   UNL     1     -12.831  10.019  71.949  0.00  0.00    -0.241 OA
ATOM     19  O   UNL     1     -13.285  12.218  71.824  0.00  0.00    -0.241 OA
ENDBRANCH  13  17
ENDBRANCH   6  11
ENDBRANCH   1   8
BRANCH   2  20
ATOM     20  C   UNL     1      -9.228  19.029  67.215  0.00  0.00    +0.090 C 
ATOM     21  C   UNL     1     -10.177  19.648  66.150  0.00  0.00    +0.014 C 
ATOM     22  C   UNL     1     -10.118  20.225  67.519  0.00  0.00    +0.014 C 
BRANCH  20  23
ATOM     23  C   UNL     1      -7.791  19.250  66.973  0.00  0.00    -0.011 A 
ATOM     24  C   UNL     1      -7.096  18.576  65.978  0.00  0.00    +0.037 A 
ATOM     25  C   UNL     1      -6.042  19.176  65.299  0.00  0.00    +0.181 A 
ATOM     26  O   UNL     1      -5.389  18.878  64.101  0.00  0.00    -0.395 OA
ATOM     27  C   UNL     1      -5.232  20.067  63.329  0.00  0.00    +0.589 C 
ATOM     28  O   UNL     1      -5.264  21.049  64.347  0.00  0.00    -0.395 OA
ATOM     29  F   UNL     1      -6.330  20.149  62.489  0.00  0.00    -0.125 F 
ATOM     30  F   UNL     1      -4.042  20.065  62.633  0.00  0.00    -0.125 F 
ATOM     31  C   UNL     1      -5.706  20.500  65.546  0.00  0.00    +0.182 A 
ATOM     32  C   UNL     1      -6.144  21.013  66.758  0.00  0.00    +0.040 A 
ATOM     33  C   UNL     1      -7.189  20.411  67.444  0.00  0.00    -0.001 A 
ENDBRANCH  20  23
ENDBRANCH   2  20
TORSDOF 5
ENDMDL
MODEL 9
REMARK VINA RESULT:      -8.5      2.033      3.073
REMARK  Name = 
REMARK  5 active torsions:
REMARK  status: ('A' for Active; 'I' for Inactive)
REMARK    1  A    between atoms: C_5  and  N_6
REMARK    2  A    between atoms: C_7  and  C_9
REMARK    3  A    between atoms: C_9  and  C_10
REMARK    4  A    between atoms: C_24  and  C_25
REMARK    5  A    between atoms: C_29  and  C_30
REMARK                            x       y       z     vdW  Elec       q    Type
REMARK                         _______ _______ _______ _____ _____    ______ ____
ROOT
ATOM      1  N   UNL     1      -9.271  14.540  66.829  0.00  0.00    -0.160 NA
ATOM      2  C   UNL     1      -9.932  14.616  65.567  0.00  0.00    +0.250 C 
ATOM      3  O   UNL     1      -9.791  15.719  64.956  0.00  0.00    -0.273 OA
ENDROOT
BRANCH   1   8
ATOM      4  C   UNL     1      -9.513  19.932  67.877  0.00  0.00    +0.033 C 
ATOM      5  C   UNL     1      -9.417  18.439  67.871  0.00  0.00    -0.004 A 
ATOM      6  C   UNL     1      -8.180  17.804  67.886  0.00  0.00    +0.079 A 
ATOM      7  N   UNL     1      -8.102  16.477  67.737  0.00  0.00    -0.229 NA
ATOM      8  C   UNL     1      -9.184  15.663  67.716  0.00  0.00    +0.154 A 
ATOM      9  C   UNL     1     -10.387  16.269  68.057  0.00  0.00    +0.036 A 
ATOM     10  C   UNL     1     -10.536  17.650  68.100  0.00  0.00    +0.000 A 
BRANCH   6  11
ATOM     11  C   UNL     1      -6.993  18.569  68.282  0.00  0.00    +0.018 A 
ATOM     12  C   UNL     1      -6.803  18.961  69.591  0.00  0.00    +0.008 A 
ATOM     13  C   UNL     1      -6.029  20.040  69.959  0.00  0.00    +0.080 A 
ATOM     14  C   UNL     1      -5.692  20.928  68.948  0.00  0.00    +0.007 A 
ATOM     15  C   UNL     1      -5.689  20.511  67.624  0.00  0.00    +0.000 A 
ATOM     16  C   UNL     1      -6.256  19.274  67.337  0.00  0.00    +0.001 A 
BRANCH  13  17
ATOM     17  C   UNL     1      -5.405  20.165  71.276  0.00  0.00    +0.388 C 
ATOM     18  O   UNL     1      -4.948  19.043  71.973  0.00  0.00    -0.241 OA
ATOM     19  O   UNL     1      -4.986  21.277  71.716  0.00  0.00    -0.241 OA
ENDBRANCH  13  17
ENDBRANCH   6  11
ENDBRANCH   1   8
BRANCH   2  20
ATOM     20  C   UNL     1     -11.049  13.700  65.181  0.00  0.00    +0.090 C 
ATOM     21  C   UNL     1     -12.343  13.865  66.028  0.00  0.00    +0.014 C 
ATOM     22  C   UNL     1     -12.299  14.372  64.632  0.00  0.00    +0.014 C 
BRANCH  20  23
ATOM     23  C   UNL     1     -10.744  12.316  64.774  0.00  0.00    -0.011 A 
ATOM     24  C   UNL     1     -10.666  11.937  63.441  0.00  0.00    +0.037 A 
ATOM     25  C   UNL     1      -9.788  10.945  63.022  0.00  0.00    +0.181 A 
ATOM     26  O   UNL     1      -9.287  10.584  61.769  0.00  0.00    -0.395 OA
ATOM     27  C   UNL     1      -7.878  10.382  61.853  0.00  0.00    +0.589 C 
ATOM     28  O   UNL     1      -7.737  10.064  63.224  0.00  0.00    -0.395 OA
ATOM     29  F   UNL     1      -7.280  11.589  61.532  0.00  0.00    -0.125 F 
ATOM     30  F   UNL     1      -7.463   9.359  61.027  0.00  0.00    -0.125 F 
ATOM     31  C   UNL     1      -8.906  10.358  63.919  0.00  0.00    +0.182 A 
ATOM     32  C   UNL     1      -9.248  10.474  65.258  0.00  0.00    +0.040 A 
ATOM     33  C   UNL     1     -10.132  11.457  65.679  0.00  0.00    -0.001 A 
ENDBRANCH  20  23
ENDBRANCH   2  20
TORSDOF 5
ENDMDL
