MODEL 1
REMARK VINA RESULT:      -7.1      0.000      0.000
REMARK  Name = 
REMARK  3 active torsions:
REMARK  status: ('A' for Active; 'I' for Inactive)
REMARK    1  A    between atoms: C_8  and  C_9
REMARK    2  A    between atoms: C_9  and  O_10
REMARK    3  A    between atoms: O_10  and  S_11
REMARK                            x       y       z     vdW  Elec       q    Type
REMARK                         _______ _______ _______ _____ _____    ______ ____
ROOT
ATOM      1  C   UNL     1     -12.854  13.933  65.173  0.00  0.00    +0.061 C 
ATOM      2  C   UNL     1     -11.817  13.136  65.362  0.00  0.00    +0.187 C 
ATOM      3  O   UNL     1     -10.637  13.699  65.655  0.00  0.00    -0.332 OA
ATOM      4  C   UNL     1     -10.345  13.339  67.069  0.00  0.00    +0.179 C 
ATOM      5  C   UNL     1     -10.917  11.727  66.881  0.00  0.00    +0.177 C 
ATOM      6  C   UNL     1     -11.695  11.689  68.324  0.00  0.00    +0.177 C 
ATOM      7  O   UNL     1     -11.120  12.491  69.212  0.00  0.00    -0.328 OA
ATOM      8  C   UNL     1     -11.376  13.842  69.182  0.00  0.00    +0.247 C 
ATOM      9  O   UNL     1     -10.155  14.427  69.164  0.00  0.00    -0.310 OA
ATOM     10  C   UNL     1     -10.340  15.501  68.357  0.00  0.00    +0.190 C 
ATOM     11  O   UNL     1     -11.351  15.370  67.507  0.00  0.00    -0.329 OA
ATOM     12  C   UNL     1     -10.568  16.681  69.302  0.00  0.00    +0.061 C 
ATOM     13  C   UNL     1      -9.020  15.850  67.692  0.00  0.00    +0.061 C 
ATOM     14  C   UNL     1     -11.847  13.955  67.618  0.00  0.00    +0.201 C 
ATOM     15  O   UNL     1     -12.191  12.165  66.199  0.00  0.00    -0.332 OA
ATOM     16  C   UNL     1     -11.598  12.492  63.993  0.00  0.00    +0.061 C 
ENDROOT
BRANCH   8  17
ATOM     17  C   UNL     1     -12.422  14.381  70.038  0.00  0.00    +0.234 C 
BRANCH  17  18
ATOM     18  O   UNL     1     -12.056  14.272  71.367  0.00  0.00    -0.204 OA
BRANCH  18  19
ATOM     19  S   UNL     1     -13.293  14.517  72.449  0.00  0.00    +0.187 S 
ATOM     20  O   UNL     1     -14.005  13.191  72.614  0.00  0.00    -0.127 OA
ATOM     21  O   UNL     1     -12.833  15.069  73.759  0.00  0.00    -0.127 OA
ATOM     22  N   UNL     1     -14.439  15.631  71.765  0.00  0.00    +0.063 NA
ENDBRANCH  18  19
ENDBRANCH  17  18
ENDBRANCH   8  17
TORSDOF 3
ENDMDL
MODEL 2
REMARK VINA RESULT:      -6.8      3.427      5.615
REMARK  Name = 
REMARK  3 active torsions:
REMARK  status: ('A' for Active; 'I' for Inactive)
REMARK    1  A    between atoms: C_8  and  C_9
REMARK    2  A    between atoms: C_9  and  O_10
REMARK    3  A    between atoms: O_10  and  S_11
REMARK                            x       y       z     vdW  Elec       q    Type
REMARK                         _______ _______ _______ _____ _____    ______ ____
ROOT
ATOM      1  C   UNL     1     -10.851  19.061  67.074  0.00  0.00    +0.061 C 
ATOM      2  C   UNL     1      -9.662  18.523  67.281  0.00  0.00    +0.187 C 
ATOM      3  O   UNL     1      -9.441  17.920  68.457  0.00  0.00    -0.332 OA
ATOM      4  C   UNL     1      -9.327  16.467  68.164  0.00  0.00    +0.179 C 
ATOM      5  C   UNL     1      -8.409  16.726  66.732  0.00  0.00    +0.177 C 
ATOM      6  C   UNL     1      -9.196  15.584  65.856  0.00  0.00    +0.177 C 
ATOM      7  O   UNL     1      -9.665  14.612  66.629  0.00  0.00    -0.328 OA
ATOM      8  C   UNL     1     -10.837  14.794  67.325  0.00  0.00    +0.247 C 
ATOM      9  O   UNL     1     -10.532  14.477  68.606  0.00  0.00    -0.310 OA
ATOM     10  C   UNL     1     -11.267  15.362  69.324  0.00  0.00    +0.190 C 
ATOM     11  O   UNL     1     -11.580  16.468  68.662  0.00  0.00    -0.329 OA
ATOM     12  C   UNL     1     -12.524  14.598  69.742  0.00  0.00    +0.061 C 
ATOM     13  C   UNL     1     -10.570  15.617  70.650  0.00  0.00    +0.061 C 
ATOM     14  C   UNL     1     -10.837  16.431  67.355  0.00  0.00    +0.201 C 
ATOM     15  O   UNL     1      -9.354  17.783  66.213  0.00  0.00    -0.332 OA
ATOM     16  C   UNL     1      -8.716  19.723  67.287  0.00  0.00    +0.061 C 
ENDROOT
BRANCH   8  17
ATOM     17  C   UNL     1     -12.084  14.325  66.742  0.00  0.00    +0.234 C 
BRANCH  17  18
ATOM     18  O   UNL     1     -11.891  13.107  66.116  0.00  0.00    -0.204 OA
BRANCH  18  19
ATOM     19  S   UNL     1     -12.086  13.138  64.466  0.00  0.00    +0.187 S 
ATOM     20  O   UNL     1     -10.736  12.832  63.855  0.00  0.00    -0.127 OA
ATOM     21  O   UNL     1     -13.143  12.201  63.977  0.00  0.00    -0.127 OA
ATOM     22  N   UNL     1     -12.520  14.747  63.971  0.00  0.00    +0.063 NA
ENDBRANCH  18  19
ENDBRANCH  17  18
ENDBRANCH   8  17
TORSDOF 3
ENDMDL
MODEL 3
REMARK VINA RESULT:      -6.7      1.842      4.076
REMARK  Name = 
REMARK  3 active torsions:
REMARK  status: ('A' for Active; 'I' for Inactive)
REMARK    1  A    between atoms: C_8  and  C_9
REMARK    2  A    between atoms: C_9  and  O_10
REMARK    3  A    between atoms: O_10  and  S_11
REMARK                            x       y       z     vdW  Elec       q    Type
REMARK                         _______ _______ _______ _____ _____    ______ ____
ROOT
ATOM      1  C   UNL     1      -7.146  15.653  67.163  0.00  0.00    +0.061 C 
ATOM      2  C   UNL     1      -7.957  16.602  66.730  0.00  0.00    +0.187 C 
ATOM      3  O   UNL     1      -8.861  16.277  65.796  0.00  0.00    -0.332 OA
ATOM      4  C   UNL     1     -10.190  16.349  66.462  0.00  0.00    +0.179 C 
ATOM      5  C   UNL     1      -9.789  17.779  67.330  0.00  0.00    +0.177 C 
ATOM      6  C   UNL     1     -10.488  17.291  68.730  0.00  0.00    +0.177 C 
ATOM      7  O   UNL     1     -11.498  16.458  68.509  0.00  0.00    -0.328 OA
ATOM      8  C   UNL     1     -11.247  15.131  68.245  0.00  0.00    +0.247 C 
ATOM      9  O   UNL     1     -11.925  14.870  67.102  0.00  0.00    -0.310 OA
ATOM     10  C   UNL     1     -11.108  14.006  66.451  0.00  0.00    +0.190 C 
ATOM     11  O   UNL     1      -9.833  14.095  66.808  0.00  0.00    -0.329 OA
ATOM     12  C   UNL     1     -11.667  12.616  66.755  0.00  0.00    +0.061 C 
ATOM     13  C   UNL     1     -11.338  14.143  64.956  0.00  0.00    +0.061 C 
ATOM     14  C   UNL     1      -9.705  15.287  67.716  0.00  0.00    +0.201 C 
ATOM     15  O   UNL     1      -8.461  17.230  67.795  0.00  0.00    -0.332 OA
ATOM     16  C   UNL     1      -7.023  17.585  66.025  0.00  0.00    +0.061 C 
ENDROOT
BRANCH   8  17
ATOM     17  C   UNL     1     -11.284  14.175  69.341  0.00  0.00    +0.234 C 
BRANCH  17  18
ATOM     18  O   UNL     1     -12.578  14.035  69.810  0.00  0.00    -0.204 OA
BRANCH  18  19
ATOM     19  S   UNL     1     -12.828  14.631  71.341  0.00  0.00    +0.187 S 
ATOM     20  O   UNL     1     -11.477  15.048  71.879  0.00  0.00    -0.127 OA
ATOM     21  O   UNL     1     -13.815  15.752  71.386  0.00  0.00    -0.127 OA
ATOM     22  N   UNL     1     -13.415  13.353  72.363  0.00  0.00    +0.063 NA
ENDBRANCH  18  19
ENDBRANCH  17  18
ENDBRANCH   8  17
TORSDOF 3
ENDMDL
MODEL 4
REMARK VINA RESULT:      -6.4      6.305      8.042
REMARK  Name = 
REMARK  3 active torsions:
REMARK  status: ('A' for Active; 'I' for Inactive)
REMARK    1  A    between atoms: C_8  and  C_9
REMARK    2  A    between atoms: C_9  and  O_10
REMARK    3  A    between atoms: O_10  and  S_11
REMARK                            x       y       z     vdW  Elec       q    Type
REMARK                         _______ _______ _______ _____ _____    ______ ____
ROOT
ATOM      1  C   UNL     1      -9.800  20.107  67.089  0.00  0.00    +0.061 C 
ATOM      2  C   UNL     1      -9.319  18.925  66.744  0.00  0.00    +0.187 C 
ATOM      3  O   UNL     1      -8.386  18.883  65.783  0.00  0.00    -0.332 OA
ATOM      4  C   UNL     1      -7.121  18.477  66.452  0.00  0.00    +0.179 C 
ATOM      5  C   UNL     1      -7.903  17.313  67.448  0.00  0.00    +0.177 C 
ATOM      6  C   UNL     1      -7.051  17.691  68.797  0.00  0.00    +0.177 C 
ATOM      7  O   UNL     1      -5.847  18.163  68.499  0.00  0.00    -0.328 OA
ATOM      8  C   UNL     1      -5.700  19.475  68.115  0.00  0.00    +0.247 C 
ATOM      9  O   UNL     1      -5.007  19.421  66.952  0.00  0.00    -0.310 OA
ATOM     10  C   UNL     1      -5.550  20.429  66.225  0.00  0.00    +0.190 C 
ATOM     11  O   UNL     1      -6.783  20.756  66.590  0.00  0.00    -0.329 OA
ATOM     12  C   UNL     1      -4.595  21.611  66.400  0.00  0.00    +0.061 C 
ATOM     13  C   UNL     1      -5.412  20.100  64.749  0.00  0.00    +0.061 C 
ATOM     14  C   UNL     1      -7.233  19.741  67.604  0.00  0.00    +0.201 C 
ATOM     15  O   UNL     1      -8.995  18.271  67.862  0.00  0.00    -0.332 OA
ATOM     16  C   UNL     1     -10.523  18.207  66.133  0.00  0.00    +0.061 C 
ENDROOT
BRANCH   8  17
ATOM     17  C   UNL     1      -5.350  20.469  69.119  0.00  0.00    +0.234 C 
BRANCH  17  18
ATOM     18  O   UNL     1      -4.338  19.991  69.932  0.00  0.00    -0.204 OA
BRANCH  18  19
ATOM     19  S   UNL     1      -4.757  19.826  71.532  0.00  0.00    +0.187 S 
ATOM     20  O   UNL     1      -5.912  20.769  71.787  0.00  0.00    -0.127 OA
ATOM     21  O   UNL     1      -5.092  18.420  71.914  0.00  0.00    -0.127 OA
ATOM     22  N   UNL     1      -3.433  20.355  72.527  0.00  0.00    +0.063 NA
ENDBRANCH  18  19
ENDBRANCH  17  18
ENDBRANCH   8  17
TORSDOF 3
ENDMDL
MODEL 5
REMARK VINA RESULT:      -6.3      3.390      4.802
REMARK  Name = 
REMARK  3 active torsions:
REMARK  status: ('A' for Active; 'I' for Inactive)
REMARK    1  A    between atoms: C_8  and  C_9
REMARK    2  A    between atoms: C_9  and  O_10
REMARK    3  A    between atoms: O_10  and  S_11
REMARK                            x       y       z     vdW  Elec       q    Type
REMARK                         _______ _______ _______ _____ _____    ______ ____
ROOT
ATOM      1  C   UNL     1      -8.679  11.317  66.631  0.00  0.00    +0.061 C 
ATOM      2  C   UNL     1      -9.969  11.191  66.371  0.00  0.00    +0.187 C 
ATOM      3  O   UNL     1     -10.838  11.505  67.342  0.00  0.00    -0.332 OA
ATOM      4  C   UNL     1     -11.534  12.740  66.891  0.00  0.00    +0.179 C 
ATOM      5  C   UNL     1     -11.661  12.195  65.264  0.00  0.00    +0.177 C 
ATOM      6  C   UNL     1     -11.281  13.647  64.603  0.00  0.00    +0.177 C 
ATOM      7  O   UNL     1     -11.636  14.653  65.393  0.00  0.00    -0.328 OA
ATOM      8  C   UNL     1     -10.839  15.001  66.459  0.00  0.00    +0.247 C 
ATOM      9  O   UNL     1     -11.674  15.018  67.525  0.00  0.00    -0.310 OA
ATOM     10  C   UNL     1     -10.898  14.540  68.530  0.00  0.00    +0.190 C 
ATOM     11  O   UNL     1      -9.885  13.788  68.120  0.00  0.00    -0.329 OA
ATOM     12  C   UNL     1     -10.396  15.778  69.274  0.00  0.00    +0.061 C 
ATOM     13  C   UNL     1     -11.787  13.865  69.559  0.00  0.00    +0.061 C 
ATOM     14  C   UNL     1     -10.058  13.574  66.641  0.00  0.00    +0.201 C 
ATOM     15  O   UNL     1     -10.212  11.778  65.197  0.00  0.00    -0.332 OA
ATOM     16  C   UNL     1     -10.153   9.687  66.171  0.00  0.00    +0.061 C 
ENDROOT
BRANCH   8  17
ATOM     17  C   UNL     1      -9.862  16.065  66.291  0.00  0.00    +0.234 C 
BRANCH  17  18
ATOM     18  O   UNL     1     -10.427  17.131  65.614  0.00  0.00    -0.204 OA
BRANCH  18  19
ATOM     19  S   UNL     1     -10.231  18.605  66.357  0.00  0.00    +0.187 S 
ATOM     20  O   UNL     1     -10.555  19.666  65.328  0.00  0.00    -0.127 OA
ATOM     21  O   UNL     1     -11.056  18.759  67.594  0.00  0.00    -0.127 OA
ATOM     22  N   UNL     1      -8.560  18.808  66.794  0.00  0.00    +0.063 NA
ENDBRANCH  18  19
ENDBRANCH  17  18
ENDBRANCH   8  17
TORSDOF 3
ENDMDL
MODEL 6
REMARK VINA RESULT:      -6.2      3.636      5.067
REMARK  Name = 
REMARK  3 active torsions:
REMARK  status: ('A' for Active; 'I' for Inactive)
REMARK    1  A    between atoms: C_8  and  C_9
REMARK    2  A    between atoms: C_9  and  O_10
REMARK    3  A    between atoms: O_10  and  S_11
REMARK                            x       y       z     vdW  Elec       q    Type
REMARK                         _______ _______ _______ _____ _____    ______ ____
ROOT
ATOM      1  C   UNL     1     -11.876  11.192  68.803  0.00  0.00    +0.061 C 
ATOM      2  C   UNL     1     -10.767  10.824  68.185  0.00  0.00    +0.187 C 
ATOM      3  O   UNL     1     -10.793  10.736  66.848  0.00  0.00    -0.332 OA
ATOM      4  C   UNL     1      -9.936  11.842  66.342  0.00  0.00    +0.179 C 
ATOM      5  C   UNL     1      -8.743  11.607  67.560  0.00  0.00    +0.177 C 
ATOM      6  C   UNL     1      -8.512  13.207  67.836  0.00  0.00    +0.177 C 
ATOM      7  O   UNL     1      -8.763  13.932  66.753  0.00  0.00    -0.328 OA
ATOM      8  C   UNL     1     -10.062  14.241  66.421  0.00  0.00    +0.247 C 
ATOM      9  O   UNL     1     -10.190  13.859  65.128  0.00  0.00    -0.310 OA
ATOM     10  C   UNL     1     -11.461  13.388  65.073  0.00  0.00    +0.190 C 
ATOM     11  O   UNL     1     -11.939  12.983  66.242  0.00  0.00    -0.329 OA
ATOM     12  C   UNL     1     -12.293  14.541  64.509  0.00  0.00    +0.061 C 
ATOM     13  C   UNL     1     -11.549  12.341  63.976  0.00  0.00    +0.061 C 
ATOM     14  C   UNL     1     -10.804  13.024  67.227  0.00  0.00    +0.201 C 
ATOM     15  O   UNL     1      -9.762  11.556  68.672  0.00  0.00    -0.332 OA
ATOM     16  C   UNL     1     -10.548   9.386  68.654  0.00  0.00    +0.061 C 
ENDROOT
BRANCH   8  17
ATOM     17  C   UNL     1     -10.617  15.514  66.856  0.00  0.00    +0.234 C 
BRANCH  17  18
ATOM     18  O   UNL     1      -9.632  16.485  66.869  0.00  0.00    -0.204 OA
BRANCH  18  19
ATOM     19  S   UNL     1     -10.146  17.998  66.411  0.00  0.00    +0.187 S 
ATOM     20  O   UNL     1     -10.931  17.828  65.128  0.00  0.00    -0.127 OA
ATOM     21  O   UNL     1     -10.945  18.696  67.464  0.00  0.00    -0.127 OA
ATOM     22  N   UNL     1      -8.764  18.984  66.040  0.00  0.00    +0.063 NA
ENDBRANCH  18  19
ENDBRANCH  17  18
ENDBRANCH   8  17
TORSDOF 3
ENDMDL
MODEL 7
REMARK VINA RESULT:      -6.2      3.275      5.570
REMARK  Name = 
REMARK  3 active torsions:
REMARK  status: ('A' for Active; 'I' for Inactive)
REMARK    1  A    between atoms: C_8  and  C_9
REMARK    2  A    between atoms: C_9  and  O_10
REMARK    3  A    between atoms: O_10  and  S_11
REMARK                            x       y       z     vdW  Elec       q    Type
REMARK                         _______ _______ _______ _____ _____    ______ ____
ROOT
ATOM      1  C   UNL     1      -6.919  19.958  68.851  0.00  0.00    +0.061 C 
ATOM      2  C   UNL     1      -7.325  19.857  67.598  0.00  0.00    +0.187 C 
ATOM      3  O   UNL     1      -7.099  18.702  66.956  0.00  0.00    -0.332 OA
ATOM      4  C   UNL     1      -8.432  18.072  66.755  0.00  0.00    +0.179 C 
ATOM      5  C   UNL     1      -9.188  19.565  66.355  0.00  0.00    +0.177 C 
ATOM      6  C   UNL     1     -10.548  19.265  67.221  0.00  0.00    +0.177 C 
ATOM      7  O   UNL     1     -10.797  17.964  67.307  0.00  0.00    -0.328 OA
ATOM      8  C   UNL     1     -10.120  17.196  68.225  0.00  0.00    +0.247 C 
ATOM      9  O   UNL     1      -9.614  16.164  67.509  0.00  0.00    -0.310 OA
ATOM     10  C   UNL     1      -8.411  15.943  68.096  0.00  0.00    +0.190 C 
ATOM     11  O   UNL     1      -7.918  16.998  68.732  0.00  0.00    -0.329 OA
ATOM     12  C   UNL     1      -8.641  14.779  69.060  0.00  0.00    +0.061 C 
ATOM     13  C   UNL     1      -7.465  15.348  67.067  0.00  0.00    +0.061 C 
ATOM     14  C   UNL     1      -8.815  18.165  68.422  0.00  0.00    +0.201 C 
ATOM     15  O   UNL     1      -8.587  20.287  67.538  0.00  0.00    -0.332 OA
ATOM     16  C   UNL     1      -6.464  20.877  66.853  0.00  0.00    +0.061 C 
ENDROOT
BRANCH   8  17
ATOM     17  C   UNL     1     -10.730  16.944  69.522  0.00  0.00    +0.234 C 
BRANCH  17  18
ATOM     18  O   UNL     1     -11.925  16.266  69.364  0.00  0.00    -0.204 OA
BRANCH  18  19
ATOM     19  S   UNL     1     -12.276  15.189  70.580  0.00  0.00    +0.187 S 
ATOM     20  O   UNL     1     -12.392  13.822  69.940  0.00  0.00    -0.127 OA
ATOM     21  O   UNL     1     -11.273  15.201  71.688  0.00  0.00    -0.127 OA
ATOM     22  N   UNL     1     -13.831  15.574  71.254  0.00  0.00    +0.063 NA
ENDBRANCH  18  19
ENDBRANCH  17  18
ENDBRANCH   8  17
TORSDOF 3
ENDMDL
MODEL 8
REMARK VINA RESULT:      -6.1      3.036      4.932
REMARK  Name = 
REMARK  3 active torsions:
REMARK  status: ('A' for Active; 'I' for Inactive)
REMARK    1  A    between atoms: C_8  and  C_9
REMARK    2  A    between atoms: C_9  and  O_10
REMARK    3  A    between atoms: O_10  and  S_11
REMARK                            x       y       z     vdW  Elec       q    Type
REMARK                         _______ _______ _______ _____ _____    ______ ____
ROOT
ATOM      1  C   UNL     1      -8.830  15.380  66.513  0.00  0.00    +0.061 C 
ATOM      2  C   UNL     1     -10.105  15.611  66.772  0.00  0.00    +0.187 C 
ATOM      3  O   UNL     1     -10.995  15.390  65.794  0.00  0.00    -0.332 OA
ATOM      4  C   UNL     1     -11.794  14.209  66.221  0.00  0.00    +0.179 C 
ATOM      5  C   UNL     1     -11.881  14.734  67.857  0.00  0.00    +0.177 C 
ATOM      6  C   UNL     1     -11.627  13.243  68.492  0.00  0.00    +0.177 C 
ATOM      7  O   UNL     1     -12.063  12.285  67.683  0.00  0.00    -0.328 OA
ATOM      8  C   UNL     1     -11.295  11.890  66.612  0.00  0.00    +0.247 C 
ATOM      9  O   UNL     1     -12.124  11.964  65.544  0.00  0.00    -0.310 OA
ATOM     10  C   UNL     1     -11.307  12.392  64.550  0.00  0.00    +0.190 C 
ATOM     11  O   UNL     1     -10.235  13.048  64.976  0.00  0.00    -0.329 OA
ATOM     12  C   UNL     1     -10.908  11.130  63.784  0.00  0.00    +0.061 C 
ATOM     13  C   UNL     1     -12.132  13.159  63.531  0.00  0.00    +0.061 C 
ATOM     14  C   UNL     1     -10.395  13.249  66.458  0.00  0.00    +0.201 C 
ATOM     15  O   UNL     1     -10.401  15.025  67.934  0.00  0.00    -0.332 OA
ATOM     16  C   UNL     1     -10.162  17.121  66.999  0.00  0.00    +0.061 C 
ENDROOT
BRANCH   8  17
ATOM     17  C   UNL     1     -10.411  10.744  66.763  0.00  0.00    +0.234 C 
BRANCH  17  18
ATOM     18  O   UNL     1     -10.982   9.808  67.605  0.00  0.00    -0.204 OA
BRANCH  18  19
ATOM     19  S   UNL     1     -10.198   9.614  69.058  0.00  0.00    +0.187 S 
ATOM     20  O   UNL     1      -9.922   8.134  69.217  0.00  0.00    -0.127 OA
ATOM     21  O   UNL     1      -8.950  10.428  69.170  0.00  0.00    -0.127 OA
ATOM     22  N   UNL     1     -11.264  10.078  70.350  0.00  0.00    +0.063 NA
ENDBRANCH  18  19
ENDBRANCH  17  18
ENDBRANCH   8  17
TORSDOF 3
ENDMDL
MODEL 9
REMARK VINA RESULT:      -6.1      4.494      6.523
REMARK  Name = 
REMARK  3 active torsions:
REMARK  status: ('A' for Active; 'I' for Inactive)
REMARK    1  A    between atoms: C_8  and  C_9
REMARK    2  A    between atoms: C_9  and  O_10
REMARK    3  A    between atoms: O_10  and  S_11
REMARK                            x       y       z     vdW  Elec       q    Type
REMARK                         _______ _______ _______ _____ _____    ______ ____
ROOT
ATOM      1  C   UNL     1      -5.534  17.948  66.267  0.00  0.00    +0.061 C 
ATOM      2  C   UNL     1      -5.865  17.944  67.547  0.00  0.00    +0.187 C 
ATOM      3  O   UNL     1      -6.701  18.896  67.983  0.00  0.00    -0.332 OA
ATOM      4  C   UNL     1      -7.975  18.205  68.321  0.00  0.00    +0.179 C 
ATOM      5  C   UNL     1      -7.172  16.862  69.037  0.00  0.00    +0.177 C 
ATOM      6  C   UNL     1      -8.173  15.740  68.382  0.00  0.00    +0.177 C 
ATOM      7  O   UNL     1      -9.387  16.232  68.168  0.00  0.00    -0.328 OA
ATOM      8  C   UNL     1      -9.627  17.003  67.054  0.00  0.00    +0.247 C 
ATOM      9  O   UNL     1     -10.206  18.131  67.532  0.00  0.00    -0.310 OA
ATOM     10  C   UNL     1      -9.703  19.099  66.726  0.00  0.00    +0.190 C 
ATOM     11  O   UNL     1      -8.545  18.784  66.161  0.00  0.00    -0.329 OA
ATOM     12  C   UNL     1     -10.781  19.344  65.669  0.00  0.00    +0.061 C 
ATOM     13  C   UNL     1      -9.677  20.411  67.492  0.00  0.00    +0.061 C 
ATOM     14  C   UNL     1      -8.089  17.487  66.770  0.00  0.00    +0.201 C 
ATOM     15  O   UNL     1      -6.221  16.700  67.876  0.00  0.00    -0.332 OA
ATOM     16  C   UNL     1      -4.548  18.242  68.264  0.00  0.00    +0.061 C 
ENDROOT
BRANCH   8  17
ATOM     17  C   UNL     1     -10.160  16.369  65.858  0.00  0.00    +0.234 C 
BRANCH  17  18
ATOM     18  O   UNL     1     -10.928  15.271  66.201  0.00  0.00    -0.204 OA
BRANCH  18  19
ATOM     19  S   UNL     1     -11.872  14.675  64.970  0.00  0.00    +0.187 S 
ATOM     20  O   UNL     1     -11.052  13.623  64.254  0.00  0.00    -0.127 OA
ATOM     21  O   UNL     1     -13.184  14.135  65.438  0.00  0.00    -0.127 OA
ATOM     22  N   UNL     1     -12.187  15.945  63.825  0.00  0.00    +0.063 NA
ENDBRANCH  18  19
ENDBRANCH  17  18
ENDBRANCH   8  17
TORSDOF 3
ENDMDL
