MODEL 1
REMARK VINA RESULT:      -6.0      0.000      0.000
REMARK  Name = 
REMARK  4 active torsions:
REMARK  status: ('A' for Active; 'I' for Inactive)
REMARK    1  A    between atoms: C_2  and  C_3
REMARK    2  A    between atoms: C_2  and  C_7
REMARK    3  A    between atoms: C_3  and  N_4
REMARK    4  A    between atoms: C_7  and  N_8
REMARK                            x       y       z     vdW  Elec       q    Type
REMARK                         _______ _______ _______ _____ _____    ______ ____
ROOT
ATOM      1  N   UNL     1     -12.091  13.805  68.743  0.00  0.00    -0.287 N 
ATOM      2  C   UNL     1     -12.534  13.935  70.103  0.00  0.00    +0.048 A 
ATOM      3  C   UNL     1     -12.631  12.983  71.111  0.00  0.00    -0.008 A 
ATOM      4  C   UNL     1     -13.108  13.358  72.360  0.00  0.00    -0.003 A 
ATOM      5  C   UNL     1     -13.526  14.659  72.609  0.00  0.00    -0.000 A 
ATOM      6  C   UNL     1     -13.304  15.582  71.596  0.00  0.00    +0.001 A 
ATOM      7  C   UNL     1     -12.793  11.508  70.931  0.00  0.00    +0.032 C 
ATOM      8  C   UNL     1     -11.583  10.943  70.218  0.00  0.00    +0.032 C 
ATOM      9  C   UNL     1     -11.611  11.282  68.760  0.00  0.00    -0.008 A 
ATOM     10  C   UNL     1     -11.015  10.244  68.052  0.00  0.00    -0.003 A 
ATOM     11  C   UNL     1     -10.622  10.489  66.741  0.00  0.00    -0.000 A 
ATOM     12  C   UNL     1     -11.131  11.616  66.109  0.00  0.00    +0.001 A 
ATOM     13  C   UNL     1     -11.614  12.691  66.828  0.00  0.00    +0.015 A 
ATOM     14  C   UNL     1     -12.557  15.257  70.469  0.00  0.00    +0.015 A 
ATOM     15  C   UNL     1     -11.779  12.526  68.175  0.00  0.00    +0.048 A 
ENDROOT
BRANCH   1  16
ATOM     16  C   UNL     1     -11.345  14.924  68.172  0.00  0.00    +0.097 C 
BRANCH  16  18
ATOM     17  C   UNL     1      -9.692  16.389  69.052  0.00  0.00    +0.003 C 
ATOM     18  C   UNL     1      -9.816  14.778  68.747  0.00  0.00    +0.036 C 
BRANCH  18  19
ATOM     19  C   UNL     1      -9.161  14.953  67.250  0.00  0.00    +0.074 C 
BRANCH  19  20
ATOM     20  N   UNL     1      -7.986  14.125  67.331  0.00  0.00    -0.270 NA
ATOM     21  C   UNL     1      -6.767  14.845  67.567  0.00  0.00    +0.090 C 
ATOM     22  C   UNL     1      -8.152  12.977  68.184  0.00  0.00    +0.090 C 
ENDBRANCH  19  20
ENDBRANCH  18  19
ENDBRANCH  16  18
ENDBRANCH   1  16
TORSDOF 4
ENDMDL
MODEL 2
REMARK VINA RESULT:      -6.0      1.774      3.162
REMARK  Name = 
REMARK  4 active torsions:
REMARK  status: ('A' for Active; 'I' for Inactive)
REMARK    1  A    between atoms: C_2  and  C_3
REMARK    2  A    between atoms: C_2  and  C_7
REMARK    3  A    between atoms: C_3  and  N_4
REMARK    4  A    between atoms: C_7  and  N_8
REMARK                            x       y       z     vdW  Elec       q    Type
REMARK                         _______ _______ _______ _____ _____    ______ ____
ROOT
ATOM      1  N   UNL     1     -11.946  12.400  67.716  0.00  0.00    -0.287 N 
ATOM      2  C   UNL     1     -11.743  11.437  68.762  0.00  0.00    +0.048 A 
ATOM      3  C   UNL     1     -11.047  10.233  68.752  0.00  0.00    -0.008 A 
ATOM      4  C   UNL     1     -11.006   9.460  69.905  0.00  0.00    -0.003 A 
ATOM      5  C   UNL     1     -11.678   9.849  71.057  0.00  0.00    -0.000 A 
ATOM      6  C   UNL     1     -12.263  11.108  71.033  0.00  0.00    +0.001 A 
ATOM      7  C   UNL     1     -10.764   9.377  67.560  0.00  0.00    +0.032 C 
ATOM      8  C   UNL     1      -9.895  10.136  66.580  0.00  0.00    +0.032 C 
ATOM      9  C   UNL     1     -10.689  11.170  65.844  0.00  0.00    -0.008 A 
ATOM     10  C   UNL     1     -10.165  11.303  64.562  0.00  0.00    -0.003 A 
ATOM     11  C   UNL     1     -10.514  12.431  63.829  0.00  0.00    -0.000 A 
ATOM     12  C   UNL     1     -11.599  13.180  64.263  0.00  0.00    +0.001 A 
ATOM     13  C   UNL     1     -12.037  13.125  65.571  0.00  0.00    +0.015 A 
ATOM     14  C   UNL     1     -12.044  11.991  69.981  0.00  0.00    +0.015 A 
ATOM     15  C   UNL     1     -11.512  12.151  66.373  0.00  0.00    +0.048 A 
ENDROOT
BRANCH   1  16
ATOM     16  C   UNL     1     -11.965  13.810  68.099  0.00  0.00    +0.097 C 
BRANCH  16  18
ATOM     17  C   UNL     1     -10.813  15.152  69.688  0.00  0.00    +0.003 C 
ATOM     18  C   UNL     1     -10.403  14.207  68.406  0.00  0.00    +0.036 C 
BRANCH  18  19
ATOM     19  C   UNL     1     -10.452  15.486  67.375  0.00  0.00    +0.074 C 
BRANCH  19  20
ATOM     20  N   UNL     1      -9.292  15.262  66.553  0.00  0.00    -0.270 NA
ATOM     21  C   UNL     1      -8.541  16.446  66.250  0.00  0.00    +0.090 C 
ATOM     22  C   UNL     1      -8.478  14.161  66.998  0.00  0.00    +0.090 C 
ENDBRANCH  19  20
ENDBRANCH  18  19
ENDBRANCH  16  18
ENDBRANCH   1  16
TORSDOF 4
ENDMDL
MODEL 3
REMARK VINA RESULT:      -5.6      1.858      4.697
REMARK  Name = 
REMARK  4 active torsions:
REMARK  status: ('A' for Active; 'I' for Inactive)
REMARK    1  A    between atoms: C_2  and  C_3
REMARK    2  A    between atoms: C_2  and  C_7
REMARK    3  A    between atoms: C_3  and  N_4
REMARK    4  A    between atoms: C_7  and  N_8
REMARK                            x       y       z     vdW  Elec       q    Type
REMARK                         _______ _______ _______ _____ _____    ______ ____
ROOT
ATOM      1  N   UNL     1      -9.767  13.343  67.748  0.00  0.00    -0.287 N 
ATOM      2  C   UNL     1     -10.651  12.751  68.712  0.00  0.00    +0.048 A 
ATOM      3  C   UNL     1     -11.593  13.341  69.548  0.00  0.00    -0.008 A 
ATOM      4  C   UNL     1     -12.328  12.544  70.416  0.00  0.00    -0.003 A 
ATOM      5  C   UNL     1     -12.113  11.173  70.491  0.00  0.00    -0.000 A 
ATOM      6  C   UNL     1     -11.237  10.635  69.557  0.00  0.00    +0.001 A 
ATOM      7  C   UNL     1     -11.588  14.752  70.040  0.00  0.00    +0.032 C 
ATOM      8  C   UNL     1     -11.716  15.703  68.869  0.00  0.00    +0.032 C 
ATOM      9  C   UNL     1     -10.429  15.799  68.110  0.00  0.00    -0.008 A 
ATOM     10  C   UNL     1     -10.313  17.085  67.594  0.00  0.00    -0.003 A 
ATOM     11  C   UNL     1      -9.385  17.300  66.583  0.00  0.00    -0.000 A 
ATOM     12  C   UNL     1      -8.412  16.331  66.374  0.00  0.00    +0.001 A 
ATOM     13  C   UNL     1      -8.591  15.027  66.789  0.00  0.00    +0.015 A 
ATOM     14  C   UNL     1     -10.738  11.397  68.507  0.00  0.00    +0.015 A 
ATOM     15  C   UNL     1      -9.656  14.765  67.605  0.00  0.00    +0.048 A 
ENDROOT
BRANCH   1  16
ATOM     16  C   UNL     1      -9.506  12.586  66.526  0.00  0.00    +0.097 C 
BRANCH  16  18
ATOM     17  C   UNL     1     -10.440  11.060  64.960  0.00  0.00    +0.003 C 
ATOM     18  C   UNL     1     -10.972  12.353  65.826  0.00  0.00    +0.036 C 
BRANCH  18  19
ATOM     19  C   UNL     1     -10.627  13.389  64.597  0.00  0.00    +0.074 C 
BRANCH  19  20
ATOM     20  N   UNL     1     -11.810  14.208  64.547  0.00  0.00    -0.270 NA
ATOM     21  C   UNL     1     -12.761  13.942  65.588  0.00  0.00    +0.090 C 
ATOM     22  C   UNL     1     -11.529  15.609  64.367  0.00  0.00    +0.090 C 
ENDBRANCH  19  20
ENDBRANCH  18  19
ENDBRANCH  16  18
ENDBRANCH   1  16
TORSDOF 4
ENDMDL
MODEL 4
REMARK VINA RESULT:      -5.6      1.562      2.314
REMARK  Name = 
REMARK  4 active torsions:
REMARK  status: ('A' for Active; 'I' for Inactive)
REMARK    1  A    between atoms: C_2  and  C_3
REMARK    2  A    between atoms: C_2  and  C_7
REMARK    3  A    between atoms: C_3  and  N_4
REMARK    4  A    between atoms: C_7  and  N_8
REMARK                            x       y       z     vdW  Elec       q    Type
REMARK                         _______ _______ _______ _____ _____    ______ ____
ROOT
ATOM      1  N   UNL     1     -11.753  12.798  69.111  0.00  0.00    -0.287 N 
ATOM      2  C   UNL     1     -12.421  13.308  70.274  0.00  0.00    +0.048 A 
ATOM      3  C   UNL     1     -12.826  12.659  71.436  0.00  0.00    -0.008 A 
ATOM      4  C   UNL     1     -13.475  13.380  72.429  0.00  0.00    -0.003 A 
ATOM      5  C   UNL     1     -13.761  14.730  72.268  0.00  0.00    -0.000 A 
ATOM      6  C   UNL     1     -13.238  15.340  71.136  0.00  0.00    +0.001 A 
ATOM      7  C   UNL     1     -13.140  11.205  71.580  0.00  0.00    +0.032 C 
ATOM      8  C   UNL     1     -11.901  10.383  71.295  0.00  0.00    +0.032 C 
ATOM      9  C   UNL     1     -11.613  10.335  69.827  0.00  0.00    -0.008 A 
ATOM     10  C   UNL     1     -11.034   9.106  69.528  0.00  0.00    -0.003 A 
ATOM     11  C   UNL     1     -10.376   8.974  68.311  0.00  0.00    -0.000 A 
ATOM     12  C   UNL     1     -10.608   9.935  67.337  0.00  0.00    +0.001 A 
ATOM     13  C   UNL     1     -11.074  11.193  67.661  0.00  0.00    +0.015 A 
ATOM     14  C   UNL     1     -12.342  14.678  70.303  0.00  0.00    +0.015 A 
ATOM     15  C   UNL     1     -11.508  11.395  68.942  0.00  0.00    +0.048 A 
ENDROOT
BRANCH   1  16
ATOM     16  C   UNL     1     -10.776  13.670  68.463  0.00  0.00    +0.097 C 
BRANCH  16  18
ATOM     17  C   UNL     1     -11.773  14.004  66.331  0.00  0.00    +0.003 C 
ATOM     18  C   UNL     1     -11.651  14.852  67.734  0.00  0.00    +0.036 C 
BRANCH  18  19
ATOM     19  C   UNL     1     -10.299  15.628  67.213  0.00  0.00    +0.074 C 
BRANCH  19  20
ATOM     20  N   UNL     1     -10.607  17.005  67.499  0.00  0.00    -0.270 NA
ATOM     21  C   UNL     1     -10.223  17.439  68.811  0.00  0.00    +0.090 C 
ATOM     22  C   UNL     1     -10.211  17.910  66.453  0.00  0.00    +0.090 C 
ENDBRANCH  19  20
ENDBRANCH  18  19
ENDBRANCH  16  18
ENDBRANCH   1  16
TORSDOF 4
ENDMDL
MODEL 5
REMARK VINA RESULT:      -5.6      1.216      4.264
REMARK  Name = 
REMARK  4 active torsions:
REMARK  status: ('A' for Active; 'I' for Inactive)
REMARK    1  A    between atoms: C_2  and  C_3
REMARK    2  A    between atoms: C_2  and  C_7
REMARK    3  A    between atoms: C_3  and  N_4
REMARK    4  A    between atoms: C_7  and  N_8
REMARK                            x       y       z     vdW  Elec       q    Type
REMARK                         _______ _______ _______ _____ _____    ______ ____
ROOT
ATOM      1  N   UNL     1     -11.287  14.286  69.352  0.00  0.00    -0.287 N 
ATOM      2  C   UNL     1     -11.271  12.978  68.760  0.00  0.00    +0.048 A 
ATOM      3  C   UNL     1     -11.810  11.779  69.213  0.00  0.00    -0.008 A 
ATOM      4  C   UNL     1     -11.647  10.628  68.454  0.00  0.00    -0.003 A 
ATOM      5  C   UNL     1     -10.924  10.645  67.268  0.00  0.00    -0.000 A 
ATOM      6  C   UNL     1     -10.505  11.890  66.819  0.00  0.00    +0.001 A 
ATOM      7  C   UNL     1     -12.094  11.411  70.634  0.00  0.00    +0.032 C 
ATOM      8  C   UNL     1     -13.138  12.346  71.206  0.00  0.00    +0.032 C 
ATOM      9  C   UNL     1     -12.551  13.689  71.508  0.00  0.00    -0.008 A 
ATOM     10  C   UNL     1     -13.204  14.221  72.615  0.00  0.00    -0.003 A 
ATOM     11  C   UNL     1     -13.068  15.582  72.861  0.00  0.00    -0.000 A 
ATOM     12  C   UNL     1     -12.048  16.263  72.210  0.00  0.00    +0.001 A 
ATOM     13  C   UNL     1     -11.487  15.780  71.045  0.00  0.00    +0.015 A 
ATOM     14  C   UNL     1     -10.929  13.063  67.434  0.00  0.00    +0.015 A 
ATOM     15  C   UNL     1     -11.810  14.506  70.669  0.00  0.00    +0.048 A 
ENDROOT
BRANCH   1  16
ATOM     16  C   UNL     1     -11.408  15.428  68.449  0.00  0.00    +0.097 C 
BRANCH  16  18
ATOM     17  C   UNL     1     -10.487  17.619  68.390  0.00  0.00    +0.003 C 
ATOM     18  C   UNL     1      -9.906  16.081  68.355  0.00  0.00    +0.036 C 
BRANCH  18  19
ATOM     19  C   UNL     1      -9.920  16.053  66.712  0.00  0.00    +0.074 C 
BRANCH  19  20
ATOM     20  N   UNL     1      -8.532  15.834  66.398  0.00  0.00    -0.270 NA
ATOM     21  C   UNL     1      -7.783  17.034  66.153  0.00  0.00    +0.090 C 
ATOM     22  C   UNL     1      -7.878  14.919  67.297  0.00  0.00    +0.090 C 
ENDBRANCH  19  20
ENDBRANCH  18  19
ENDBRANCH  16  18
ENDBRANCH   1  16
TORSDOF 4
ENDMDL
MODEL 6
REMARK VINA RESULT:      -5.5      1.747      2.740
REMARK  Name = 
REMARK  4 active torsions:
REMARK  status: ('A' for Active; 'I' for Inactive)
REMARK    1  A    between atoms: C_2  and  C_3
REMARK    2  A    between atoms: C_2  and  C_7
REMARK    3  A    between atoms: C_3  and  N_4
REMARK    4  A    between atoms: C_7  and  N_8
REMARK                            x       y       z     vdW  Elec       q    Type
REMARK                         _______ _______ _______ _____ _____    ______ ____
ROOT
ATOM      1  N   UNL     1     -11.547  12.298  69.139  0.00  0.00    -0.287 N 
ATOM      2  C   UNL     1     -12.304  12.858  70.222  0.00  0.00    +0.048 A 
ATOM      3  C   UNL     1     -12.796  12.261  71.378  0.00  0.00    -0.008 A 
ATOM      4  C   UNL     1     -13.522  13.023  72.283  0.00  0.00    -0.003 A 
ATOM      5  C   UNL     1     -13.799  14.362  72.037  0.00  0.00    -0.000 A 
ATOM      6  C   UNL     1     -13.192  14.922  70.921  0.00  0.00    +0.001 A 
ATOM      7  C   UNL     1     -13.116  10.813  71.566  0.00  0.00    +0.032 C 
ATOM      8  C   UNL     1     -11.856   9.987  71.416  0.00  0.00    +0.032 C 
ATOM      9  C   UNL     1     -11.455   9.872  69.979  0.00  0.00    -0.008 A 
ATOM     10  C   UNL     1     -10.851   8.635  69.784  0.00  0.00    -0.003 A 
ATOM     11  C   UNL     1     -10.100   8.450  68.629  0.00  0.00    -0.000 A 
ATOM     12  C   UNL     1     -10.260   9.363  67.595  0.00  0.00    +0.001 A 
ATOM     13  C   UNL     1     -10.753  10.632  67.823  0.00  0.00    +0.015 A 
ATOM     14  C   UNL     1     -12.232  14.228  70.192  0.00  0.00    +0.015 A 
ATOM     15  C   UNL     1     -11.285  10.891  69.055  0.00  0.00    +0.048 A 
ENDROOT
BRANCH   1  16
ATOM     16  C   UNL     1     -10.526  13.146  68.528  0.00  0.00    +0.097 C 
BRANCH  16  18
ATOM     17  C   UNL     1      -9.403  13.903  66.574  0.00  0.00    +0.003 C 
ATOM     18  C   UNL     1     -10.725  12.984  66.907  0.00  0.00    +0.036 C 
BRANCH  18  19
ATOM     19  C   UNL     1     -11.722  14.288  66.829  0.00  0.00    +0.074 C 
BRANCH  19  20
ATOM     20  N   UNL     1     -12.456  14.039  65.615  0.00  0.00    -0.270 NA
ATOM     21  C   UNL     1     -12.148  14.938  64.540  0.00  0.00    +0.090 C 
ATOM     22  C   UNL     1     -12.465  12.653  65.224  0.00  0.00    +0.090 C 
ENDBRANCH  19  20
ENDBRANCH  18  19
ENDBRANCH  16  18
ENDBRANCH   1  16
TORSDOF 4
ENDMDL
MODEL 7
REMARK VINA RESULT:      -5.4      1.687      4.589
REMARK  Name = 
REMARK  4 active torsions:
REMARK  status: ('A' for Active; 'I' for Inactive)
REMARK    1  A    between atoms: C_2  and  C_3
REMARK    2  A    between atoms: C_2  and  C_7
REMARK    3  A    between atoms: C_3  and  N_4
REMARK    4  A    between atoms: C_7  and  N_8
REMARK                            x       y       z     vdW  Elec       q    Type
REMARK                         _______ _______ _______ _____ _____    ______ ____
ROOT
ATOM      1  N   UNL     1      -9.997  12.430  68.327  0.00  0.00    -0.287 N 
ATOM      2  C   UNL     1     -10.783  11.599  69.193  0.00  0.00    +0.048 A 
ATOM      3  C   UNL     1     -11.854  11.920  70.020  0.00  0.00    -0.008 A 
ATOM      4  C   UNL     1     -12.449  10.925  70.783  0.00  0.00    -0.003 A 
ATOM      5  C   UNL     1     -11.972   9.620  70.764  0.00  0.00    -0.000 A 
ATOM      6  C   UNL     1     -10.972   9.344  69.841  0.00  0.00    +0.001 A 
ATOM      7  C   UNL     1     -12.146  13.258  70.619  0.00  0.00    +0.032 C 
ATOM      8  C   UNL     1     -12.414  14.264  69.519  0.00  0.00    +0.032 C 
ATOM      9  C   UNL     1     -11.144  14.671  68.841  0.00  0.00    -0.008 A 
ATOM     10  C   UNL     1     -11.264  15.995  68.433  0.00  0.00    -0.003 A 
ATOM     11  C   UNL     1     -10.358  16.472  67.492  0.00  0.00    -0.000 A 
ATOM     12  C   UNL     1      -9.206  15.732  67.263  0.00  0.00    +0.001 A 
ATOM     13  C   UNL     1      -9.141  14.386  67.567  0.00  0.00    +0.015 A 
ATOM     14  C   UNL     1     -10.593  10.276  68.881  0.00  0.00    +0.015 A 
ATOM     15  C   UNL     1     -10.164  13.854  68.301  0.00  0.00    +0.048 A 
ENDROOT
BRANCH   1  16
ATOM     16  C   UNL     1      -9.545  11.846  67.066  0.00  0.00    +0.097 C 
BRANCH  16  18
ATOM     17  C   UNL     1     -10.308  10.305  65.425  0.00  0.00    +0.003 C 
ATOM     18  C   UNL     1     -10.897  11.655  66.156  0.00  0.00    +0.036 C 
BRANCH  18  19
ATOM     19  C   UNL     1     -10.315  12.623  64.963  0.00  0.00    +0.074 C 
BRANCH  19  20
ATOM     20  N   UNL     1     -11.512  13.259  64.475  0.00  0.00    -0.270 NA
ATOM     21  C   UNL     1     -12.122  12.597  63.358  0.00  0.00    +0.090 C 
ATOM     22  C   UNL     1     -12.441  13.609  65.517  0.00  0.00    +0.090 C 
ENDBRANCH  19  20
ENDBRANCH  18  19
ENDBRANCH  16  18
ENDBRANCH   1  16
TORSDOF 4
ENDMDL
MODEL 8
REMARK VINA RESULT:      -5.4      2.789      6.641
REMARK  Name = 
REMARK  4 active torsions:
REMARK  status: ('A' for Active; 'I' for Inactive)
REMARK    1  A    between atoms: C_2  and  C_3
REMARK    2  A    between atoms: C_2  and  C_7
REMARK    3  A    between atoms: C_3  and  N_4
REMARK    4  A    between atoms: C_7  and  N_8
REMARK                            x       y       z     vdW  Elec       q    Type
REMARK                         _______ _______ _______ _____ _____    ______ ____
ROOT
ATOM      1  N   UNL     1     -11.954  10.952  70.159  0.00  0.00    -0.287 N 
ATOM      2  C   UNL     1     -11.330  10.719  68.887  0.00  0.00    +0.048 A 
ATOM      3  C   UNL     1     -10.933  11.617  67.903  0.00  0.00    -0.008 A 
ATOM      4  C   UNL     1     -10.354  11.138  66.736  0.00  0.00    -0.003 A 
ATOM      5  C   UNL     1     -10.198   9.774  66.517  0.00  0.00    -0.000 A 
ATOM      6  C   UNL     1     -10.517   8.940  67.579  0.00  0.00    +0.001 A 
ATOM      7  C   UNL     1     -11.492  12.983  67.665  0.00  0.00    +0.032 C 
ATOM      8  C   UNL     1     -11.234  13.859  68.873  0.00  0.00    +0.032 C 
ATOM      9  C   UNL     1     -12.155  13.508  69.999  0.00  0.00    -0.008 A 
ATOM     10  C   UNL     1     -12.433  14.664  70.721  0.00  0.00    -0.003 A 
ATOM     11  C   UNL     1     -12.977  14.523  71.992  0.00  0.00    -0.000 A 
ATOM     12  C   UNL     1     -13.515  13.290  72.339  0.00  0.00    +0.001 A 
ATOM     13  C   UNL     1     -13.140  12.131  71.688  0.00  0.00    +0.015 A 
ATOM     14  C   UNL     1     -10.812   9.449  68.839  0.00  0.00    +0.015 A 
ATOM     15  C   UNL     1     -12.393  12.259  70.550  0.00  0.00    +0.048 A 
ENDROOT
BRANCH   1  16
ATOM     16  C   UNL     1     -11.561  10.083  71.266  0.00  0.00    +0.097 C 
BRANCH  16  18
ATOM     17  C   UNL     1     -13.434   9.086  72.337  0.00  0.00    +0.003 C 
ATOM     18  C   UNL     1     -12.437   8.708  71.085  0.00  0.00    +0.036 C 
BRANCH  18  19
ATOM     19  C   UNL     1     -11.434   7.856  72.068  0.00  0.00    +0.074 C 
BRANCH  19  20
ATOM     20  N   UNL     1     -11.707   6.497  71.679  0.00  0.00    -0.270 NA
ATOM     21  C   UNL     1     -11.356   6.185  70.323  0.00  0.00    +0.090 C 
ATOM     22  C   UNL     1     -11.244   5.523  72.633  0.00  0.00    +0.090 C 
ENDBRANCH  19  20
ENDBRANCH  18  19
ENDBRANCH  16  18
ENDBRANCH   1  16
TORSDOF 4
ENDMDL
MODEL 9
REMARK VINA RESULT:      -5.4      1.718      4.665
REMARK  Name = 
REMARK  4 active torsions:
REMARK  status: ('A' for Active; 'I' for Inactive)
REMARK    1  A    between atoms: C_2  and  C_3
REMARK    2  A    between atoms: C_2  and  C_7
REMARK    3  A    between atoms: C_3  and  N_4
REMARK    4  A    between atoms: C_7  and  N_8
REMARK                            x       y       z     vdW  Elec       q    Type
REMARK                         _______ _______ _______ _____ _____    ______ ____
ROOT
ATOM      1  N   UNL     1     -11.662  12.811  69.038  0.00  0.00    -0.287 N 
ATOM      2  C   UNL     1     -11.307  11.431  68.865  0.00  0.00    +0.048 A 
ATOM      3  C   UNL     1     -11.542  10.333  69.685  0.00  0.00    -0.008 A 
ATOM      4  C   UNL     1     -11.081   9.082  69.297  0.00  0.00    -0.003 A 
ATOM      5  C   UNL     1     -10.357   8.913  68.124  0.00  0.00    -0.000 A 
ATOM      6  C   UNL     1     -10.248  10.027  67.302  0.00  0.00    +0.001 A 
ATOM      7  C   UNL     1     -11.760  10.355  71.163  0.00  0.00    +0.032 C 
ATOM      8  C   UNL     1     -13.018  11.136  71.483  0.00  0.00    +0.032 C 
ATOM      9  C   UNL     1     -12.789  12.608  71.338  0.00  0.00    -0.008 A 
ATOM     10  C   UNL     1     -13.581  13.274  72.267  0.00  0.00    -0.003 A 
ATOM     11  C   UNL     1     -13.792  14.636  72.087  0.00  0.00    -0.000 A 
ATOM     12  C   UNL     1     -12.958  15.314  71.209  0.00  0.00    +0.001 A 
ATOM     13  C   UNL     1     -12.266  14.653  70.214  0.00  0.00    +0.015 A 
ATOM     14  C   UNL     1     -10.965  11.191  67.558  0.00  0.00    +0.015 A 
ATOM     15  C   UNL     1     -12.254  13.286  70.254  0.00  0.00    +0.048 A 
ENDROOT
BRANCH   1  16
ATOM     16  C   UNL     1     -12.041  13.561  67.842  0.00  0.00    +0.097 C 
BRANCH  16  18
ATOM     17  C   UNL     1     -10.688  15.492  67.541  0.00  0.00    +0.003 C 
ATOM     18  C   UNL     1     -10.634  13.915  67.076  0.00  0.00    +0.036 C 
BRANCH  18  19
ATOM     19  C   UNL     1     -11.405  14.247  65.664  0.00  0.00    +0.074 C 
BRANCH  19  20
ATOM     20  N   UNL     1     -11.414  12.963  65.012  0.00  0.00    -0.270 NA
ATOM     21  C   UNL     1     -12.660  12.624  64.386  0.00  0.00    +0.090 C 
ATOM     22  C   UNL     1     -10.267  12.738  64.172  0.00  0.00    +0.090 C 
ENDBRANCH  19  20
ENDBRANCH  18  19
ENDBRANCH  16  18
ENDBRANCH   1  16
TORSDOF 4
ENDMDL
