MODEL 1
REMARK VINA RESULT:      -5.5      0.000      0.000
REMARK  Name = 
REMARK  1 active torsions:
REMARK  status: ('A' for Active; 'I' for Inactive)
REMARK    1  A    between atoms: C_4  and  C_5
REMARK                            x       y       z     vdW  Elec       q    Type
REMARK                         _______ _______ _______ _____ _____    ______ ____
ROOT
ATOM      1  C   UNL     1     -10.876  15.835  67.203  0.00  0.00    +0.026 C 
ATOM      2  C   UNL     1     -10.412  15.233  67.066  0.00  0.00    +0.140 C 
ATOM      3  S   UNL     1     -10.803  13.555  67.265  0.00  0.00    +0.005 S 
ATOM      4  O   UNL     1     -11.535  13.222  68.461  0.00  0.00    -0.171 OA
ATOM      5  O   UNL     1      -9.949  12.584  66.617  0.00  0.00    -0.171 OA
ATOM      6  C   UNL     1     -12.164  14.114  66.056  0.00  0.00    +0.215 C 
ATOM      7  N   UNL     1     -11.153  14.284  64.938  0.00  0.00    -0.252 N 
ATOM      8  C   UNL     1     -11.477  13.027  64.353  0.00  0.00    +0.231 C 
ATOM      9  O   UNL     1     -11.539  12.684  63.133  0.00  0.00    -0.275 OA
ATOM     10  C   UNL     1     -12.415  12.641  65.454  0.00  0.00    +0.130 C 
ATOM     11  C   UNL     1     -10.010  15.251  65.446  0.00  0.00    +0.201 C 
ATOM     12  C   UNL     1      -9.017  15.452  67.637  0.00  0.00    +0.026 C 
ENDROOT
BRANCH  11  13
ATOM     13  C   UNL     1     -10.903  16.605  65.162  0.00  0.00    +0.384 C 
ATOM     14  O   UNL     1     -11.558  16.440  63.945  0.00  0.00    -0.244 OA
ATOM     15  O   UNL     1     -10.362  17.671  65.439  0.00  0.00    -0.244 OA
ENDBRANCH  11  13
TORSDOF 1
ENDMDL
MODEL 2
REMARK VINA RESULT:      -5.5      1.620      3.541
REMARK  Name = 
REMARK  1 active torsions:
REMARK  status: ('A' for Active; 'I' for Inactive)
REMARK    1  A    between atoms: C_4  and  C_5
REMARK                            x       y       z     vdW  Elec       q    Type
REMARK                         _______ _______ _______ _____ _____    ______ ____
ROOT
ATOM      1  C   UNL     1     -11.003  12.494  66.242  0.00  0.00    +0.026 C 
ATOM      2  C   UNL     1     -11.044  12.997  66.827  0.00  0.00    +0.140 C 
ATOM      3  S   UNL     1      -9.738  13.928  67.487  0.00  0.00    +0.005 S 
ATOM      4  O   UNL     1      -8.494  13.223  67.662  0.00  0.00    -0.171 OA
ATOM      5  O   UNL     1     -10.075  15.066  68.313  0.00  0.00    -0.171 OA
ATOM      6  C   UNL     1      -9.689  14.461  65.659  0.00  0.00    +0.215 C 
ATOM      7  N   UNL     1     -10.996  15.218  65.806  0.00  0.00    -0.252 N 
ATOM      8  C   UNL     1     -10.339  16.473  65.946  0.00  0.00    +0.231 C 
ATOM      9  O   UNL     1     -10.673  17.623  65.523  0.00  0.00    -0.275 OA
ATOM     10  C   UNL     1      -8.969  15.871  65.955  0.00  0.00    +0.130 C 
ATOM     11  C   UNL     1     -12.083  14.223  66.378  0.00  0.00    +0.201 C 
ATOM     12  C   UNL     1     -11.852  12.444  67.994  0.00  0.00    +0.026 C 
ENDROOT
BRANCH  11  13
ATOM     13  C   UNL     1     -12.370  13.544  64.906  0.00  0.00    +0.384 C 
ATOM     14  O   UNL     1     -12.476  14.572  63.972  0.00  0.00    -0.244 OA
ATOM     15  O   UNL     1     -13.163  12.608  64.894  0.00  0.00    -0.244 OA
ENDBRANCH  11  13
TORSDOF 1
ENDMDL
MODEL 3
REMARK VINA RESULT:      -5.5      2.059      3.722
REMARK  Name = 
REMARK  1 active torsions:
REMARK  status: ('A' for Active; 'I' for Inactive)
REMARK    1  A    between atoms: C_4  and  C_5
REMARK                            x       y       z     vdW  Elec       q    Type
REMARK                         _______ _______ _______ _____ _____    ______ ____
ROOT
ATOM      1  C   UNL     1     -10.592  13.521  68.306  0.00  0.00    +0.026 C 
ATOM      2  C   UNL     1     -10.987  14.183  68.366  0.00  0.00    +0.140 C 
ATOM      3  S   UNL     1     -10.326  15.785  68.400  0.00  0.00    +0.005 S 
ATOM      4  O   UNL     1      -9.146  15.958  69.208  0.00  0.00    -0.171 OA
ATOM      5  O   UNL     1     -11.227  16.889  68.148  0.00  0.00    -0.171 OA
ATOM      6  C   UNL     1      -9.639  15.134  66.748  0.00  0.00    +0.215 C 
ATOM      7  N   UNL     1     -11.021  15.153  66.122  0.00  0.00    -0.252 N 
ATOM      8  C   UNL     1     -10.786  16.392  65.462  0.00  0.00    +0.231 C 
ATOM      9  O   UNL     1     -11.163  16.793  64.318  0.00  0.00    -0.275 OA
ATOM     10  C   UNL     1      -9.448  16.596  66.102  0.00  0.00    +0.130 C 
ATOM     11  C   UNL     1     -11.991  14.306  67.039  0.00  0.00    +0.201 C 
ATOM     12  C   UNL     1     -12.061  14.104  69.444  0.00  0.00    +0.026 C 
ENDROOT
BRANCH  11  13
ATOM     13  C   UNL     1     -11.474  12.871  66.420  0.00  0.00    +0.384 C 
ATOM     14  O   UNL     1     -11.235  13.051  65.060  0.00  0.00    -0.244 OA
ATOM     15  O   UNL     1     -12.060  11.871  66.822  0.00  0.00    -0.244 OA
ENDBRANCH  11  13
TORSDOF 1
ENDMDL
MODEL 4
REMARK VINA RESULT:      -5.5      1.751      3.388
REMARK  Name = 
REMARK  1 active torsions:
REMARK  status: ('A' for Active; 'I' for Inactive)
REMARK    1  A    between atoms: C_4  and  C_5
REMARK                            x       y       z     vdW  Elec       q    Type
REMARK                         _______ _______ _______ _____ _____    ______ ____
ROOT
ATOM      1  C   UNL     1     -10.467  13.693  64.409  0.00  0.00    +0.026 C 
ATOM      2  C   UNL     1     -11.050  13.325  64.760  0.00  0.00    +0.140 C 
ATOM      3  S   UNL     1     -10.923  12.194  66.068  0.00  0.00    +0.005 S 
ATOM      4  O   UNL     1      -9.856  11.231  65.960  0.00  0.00    -0.171 OA
ATOM      5  O   UNL     1     -12.122  11.899  66.820  0.00  0.00    -0.171 OA
ATOM      6  C   UNL     1     -10.063  13.722  66.812  0.00  0.00    +0.215 C 
ATOM      7  N   UNL     1     -11.381  14.469  66.895  0.00  0.00    -0.252 N 
ATOM      8  C   UNL     1     -11.544  14.178  68.279  0.00  0.00    +0.231 C 
ATOM      9  O   UNL     1     -12.026  14.890  69.213  0.00  0.00    -0.275 OA
ATOM     10  C   UNL     1     -10.338  13.293  68.340  0.00  0.00    +0.130 C 
ATOM     11  C   UNL     1     -12.040  14.472  65.457  0.00  0.00    +0.201 C 
ATOM     12  C   UNL     1     -12.047  12.759  63.756  0.00  0.00    +0.026 C 
ENDROOT
BRANCH  11  13
ATOM     13  C   UNL     1     -11.099  15.715  64.929  0.00  0.00    +0.384 C 
ATOM     14  O   UNL     1     -10.623  16.399  66.044  0.00  0.00    -0.244 OA
ATOM     15  O   UNL     1     -11.522  16.331  63.955  0.00  0.00    -0.244 OA
ENDBRANCH  11  13
TORSDOF 1
ENDMDL
MODEL 5
REMARK VINA RESULT:      -5.4      1.676      1.953
REMARK  Name = 
REMARK  1 active torsions:
REMARK  status: ('A' for Active; 'I' for Inactive)
REMARK    1  A    between atoms: C_4  and  C_5
REMARK                            x       y       z     vdW  Elec       q    Type
REMARK                         _______ _______ _______ _____ _____    ______ ____
ROOT
ATOM      1  C   UNL     1     -10.563  16.583  66.474  0.00  0.00    +0.026 C 
ATOM      2  C   UNL     1     -10.050  16.012  66.558  0.00  0.00    +0.140 C 
ATOM      3  S   UNL     1      -9.893  14.952  67.922  0.00  0.00    +0.005 S 
ATOM      4  O   UNL     1      -9.999  15.577  69.215  0.00  0.00    -0.171 OA
ATOM      5  O   UNL     1      -9.136  13.732  67.742  0.00  0.00    -0.171 OA
ATOM      6  C   UNL     1     -11.708  14.654  67.426  0.00  0.00    +0.215 C 
ATOM      7  N   UNL     1     -11.283  13.938  66.157  0.00  0.00    -0.252 N 
ATOM      8  C   UNL     1     -11.473  12.650  66.732  0.00  0.00    +0.231 C 
ATOM      9  O   UNL     1     -11.910  11.578  66.210  0.00  0.00    -0.275 OA
ATOM     10  C   UNL     1     -11.785  13.190  68.093  0.00  0.00    +0.130 C 
ATOM     11  C   UNL     1     -10.320  14.896  65.347  0.00  0.00    +0.201 C 
ATOM     12  C   UNL     1      -8.649  16.444  66.146  0.00  0.00    +0.026 C 
ENDROOT
BRANCH  11  13
ATOM     13  C   UNL     1     -11.566  15.768  64.718  0.00  0.00    +0.384 C 
ATOM     14  O   UNL     1     -12.503  14.872  64.208  0.00  0.00    -0.244 OA
ATOM     15  O   UNL     1     -11.252  16.769  64.082  0.00  0.00    -0.244 OA
ENDBRANCH  11  13
TORSDOF 1
ENDMDL
MODEL 6
REMARK VINA RESULT:      -5.3      1.742      2.428
REMARK  Name = 
REMARK  1 active torsions:
REMARK  status: ('A' for Active; 'I' for Inactive)
REMARK    1  A    between atoms: C_4  and  C_5
REMARK                            x       y       z     vdW  Elec       q    Type
REMARK                         _______ _______ _______ _____ _____    ______ ____
ROOT
ATOM      1  C   UNL     1     -11.718  14.481  66.356  0.00  0.00    +0.026 C 
ATOM      2  C   UNL     1     -10.965  14.318  66.298  0.00  0.00    +0.140 C 
ATOM      3  S   UNL     1     -10.084  13.148  67.226  0.00  0.00    +0.005 S 
ATOM      4  O   UNL     1     -10.388  13.109  68.634  0.00  0.00    -0.171 OA
ATOM      5  O   UNL     1      -8.791  12.730  66.730  0.00  0.00    -0.171 OA
ATOM      6  C   UNL     1     -11.444  12.062  66.452  0.00  0.00    +0.215 C 
ATOM      7  N   UNL     1     -10.827  12.207  65.074  0.00  0.00    -0.252 N 
ATOM      8  C   UNL     1     -10.184  10.938  65.148  0.00  0.00    +0.231 C 
ATOM      9  O   UNL     1      -9.983  10.069  64.244  0.00  0.00    -0.275 OA
ATOM     10  C   UNL     1     -10.599  10.696  66.565  0.00  0.00    +0.130 C 
ATOM     11  C   UNL     1     -10.678  13.748  64.756  0.00  0.00    +0.201 C 
ATOM     12  C   UNL     1     -10.116  15.581  66.224  0.00  0.00    +0.026 C 
ENDROOT
BRANCH  11  13
ATOM     13  C   UNL     1     -12.258  13.906  64.323  0.00  0.00    +0.384 C 
ATOM     14  O   UNL     1     -12.622  12.770  63.604  0.00  0.00    -0.244 OA
ATOM     15  O   UNL     1     -12.600  15.020  63.941  0.00  0.00    -0.244 OA
ENDBRANCH  11  13
TORSDOF 1
ENDMDL
MODEL 7
REMARK VINA RESULT:      -5.2      1.837      2.779
REMARK  Name = 
REMARK  1 active torsions:
REMARK  status: ('A' for Active; 'I' for Inactive)
REMARK    1  A    between atoms: C_4  and  C_5
REMARK                            x       y       z     vdW  Elec       q    Type
REMARK                         _______ _______ _______ _____ _____    ______ ____
ROOT
ATOM      1  C   UNL     1     -10.914  13.571  68.389  0.00  0.00    +0.026 C 
ATOM      2  C   UNL     1     -10.459  13.484  67.772  0.00  0.00    +0.140 C 
ATOM      3  S   UNL     1     -10.928  12.888  66.212  0.00  0.00    +0.005 S 
ATOM      4  O   UNL     1     -11.804  11.744  66.218  0.00  0.00    -0.171 OA
ATOM      5  O   UNL     1     -10.040  13.144  65.100  0.00  0.00    -0.171 OA
ATOM      6  C   UNL     1     -12.122  14.358  66.424  0.00  0.00    +0.215 C 
ATOM      7  N   UNL     1     -10.983  15.351  66.282  0.00  0.00    -0.252 N 
ATOM      8  C   UNL     1     -11.281  15.609  64.914  0.00  0.00    +0.231 C 
ATOM      9  O   UNL     1     -11.215  16.691  64.253  0.00  0.00    -0.275 OA
ATOM     10  C   UNL     1     -12.352  14.566  64.845  0.00  0.00    +0.130 C 
ATOM     11  C   UNL     1      -9.873  14.989  67.348  0.00  0.00    +0.201 C 
ATOM     12  C   UNL     1      -9.132  12.830  68.135  0.00  0.00    +0.026 C 
ENDROOT
BRANCH  11  13
ATOM     13  C   UNL     1     -10.680  15.731  68.576  0.00  0.00    +0.384 C 
ATOM     14  O   UNL     1     -11.221  16.915  68.081  0.00  0.00    -0.244 OA
ATOM     15  O   UNL     1     -10.126  15.710  69.671  0.00  0.00    -0.244 OA
ENDBRANCH  11  13
TORSDOF 1
ENDMDL
MODEL 8
REMARK VINA RESULT:      -5.2      1.849      3.502
REMARK  Name = 
REMARK  1 active torsions:
REMARK  status: ('A' for Active; 'I' for Inactive)
REMARK    1  A    between atoms: C_4  and  C_5
REMARK                            x       y       z     vdW  Elec       q    Type
REMARK                         _______ _______ _______ _____ _____    ______ ____
ROOT
ATOM      1  C   UNL     1     -10.226  14.194  68.222  0.00  0.00    +0.026 C 
ATOM      2  C   UNL     1     -10.641  14.653  67.759  0.00  0.00    +0.140 C 
ATOM      3  S   UNL     1     -10.255  15.105  66.130  0.00  0.00    +0.005 S 
ATOM      4  O   UNL     1      -8.877  15.445  65.885  0.00  0.00    -0.171 OA
ATOM      5  O   UNL     1     -11.317  15.657  65.317  0.00  0.00    -0.171 OA
ATOM      6  C   UNL     1     -10.272  13.205  65.996  0.00  0.00    +0.215 C 
ATOM      7  N   UNL     1     -11.777  13.168  66.185  0.00  0.00    -0.252 N 
ATOM      8  C   UNL     1     -12.023  13.035  64.788  0.00  0.00    +0.231 C 
ATOM      9  O   UNL     1     -12.910  12.365  64.175  0.00  0.00    -0.275 OA
ATOM     10  C   UNL     1     -10.582  13.191  64.416  0.00  0.00    +0.130 C 
ATOM     11  C   UNL     1     -12.128  13.934  67.522  0.00  0.00    +0.201 C 
ATOM     12  C   UNL     1     -11.119  15.905  68.484  0.00  0.00    +0.026 C 
ENDROOT
BRANCH  11  13
ATOM     13  C   UNL     1     -11.741  12.646  68.470  0.00  0.00    +0.384 C 
ATOM     14  O   UNL     1     -12.089  11.486  67.782  0.00  0.00    -0.244 OA
ATOM     15  O   UNL     1     -12.000  12.762  69.664  0.00  0.00    -0.244 OA
ENDBRANCH  11  13
TORSDOF 1
ENDMDL
MODEL 9
REMARK VINA RESULT:      -5.0      1.917      3.605
REMARK  Name = 
REMARK  1 active torsions:
REMARK  status: ('A' for Active; 'I' for Inactive)
REMARK    1  A    between atoms: C_4  and  C_5
REMARK                            x       y       z     vdW  Elec       q    Type
REMARK                         _______ _______ _______ _____ _____    ______ ____
ROOT
ATOM      1  C   UNL     1      -9.467  16.050  68.475  0.00  0.00    +0.026 C 
ATOM      2  C   UNL     1      -9.869  16.464  67.962  0.00  0.00    +0.140 C 
ATOM      3  S   UNL     1      -9.623  16.511  66.246  0.00  0.00    +0.005 S 
ATOM      4  O   UNL     1      -8.250  16.577  65.813  0.00  0.00    -0.171 OA
ATOM      5  O   UNL     1     -10.690  17.044  65.428  0.00  0.00    -0.171 OA
ATOM      6  C   UNL     1      -9.908  14.650  66.530  0.00  0.00    +0.215 C 
ATOM      7  N   UNL     1     -11.371  14.885  66.854  0.00  0.00    -0.252 N 
ATOM      8  C   UNL     1     -11.797  14.511  65.547  0.00  0.00    +0.231 C 
ATOM      9  O   UNL     1     -12.831  13.877  65.174  0.00  0.00    -0.275 OA
ATOM     10  C   UNL     1     -10.402  14.363  65.025  0.00  0.00    +0.130 C 
ATOM     11  C   UNL     1     -11.456  15.952  68.018  0.00  0.00    +0.201 C 
ATOM     12  C   UNL     1     -10.087  17.896  68.435  0.00  0.00    +0.026 C 
ENDROOT
BRANCH  11  13
ATOM     13  C   UNL     1     -11.135  14.838  69.186  0.00  0.00    +0.384 C 
ATOM     14  O   UNL     1     -11.804  13.663  68.856  0.00  0.00    -0.244 OA
ATOM     15  O   UNL     1     -11.141  15.255  70.340  0.00  0.00    -0.244 OA
ENDBRANCH  11  13
TORSDOF 1
ENDMDL
