MODEL 1
REMARK VINA RESULT:      -6.5      0.000      0.000
REMARK  Name = 
REMARK  6 active torsions:
REMARK  status: ('A' for Active; 'I' for Inactive)
REMARK    1  A    between atoms: C_2  and  C_4
REMARK    2  A    between atoms: C_2  and  C_6
REMARK    3  A    between atoms: C_8  and  C_9
REMARK    4  A    between atoms: C_9  and  N_10
REMARK    5  A    between atoms: C_16  and  C_17
REMARK    6  A    between atoms: C_17  and  C_20
REMARK                            x       y       z     vdW  Elec       q    Type
REMARK                         _______ _______ _______ _____ _____    ______ ____
ROOT
ATOM      1  C   UNL     1     -11.418  14.525  67.094  0.00  0.00    -0.010 A 
ATOM      2  C   UNL     1     -10.605  15.535  66.625  0.00  0.00    -0.007 A 
ATOM      3  C   UNL     1     -10.222  16.602  67.429  0.00  0.00    -0.010 A 
ATOM      4  C   UNL     1     -10.899  16.753  68.629  0.00  0.00    -0.006 A 
ATOM      5  C   UNL     1     -11.685  15.748  69.180  0.00  0.00    +0.002 A 
ATOM      6  C   UNL     1     -12.062  14.748  68.301  0.00  0.00    -0.006 A 
ENDROOT
BRANCH   1   8
ATOM      7  C   UNL     1      -9.854  12.958  66.019  0.00  0.00    +0.020 C 
ATOM      8  C   UNL     1     -11.278  13.148  66.525  0.00  0.00    +0.098 C 
ATOM      9  C   UNL     1     -11.481  12.105  67.610  0.00  0.00    +0.020 C 
BRANCH   8  10
ATOM     10  C   UNL     1     -12.234  12.894  65.469  0.00  0.00    +0.075 C 
ATOM     11  N   UNL     1     -13.057  12.649  64.715  0.00  0.00    -0.196 NA
ENDBRANCH   8  10
ENDBRANCH   1   8
BRANCH   3  12
ATOM     12  C   UNL     1      -8.950  17.342  67.140  0.00  0.00    +0.098 C 
ATOM     13  C   UNL     1      -8.227  17.615  68.456  0.00  0.00    +0.020 C 
ATOM     14  C   UNL     1      -8.050  16.593  66.206  0.00  0.00    +0.020 C 
BRANCH  12  15
ATOM     15  C   UNL     1      -9.361  18.651  66.608  0.00  0.00    +0.075 C 
ATOM     16  N   UNL     1      -9.728  19.628  66.102  0.00  0.00    -0.196 NA
ENDBRANCH  12  15
ENDBRANCH   3  12
BRANCH   5  17
ATOM     17  C   UNL     1     -11.692  15.616  70.647  0.00  0.00    +0.156 C 
BRANCH  17  18
ATOM     18  N   UNL     1     -12.812  14.883  71.170  0.00  0.00    -0.226 N 
ATOM     19  N   UNL     1     -14.006  15.465  71.282  0.00  0.00    -0.145 NA
ATOM     20  C   UNL     1     -14.827  14.656  71.952  0.00  0.00    +0.221 A 
ATOM     21  N   UNL     1     -14.054  13.671  72.427  0.00  0.00    -0.201 NA
ATOM     22  C   UNL     1     -12.925  13.659  71.682  0.00  0.00    +0.198 A 
ENDBRANCH  17  18
ENDBRANCH   5  17
TORSDOF 6
ENDMDL
MODEL 2
REMARK VINA RESULT:      -6.4      1.198      5.893
REMARK  Name = 
REMARK  6 active torsions:
REMARK  status: ('A' for Active; 'I' for Inactive)
REMARK    1  A    between atoms: C_2  and  C_4
REMARK    2  A    between atoms: C_2  and  C_6
REMARK    3  A    between atoms: C_8  and  C_9
REMARK    4  A    between atoms: C_9  and  N_10
REMARK    5  A    between atoms: C_16  and  C_17
REMARK    6  A    between atoms: C_17  and  C_20
REMARK                            x       y       z     vdW  Elec       q    Type
REMARK                         _______ _______ _______ _____ _____    ______ ____
ROOT
ATOM      1  C   UNL     1     -12.282  14.883  69.455  0.00  0.00    -0.010 A 
ATOM      2  C   UNL     1     -12.331  13.862  68.531  0.00  0.00    -0.007 A 
ATOM      3  C   UNL     1     -11.580  13.893  67.362  0.00  0.00    -0.010 A 
ATOM      4  C   UNL     1     -10.989  15.103  67.033  0.00  0.00    -0.006 A 
ATOM      5  C   UNL     1     -10.858  16.147  67.941  0.00  0.00    +0.002 A 
ATOM      6  C   UNL     1     -11.675  16.063  69.054  0.00  0.00    -0.006 A 
ENDROOT
BRANCH   1   8
ATOM      7  C   UNL     1     -12.469  13.065  71.105  0.00  0.00    +0.020 C 
ATOM      8  C   UNL     1     -12.512  14.574  70.902  0.00  0.00    +0.098 C 
ATOM      9  C   UNL     1     -11.387  15.144  71.749  0.00  0.00    +0.020 C 
BRANCH   8  10
ATOM     10  C   UNL     1     -13.762  15.121  71.385  0.00  0.00    +0.075 C 
ATOM     11  N   UNL     1     -14.687  15.606  71.846  0.00  0.00    -0.196 NA
ENDBRANCH   8  10
ENDBRANCH   1   8
BRANCH   3  12
ATOM     12  C   UNL     1     -11.194  12.614  66.682  0.00  0.00    +0.098 C 
ATOM     13  C   UNL     1      -9.778  12.753  66.132  0.00  0.00    +0.020 C 
ATOM     14  C   UNL     1     -11.275  11.431  67.598  0.00  0.00    +0.020 C 
BRANCH  12  15
ATOM     15  C   UNL     1     -12.086  12.495  65.517  0.00  0.00    +0.075 C 
ATOM     16  N   UNL     1     -12.870  12.445  64.664  0.00  0.00    -0.196 NA
ENDBRANCH  12  15
ENDBRANCH   3  12
BRANCH   5  17
ATOM     17  C   UNL     1      -9.641  16.972  67.858  0.00  0.00    +0.156 C 
BRANCH  17  18
ATOM     18  N   UNL     1      -9.873  18.329  67.445  0.00  0.00    -0.226 N 
ATOM     19  N   UNL     1     -10.094  18.615  66.162  0.00  0.00    -0.145 NA
ATOM     20  C   UNL     1     -10.099  19.938  66.002  0.00  0.00    +0.221 A 
ATOM     21  N   UNL     1      -9.668  20.443  67.165  0.00  0.00    -0.201 NA
ATOM     22  C   UNL     1      -9.847  19.486  68.104  0.00  0.00    +0.198 A 
ENDBRANCH  17  18
ENDBRANCH   5  17
TORSDOF 6
ENDMDL
MODEL 3
REMARK VINA RESULT:      -6.2      1.492      4.196
REMARK  Name = 
REMARK  6 active torsions:
REMARK  status: ('A' for Active; 'I' for Inactive)
REMARK    1  A    between atoms: C_2  and  C_4
REMARK    2  A    between atoms: C_2  and  C_6
REMARK    3  A    between atoms: C_8  and  C_9
REMARK    4  A    between atoms: C_9  and  N_10
REMARK    5  A    between atoms: C_16  and  C_17
REMARK    6  A    between atoms: C_17  and  C_20
REMARK                            x       y       z     vdW  Elec       q    Type
REMARK                         _______ _______ _______ _____ _____    ______ ____
ROOT
ATOM      1  C   UNL     1     -10.123  15.824  67.459  0.00  0.00    -0.010 A 
ATOM      2  C   UNL     1      -9.976  14.532  67.001  0.00  0.00    -0.007 A 
ATOM      3  C   UNL     1     -10.701  13.476  67.539  0.00  0.00    -0.010 A 
ATOM      4  C   UNL     1     -11.376  13.722  68.724  0.00  0.00    -0.006 A 
ATOM      5  C   UNL     1     -11.607  15.005  69.205  0.00  0.00    +0.002 A 
ATOM      6  C   UNL     1     -10.810  15.992  68.652  0.00  0.00    -0.006 A 
ENDROOT
BRANCH   1   8
ATOM      7  C   UNL     1     -10.333  18.263  67.191  0.00  0.00    +0.020 C 
ATOM      8  C   UNL     1      -9.903  16.966  66.517  0.00  0.00    +0.098 C 
ATOM      9  C   UNL     1      -8.423  17.122  66.212  0.00  0.00    +0.020 C 
BRANCH   8  10
ATOM     10  C   UNL     1     -10.605  16.783  65.264  0.00  0.00    +0.075 C 
ATOM     11  N   UNL     1     -11.247  16.693  64.324  0.00  0.00    -0.196 NA
ENDBRANCH   8  10
ENDBRANCH   1   8
BRANCH   3  12
ATOM     12  C   UNL     1     -10.973  12.254  66.713  0.00  0.00    +0.098 C 
ATOM     13  C   UNL     1      -9.732  11.930  65.886  0.00  0.00    +0.020 C 
ATOM     14  C   UNL     1     -11.355  11.070  67.550  0.00  0.00    +0.020 C 
BRANCH  12  15
ATOM     15  C   UNL     1     -12.024  12.640  65.759  0.00  0.00    +0.075 C 
ATOM     16  N   UNL     1     -12.895  12.843  65.021  0.00  0.00    -0.196 NA
ENDBRANCH  12  15
ENDBRANCH   3  12
BRANCH   5  17
ATOM     17  C   UNL     1     -12.881  15.253  69.900  0.00  0.00    +0.156 C 
BRANCH  17  18
ATOM     18  N   UNL     1     -12.760  15.389  71.326  0.00  0.00    -0.226 N 
ATOM     19  N   UNL     1     -13.823  15.709  72.065  0.00  0.00    -0.145 NA
ATOM     20  C   UNL     1     -13.430  15.954  73.315  0.00  0.00    +0.221 A 
ATOM     21  N   UNL     1     -12.092  15.984  73.273  0.00  0.00    -0.201 NA
ATOM     22  C   UNL     1     -11.716  15.330  72.150  0.00  0.00    +0.198 A 
ENDBRANCH  17  18
ENDBRANCH   5  17
TORSDOF 6
ENDMDL
MODEL 4
REMARK VINA RESULT:      -6.2      1.461      1.761
REMARK  Name = 
REMARK  6 active torsions:
REMARK  status: ('A' for Active; 'I' for Inactive)
REMARK    1  A    between atoms: C_2  and  C_4
REMARK    2  A    between atoms: C_2  and  C_6
REMARK    3  A    between atoms: C_8  and  C_9
REMARK    4  A    between atoms: C_9  and  N_10
REMARK    5  A    between atoms: C_16  and  C_17
REMARK    6  A    between atoms: C_17  and  C_20
REMARK                            x       y       z     vdW  Elec       q    Type
REMARK                         _______ _______ _______ _____ _____    ______ ____
ROOT
ATOM      1  C   UNL     1     -11.203  15.169  67.095  0.00  0.00    -0.010 A 
ATOM      2  C   UNL     1     -10.290  16.181  66.890  0.00  0.00    -0.007 A 
ATOM      3  C   UNL     1      -9.802  16.954  67.937  0.00  0.00    -0.010 A 
ATOM      4  C   UNL     1     -10.463  16.847  69.151  0.00  0.00    -0.006 A 
ATOM      5  C   UNL     1     -11.348  15.815  69.436  0.00  0.00    +0.002 A 
ATOM      6  C   UNL     1     -11.823  15.126  68.334  0.00  0.00    -0.006 A 
ENDROOT
BRANCH   1   8
ATOM      7  C   UNL     1      -9.764  13.606  65.851  0.00  0.00    +0.020 C 
ATOM      8  C   UNL     1     -11.202  13.984  66.180  0.00  0.00    +0.098 C 
ATOM      9  C   UNL     1     -11.805  12.777  66.878  0.00  0.00    +0.020 C 
BRANCH   8  10
ATOM     10  C   UNL     1     -11.957  14.230  64.970  0.00  0.00    +0.075 C 
ATOM     11  N   UNL     1     -12.549  14.535  64.042  0.00  0.00    -0.196 NA
ENDBRANCH   8  10
ENDBRANCH   1   8
BRANCH   3  12
ATOM     12  C   UNL     1      -8.461  17.615  67.822  0.00  0.00    +0.098 C 
ATOM     13  C   UNL     1      -7.916  17.385  66.416  0.00  0.00    +0.020 C 
ATOM     14  C   UNL     1      -8.519  19.083  68.117  0.00  0.00    +0.020 C 
BRANCH  12  15
ATOM     15  C   UNL     1      -7.574  16.884  68.741  0.00  0.00    +0.075 C 
ATOM     16  N   UNL     1      -6.849  16.242  69.379  0.00  0.00    -0.196 NA
ENDBRANCH  12  15
ENDBRANCH   3  12
BRANCH   5  17
ATOM     17  C   UNL     1     -11.373  15.301  70.816  0.00  0.00    +0.156 C 
BRANCH  17  18
ATOM     18  N   UNL     1     -12.645  14.778  71.231  0.00  0.00    -0.226 N 
ATOM     19  N   UNL     1     -13.716  15.571  71.279  0.00  0.00    -0.145 NA
ATOM     20  C   UNL     1     -14.721  14.915  71.859  0.00  0.00    +0.221 A 
ATOM     21  N   UNL     1     -14.183  13.792  72.352  0.00  0.00    -0.201 NA
ATOM     22  C   UNL     1     -13.022  13.586  71.688  0.00  0.00    +0.198 A 
ENDBRANCH  17  18
ENDBRANCH   5  17
TORSDOF 6
ENDMDL
MODEL 5
REMARK VINA RESULT:      -6.2      1.687      4.334
REMARK  Name = 
REMARK  6 active torsions:
REMARK  status: ('A' for Active; 'I' for Inactive)
REMARK    1  A    between atoms: C_2  and  C_4
REMARK    2  A    between atoms: C_2  and  C_6
REMARK    3  A    between atoms: C_8  and  C_9
REMARK    4  A    between atoms: C_9  and  N_10
REMARK    5  A    between atoms: C_16  and  C_17
REMARK    6  A    between atoms: C_17  and  C_20
REMARK                            x       y       z     vdW  Elec       q    Type
REMARK                         _______ _______ _______ _____ _____    ______ ____
ROOT
ATOM      1  C   UNL     1      -9.876  17.071  67.881  0.00  0.00    -0.010 A 
ATOM      2  C   UNL     1      -9.934  16.165  66.844  0.00  0.00    -0.007 A 
ATOM      3  C   UNL     1     -10.812  15.088  66.857  0.00  0.00    -0.010 A 
ATOM      4  C   UNL     1     -11.434  14.806  68.063  0.00  0.00    -0.006 A 
ATOM      5  C   UNL     1     -11.460  15.705  69.123  0.00  0.00    +0.002 A 
ATOM      6  C   UNL     1     -10.523  16.720  69.056  0.00  0.00    -0.006 A 
ENDROOT
BRANCH   1   8
ATOM      7  C   UNL     1     -10.714  19.265  67.143  0.00  0.00    +0.020 C 
ATOM      8  C   UNL     1      -9.485  18.487  67.597  0.00  0.00    +0.098 C 
ATOM      9  C   UNL     1      -9.003  19.167  68.867  0.00  0.00    +0.020 C 
BRANCH   8  10
ATOM     10  C   UNL     1      -8.432  18.575  66.609  0.00  0.00    +0.075 C 
ATOM     11  N   UNL     1      -7.671  18.709  65.768  0.00  0.00    -0.196 NA
ENDBRANCH   8  10
ENDBRANCH   1   8
BRANCH   3  12
ATOM     12  C   UNL     1     -11.274  14.479  65.567  0.00  0.00    +0.098 C 
ATOM     13  C   UNL     1     -10.159  13.600  65.008  0.00  0.00    +0.020 C 
ATOM     14  C   UNL     1     -12.528  13.674  65.730  0.00  0.00    +0.020 C 
BRANCH  12  15
ATOM     15  C   UNL     1     -11.435  15.601  64.629  0.00  0.00    +0.075 C 
ATOM     16  N   UNL     1     -11.664  16.447  63.869  0.00  0.00    -0.196 NA
ENDBRANCH  12  15
ENDBRANCH   3  12
BRANCH   5  17
ATOM     17  C   UNL     1     -12.677  15.745  69.951  0.00  0.00    +0.156 C 
BRANCH  17  18
ATOM     18  N   UNL     1     -12.443  15.557  71.357  0.00  0.00    -0.226 N 
ATOM     19  N   UNL     1     -12.889  14.462  71.974  0.00  0.00    -0.145 NA
ATOM     20  C   UNL     1     -12.714  14.599  73.289  0.00  0.00    +0.221 A 
ATOM     21  N   UNL     1     -12.352  15.875  73.474  0.00  0.00    -0.201 NA
ATOM     22  C   UNL     1     -11.890  16.332  72.288  0.00  0.00    +0.198 A 
ENDBRANCH  17  18
ENDBRANCH   5  17
TORSDOF 6
ENDMDL
MODEL 6
REMARK VINA RESULT:      -6.1      2.333      3.757
REMARK  Name = 
REMARK  6 active torsions:
REMARK  status: ('A' for Active; 'I' for Inactive)
REMARK    1  A    between atoms: C_2  and  C_4
REMARK    2  A    between atoms: C_2  and  C_6
REMARK    3  A    between atoms: C_8  and  C_9
REMARK    4  A    between atoms: C_9  and  N_10
REMARK    5  A    between atoms: C_16  and  C_17
REMARK    6  A    between atoms: C_17  and  C_20
REMARK                            x       y       z     vdW  Elec       q    Type
REMARK                         _______ _______ _______ _____ _____    ______ ____
ROOT
ATOM      1  C   UNL     1     -11.421  11.760  68.533  0.00  0.00    -0.010 A 
ATOM      2  C   UNL     1     -11.380  12.110  67.200  0.00  0.00    -0.007 A 
ATOM      3  C   UNL     1     -11.444  13.436  66.787  0.00  0.00    -0.010 A 
ATOM      4  C   UNL     1     -11.820  14.368  67.741  0.00  0.00    -0.006 A 
ATOM      5  C   UNL     1     -11.824  14.090  69.103  0.00  0.00    +0.002 A 
ATOM      6  C   UNL     1     -11.805  12.746  69.428  0.00  0.00    -0.006 A 
ENDROOT
BRANCH   1   8
ATOM      7  C   UNL     1     -10.891   9.429  67.944  0.00  0.00    +0.020 C 
ATOM      8  C   UNL     1     -10.712  10.523  68.989  0.00  0.00    +0.098 C 
ATOM      9  C   UNL     1      -9.217  10.776  69.081  0.00  0.00    +0.020 C 
BRANCH   8  10
ATOM     10  C   UNL     1     -11.175  10.074  70.284  0.00  0.00    +0.075 C 
ATOM     11  N   UNL     1     -11.455   9.644  71.305  0.00  0.00    -0.196 NA
ENDBRANCH   8  10
ENDBRANCH   1   8
BRANCH   3  12
ATOM     12  C   UNL     1     -10.844  13.844  65.475  0.00  0.00    +0.098 C 
ATOM     13  C   UNL     1      -9.781  14.908  65.727  0.00  0.00    +0.020 C 
ATOM     14  C   UNL     1     -10.246  12.687  64.733  0.00  0.00    +0.020 C 
BRANCH  12  15
ATOM     15  C   UNL     1     -11.927  14.502  64.727  0.00  0.00    +0.075 C 
ATOM     16  N   UNL     1     -12.738  14.975  64.046  0.00  0.00    -0.196 NA
ENDBRANCH  12  15
ENDBRANCH   3  12
BRANCH   5  17
ATOM     17  C   UNL     1     -11.441  15.177  70.020  0.00  0.00    +0.156 C 
BRANCH  17  18
ATOM     18  N   UNL     1     -12.244  15.257  71.209  0.00  0.00    -0.226 N 
ATOM     19  N   UNL     1     -13.564  15.426  71.122  0.00  0.00    -0.145 NA
ATOM     20  C   UNL     1     -14.058  15.652  72.339  0.00  0.00    +0.221 A 
ATOM     21  N   UNL     1     -12.995  15.828  73.134  0.00  0.00    -0.201 NA
ATOM     22  C   UNL     1     -11.934  15.273  72.504  0.00  0.00    +0.198 A 
ENDBRANCH  17  18
ENDBRANCH   5  17
TORSDOF 6
ENDMDL
MODEL 7
REMARK VINA RESULT:      -6.1      2.564      4.143
REMARK  Name = 
REMARK  6 active torsions:
REMARK  status: ('A' for Active; 'I' for Inactive)
REMARK    1  A    between atoms: C_2  and  C_4
REMARK    2  A    between atoms: C_2  and  C_6
REMARK    3  A    between atoms: C_8  and  C_9
REMARK    4  A    between atoms: C_9  and  N_10
REMARK    5  A    between atoms: C_16  and  C_17
REMARK    6  A    between atoms: C_17  and  C_20
REMARK                            x       y       z     vdW  Elec       q    Type
REMARK                         _______ _______ _______ _____ _____    ______ ____
ROOT
ATOM      1  C   UNL     1     -11.721  12.722  66.648  0.00  0.00    -0.010 A 
ATOM      2  C   UNL     1     -11.856  13.952  67.257  0.00  0.00    -0.007 A 
ATOM      3  C   UNL     1     -11.753  14.104  68.635  0.00  0.00    -0.010 A 
ATOM      4  C   UNL     1     -11.779  12.945  69.393  0.00  0.00    -0.006 A 
ATOM      5  C   UNL     1     -11.589  11.682  68.843  0.00  0.00    +0.002 A 
ATOM      6  C   UNL     1     -11.755  11.608  67.472  0.00  0.00    -0.006 A 
ENDROOT
BRANCH   1   8
ATOM      7  C   UNL     1     -10.416  13.933  64.948  0.00  0.00    +0.020 C 
ATOM      8  C   UNL     1     -11.176  12.649  65.256  0.00  0.00    +0.098 C 
ATOM      9  C   UNL     1     -10.163  11.523  65.144  0.00  0.00    +0.020 C 
BRANCH   8  10
ATOM     10  C   UNL     1     -12.215  12.422  64.274  0.00  0.00    +0.075 C 
ATOM     11  N   UNL     1     -13.013  12.131  63.511  0.00  0.00    -0.196 NA
ENDBRANCH   8  10
ENDBRANCH   1   8
BRANCH   3  12
ATOM     12  C   UNL     1     -11.334  15.421  69.216  0.00  0.00    +0.098 C 
ATOM     13  C   UNL     1      -9.965  15.259  69.871  0.00  0.00    +0.020 C 
ATOM     14  C   UNL     1     -11.285  16.511  68.190  0.00  0.00    +0.020 C 
BRANCH  12  15
ATOM     15  C   UNL     1     -12.288  15.701  70.301  0.00  0.00    +0.075 C 
ATOM     16  N   UNL     1     -13.050  15.812  71.167  0.00  0.00    -0.196 NA
ENDBRANCH  12  15
ENDBRANCH   3  12
BRANCH   5  17
ATOM     17  C   UNL     1     -10.860  10.690  69.651  0.00  0.00    +0.156 C 
BRANCH  17  18
ATOM     18  N   UNL     1     -11.654  10.056  70.668  0.00  0.00    -0.226 N 
ATOM     19  N   UNL     1     -11.108   9.154  71.485  0.00  0.00    -0.145 NA
ATOM     20  C   UNL     1     -12.069   8.581  72.209  0.00  0.00    +0.221 A 
ATOM     21  N   UNL     1     -13.223   8.995  71.670  0.00  0.00    -0.201 NA
ATOM     22  C   UNL     1     -12.950  10.117  70.965  0.00  0.00    +0.198 A 
ENDBRANCH  17  18
ENDBRANCH   5  17
TORSDOF 6
ENDMDL
MODEL 8
REMARK VINA RESULT:      -6.1      1.683      6.100
REMARK  Name = 
REMARK  6 active torsions:
REMARK  status: ('A' for Active; 'I' for Inactive)
REMARK    1  A    between atoms: C_2  and  C_4
REMARK    2  A    between atoms: C_2  and  C_6
REMARK    3  A    between atoms: C_8  and  C_9
REMARK    4  A    between atoms: C_9  and  N_10
REMARK    5  A    between atoms: C_16  and  C_17
REMARK    6  A    between atoms: C_17  and  C_20
REMARK                            x       y       z     vdW  Elec       q    Type
REMARK                         _______ _______ _______ _____ _____    ______ ____
ROOT
ATOM      1  C   UNL     1     -12.734  14.771  70.318  0.00  0.00    -0.010 A 
ATOM      2  C   UNL     1     -12.481  13.620  69.603  0.00  0.00    -0.007 A 
ATOM      3  C   UNL     1     -11.453  13.545  68.671  0.00  0.00    -0.010 A 
ATOM      4  C   UNL     1     -10.866  14.743  68.294  0.00  0.00    -0.006 A 
ATOM      5  C   UNL     1     -11.037  15.922  69.010  0.00  0.00    +0.002 A 
ATOM      6  C   UNL     1     -12.111  15.930  69.881  0.00  0.00    -0.006 A 
ENDROOT
BRANCH   1   8
ATOM      7  C   UNL     1     -14.792  15.046  71.642  0.00  0.00    +0.020 C 
ATOM      8  C   UNL     1     -13.317  14.667  71.693  0.00  0.00    +0.098 C 
ATOM      9  C   UNL     1     -13.270  13.229  72.179  0.00  0.00    +0.020 C 
BRANCH   8  10
ATOM     10  C   UNL     1     -12.610  15.491  72.649  0.00  0.00    +0.075 C 
ATOM     11  N   UNL     1     -12.102  16.231  73.355  0.00  0.00    -0.196 NA
ENDBRANCH   8  10
ENDBRANCH   1   8
BRANCH   3  12
ATOM     12  C   UNL     1     -10.830  12.221  68.342  0.00  0.00    +0.098 C 
ATOM     13  C   UNL     1      -9.317  12.394  68.258  0.00  0.00    +0.020 C 
ATOM     14  C   UNL     1     -11.171  11.163  69.346  0.00  0.00    +0.020 C 
BRANCH  12  15
ATOM     15  C   UNL     1     -11.291  11.889  66.985  0.00  0.00    +0.075 C 
ATOM     16  N   UNL     1     -11.743  11.690  65.936  0.00  0.00    -0.196 NA
ENDBRANCH  12  15
ENDBRANCH   3  12
BRANCH   5  17
ATOM     17  C   UNL     1      -9.889  16.842  69.090  0.00  0.00    +0.156 C 
BRANCH  17  18
ATOM     18  N   UNL     1      -9.780  17.749  67.981  0.00  0.00    -0.226 N 
ATOM     19  N   UNL     1     -10.766  18.606  67.711  0.00  0.00    -0.145 NA
ATOM     20  C   UNL     1     -10.519  19.206  66.547  0.00  0.00    +0.221 A 
ATOM     21  N   UNL     1      -9.481  18.547  66.015  0.00  0.00    -0.201 NA
ATOM     22  C   UNL     1      -8.862  17.898  67.028  0.00  0.00    +0.198 A 
ENDBRANCH  17  18
ENDBRANCH   5  17
TORSDOF 6
ENDMDL
MODEL 9
REMARK VINA RESULT:      -6.0      1.773      5.805
REMARK  Name = 
REMARK  6 active torsions:
REMARK  status: ('A' for Active; 'I' for Inactive)
REMARK    1  A    between atoms: C_2  and  C_4
REMARK    2  A    between atoms: C_2  and  C_6
REMARK    3  A    between atoms: C_8  and  C_9
REMARK    4  A    between atoms: C_9  and  N_10
REMARK    5  A    between atoms: C_16  and  C_17
REMARK    6  A    between atoms: C_17  and  C_20
REMARK                            x       y       z     vdW  Elec       q    Type
REMARK                         _______ _______ _______ _____ _____    ______ ____
ROOT
ATOM      1  C   UNL     1     -12.281  14.727  69.527  0.00  0.00    -0.010 A 
ATOM      2  C   UNL     1     -12.178  13.645  68.680  0.00  0.00    -0.007 A 
ATOM      3  C   UNL     1     -11.343  13.657  67.569  0.00  0.00    -0.010 A 
ATOM      4  C   UNL     1     -10.823  14.886  67.194  0.00  0.00    -0.006 A 
ATOM      5  C   UNL     1     -10.844  15.997  68.029  0.00  0.00    +0.002 A 
ATOM      6  C   UNL     1     -11.736  15.923  69.083  0.00  0.00    -0.006 A 
ENDROOT
BRANCH   1   8
ATOM      7  C   UNL     1     -12.545  13.007  71.268  0.00  0.00    +0.020 C 
ATOM      8  C   UNL     1     -12.598  14.501  70.972  0.00  0.00    +0.098 C 
ATOM      9  C   UNL     1     -11.539  15.142  71.852  0.00  0.00    +0.020 C 
BRANCH   8  10
ATOM     10  C   UNL     1     -13.885  15.050  71.340  0.00  0.00    +0.075 C 
ATOM     11  N   UNL     1     -14.847  15.582  71.650  0.00  0.00    -0.196 NA
ENDBRANCH   8  10
ENDBRANCH   1   8
BRANCH   3  12
ATOM     12  C   UNL     1     -10.808  12.370  67.016  0.00  0.00    +0.098 C 
ATOM     13  C   UNL     1     -11.295  11.217  67.888  0.00  0.00    +0.020 C 
ATOM     14  C   UNL     1     -11.217  12.144  65.592  0.00  0.00    +0.020 C 
BRANCH  12  15
ATOM     15  C   UNL     1      -9.348  12.438  67.186  0.00  0.00    +0.075 C 
ATOM     16  N   UNL     1      -8.207  12.601  67.315  0.00  0.00    -0.196 NA
ENDBRANCH  12  15
ENDBRANCH   3  12
BRANCH   5  17
ATOM     17  C   UNL     1      -9.692  16.912  67.973  0.00  0.00    +0.156 C 
BRANCH  17  18
ATOM     18  N   UNL     1     -10.015  18.245  67.543  0.00  0.00    -0.226 N 
ATOM     19  N   UNL     1     -10.337  18.483  66.271  0.00  0.00    -0.145 NA
ATOM     20  C   UNL     1     -10.415  19.800  66.078  0.00  0.00    +0.221 A 
ATOM     21  N   UNL     1      -9.928  20.357  67.194  0.00  0.00    -0.201 NA
ATOM     22  C   UNL     1      -9.998  19.421  68.168  0.00  0.00    +0.198 A 
ENDBRANCH  17  18
ENDBRANCH   5  17
TORSDOF 6
ENDMDL
