MODEL 1
REMARK VINA RESULT:      -6.2      0.000      0.000
REMARK  Name = 
REMARK  2 active torsions:
REMARK  status: ('A' for Active; 'I' for Inactive)
REMARK    1  A    between atoms: N_3  and  C_4
REMARK    2  A    between atoms: N_11  and  C_12
REMARK                            x       y       z     vdW  Elec       q    Type
REMARK                         _______ _______ _______ _____ _____    ______ ____
ROOT
ATOM      1  O   UNL     1      -9.536  16.787  68.242  0.00  0.00    -0.248 OA
ATOM      2  C   UNL     1     -10.677  17.259  67.955  0.00  0.00    +0.348 C 
ATOM      3  N   UNL     1     -11.793  16.593  68.511  0.00  0.00    -0.161 NA
ATOM      4  N   UNL     1     -10.685  18.644  67.590  0.00  0.00    -0.161 NA
ENDROOT
BRANCH   3   5
ATOM      5  C   UNL     1     -11.676  15.625  69.560  0.00  0.00    +0.076 A 
ATOM      6  C   UNL     1     -11.674  14.263  69.302  0.00  0.00    +0.029 A 
ATOM      7  C   UNL     1     -12.032  13.376  70.291  0.00  0.00    +0.069 A 
ATOM      8 CL   UNL     1     -12.083  11.667  69.931  0.00  0.00    -0.081 Cl
ATOM      9  C   UNL     1     -12.477  13.800  71.535  0.00  0.00    +0.068 A 
ATOM     10 CL   UNL     1     -13.719  12.877  72.372  0.00  0.00    -0.081 Cl
ATOM     11  C   UNL     1     -12.246  15.141  71.820  0.00  0.00    +0.014 A 
ATOM     12  C   UNL     1     -11.744  16.018  70.868  0.00  0.00    +0.018 A 
ENDBRANCH   3   5
BRANCH   4  13
ATOM     13  C   UNL     1      -9.474  19.412  67.560  0.00  0.00    +0.075 A 
ATOM     14  C   UNL     1      -8.750  19.465  66.384  0.00  0.00    +0.018 A 
ATOM     15  C   UNL     1      -7.362  19.534  66.407  0.00  0.00    +0.013 A 
ATOM     16  C   UNL     1      -6.656  19.305  67.578  0.00  0.00    +0.058 A 
ATOM     17 CL   UNL     1      -5.086  18.562  67.481  0.00  0.00    -0.082 Cl
ATOM     18  C   UNL     1      -7.359  19.468  68.752  0.00  0.00    +0.013 A 
ATOM     19  C   UNL     1      -8.747  19.450  68.740  0.00  0.00    +0.018 A 
ENDBRANCH   4  13
TORSDOF 2
ENDMDL
MODEL 2
REMARK VINA RESULT:      -6.2      6.678      7.407
REMARK  Name = 
REMARK  2 active torsions:
REMARK  status: ('A' for Active; 'I' for Inactive)
REMARK    1  A    between atoms: N_3  and  C_4
REMARK    2  A    between atoms: N_11  and  C_12
REMARK                            x       y       z     vdW  Elec       q    Type
REMARK                         _______ _______ _______ _____ _____    ______ ____
ROOT
ATOM      1  O   UNL     1     -12.128  10.714  67.912  0.00  0.00    -0.248 OA
ATOM      2  C   UNL     1     -11.036  11.276  68.226  0.00  0.00    +0.348 C 
ATOM      3  N   UNL     1     -10.650  11.191  69.583  0.00  0.00    -0.161 NA
ATOM      4  N   UNL     1     -10.104  11.434  67.149  0.00  0.00    -0.161 NA
ENDROOT
BRANCH   3   5
ATOM      5  C   UNL     1     -11.275  10.300  70.513  0.00  0.00    +0.076 A 
ATOM      6  C   UNL     1     -10.990   8.943  70.532  0.00  0.00    +0.029 A 
ATOM      7  C   UNL     1     -11.896   8.058  71.068  0.00  0.00    +0.069 A 
ATOM      8 CL   UNL     1     -11.549   6.347  71.028  0.00  0.00    -0.081 Cl
ATOM      9  C   UNL     1     -13.141   8.466  71.528  0.00  0.00    +0.068 A 
ATOM     10 CL   UNL     1     -14.530   7.406  71.327  0.00  0.00    -0.081 Cl
ATOM     11  C   UNL     1     -13.287   9.838  71.699  0.00  0.00    +0.014 A 
ATOM     12  C   UNL     1     -12.309  10.737  71.294  0.00  0.00    +0.018 A 
ENDBRANCH   3   5
BRANCH   4  13
ATOM     13  C   UNL     1     -10.416  10.980  65.825  0.00  0.00    +0.075 A 
ATOM     14  C   UNL     1      -9.755   9.872  65.329  0.00  0.00    +0.018 A 
ATOM     15  C   UNL     1      -9.440   9.777  63.979  0.00  0.00    +0.013 A 
ATOM     16  C   UNL     1      -9.552  10.876  63.142  0.00  0.00    +0.058 A 
ATOM     17 CL   UNL     1      -8.437  11.040  61.816  0.00  0.00    -0.082 Cl
ATOM     18  C   UNL     1     -10.393  11.881  63.569  0.00  0.00    +0.013 A 
ATOM     19  C   UNL     1     -10.756  11.963  64.907  0.00  0.00    +0.018 A 
ENDBRANCH   4  13
TORSDOF 2
ENDMDL
MODEL 3
REMARK VINA RESULT:      -6.2      3.163      4.219
REMARK  Name = 
REMARK  2 active torsions:
REMARK  status: ('A' for Active; 'I' for Inactive)
REMARK    1  A    between atoms: N_3  and  C_4
REMARK    2  A    between atoms: N_11  and  C_12
REMARK                            x       y       z     vdW  Elec       q    Type
REMARK                         _______ _______ _______ _____ _____    ______ ____
ROOT
ATOM      1  O   UNL     1      -9.890  13.146  68.736  0.00  0.00    -0.248 OA
ATOM      2  C   UNL     1     -10.910  13.077  67.987  0.00  0.00    +0.348 C 
ATOM      3  N   UNL     1     -11.883  12.111  68.333  0.00  0.00    -0.161 NA
ATOM      4  N   UNL     1     -11.210  14.274  67.260  0.00  0.00    -0.161 NA
ENDROOT
BRANCH   3   5
ATOM      5  C   UNL     1     -11.890  11.435  69.595  0.00  0.00    +0.076 A 
ATOM      6  C   UNL     1     -11.492  10.113  69.721  0.00  0.00    +0.029 A 
ATOM      7  C   UNL     1     -11.934   9.360  70.783  0.00  0.00    +0.069 A 
ATOM      8 CL   UNL     1     -11.472   7.679  70.892  0.00  0.00    -0.081 Cl
ATOM      9  C   UNL     1     -12.842   9.855  71.710  0.00  0.00    +0.068 A 
ATOM     10 CL   UNL     1     -14.039   8.774  72.412  0.00  0.00    -0.081 Cl
ATOM     11  C   UNL     1     -13.030  11.231  71.676  0.00  0.00    +0.014 A 
ATOM     12  C   UNL     1     -12.464  12.026  70.687  0.00  0.00    +0.018 A 
ENDBRANCH   3   5
BRANCH   4  13
ATOM     13  C   UNL     1     -10.396  15.447  67.392  0.00  0.00    +0.075 A 
ATOM     14  C   UNL     1     -10.835  16.472  68.208  0.00  0.00    +0.018 A 
ATOM     15  C   UNL     1     -10.565  17.799  67.890  0.00  0.00    +0.013 A 
ATOM     16  C   UNL     1     -10.074  18.146  66.642  0.00  0.00    +0.058 A 
ATOM     17 CL   UNL     1     -10.531  19.679  65.956  0.00  0.00    -0.082 Cl
ATOM     18  C   UNL     1      -9.447  17.143  65.935  0.00  0.00    +0.013 A 
ATOM     19  C   UNL     1      -9.668  15.813  66.270  0.00  0.00    +0.018 A 
ENDBRANCH   4  13
TORSDOF 2
ENDMDL
MODEL 4
REMARK VINA RESULT:      -6.1      4.236      8.368
REMARK  Name = 
REMARK  2 active torsions:
REMARK  status: ('A' for Active; 'I' for Inactive)
REMARK    1  A    between atoms: N_3  and  C_4
REMARK    2  A    between atoms: N_11  and  C_12
REMARK                            x       y       z     vdW  Elec       q    Type
REMARK                         _______ _______ _______ _____ _____    ______ ____
ROOT
ATOM      1  O   UNL     1     -11.451  13.262  68.706  0.00  0.00    -0.248 OA
ATOM      2  C   UNL     1     -11.838  12.384  67.878  0.00  0.00    +0.348 C 
ATOM      3  N   UNL     1     -11.602  12.658  66.512  0.00  0.00    -0.161 NA
ATOM      4  N   UNL     1     -11.951  11.059  68.410  0.00  0.00    -0.161 NA
ENDROOT
BRANCH   3   5
ATOM      5  C   UNL     1     -10.734  13.707  66.069  0.00  0.00    +0.076 A 
ATOM      6  C   UNL     1      -9.447  13.852  66.565  0.00  0.00    +0.029 A 
ATOM      7  C   UNL     1      -8.822  15.076  66.505  0.00  0.00    +0.069 A 
ATOM      8 CL   UNL     1      -7.225  15.256  67.190  0.00  0.00    -0.081 Cl
ATOM      9  C   UNL     1      -9.466  16.210  66.029  0.00  0.00    +0.068 A 
ATOM     10 CL   UNL     1      -9.114  17.774  66.754  0.00  0.00    -0.081 Cl
ATOM     11  C   UNL     1     -10.650  15.973  65.341  0.00  0.00    +0.014 A 
ATOM     12  C   UNL     1     -11.217  14.707  65.271  0.00  0.00    +0.018 A 
ENDBRANCH   3   5
BRANCH   4  13
ATOM     13  C   UNL     1     -11.643  10.780  69.783  0.00  0.00    +0.075 A 
ATOM     14  C   UNL     1     -10.477  10.097  70.076  0.00  0.00    +0.018 A 
ATOM     15  C   UNL     1     -10.423   9.213  71.148  0.00  0.00    +0.013 A 
ATOM     16  C   UNL     1     -11.579   8.804  71.793  0.00  0.00    +0.058 A 
ATOM     17 CL   UNL     1     -11.648   7.196  72.454  0.00  0.00    -0.082 Cl
ATOM     18  C   UNL     1     -12.676   9.626  71.653  0.00  0.00    +0.013 A 
ATOM     19  C   UNL     1     -12.726  10.548  70.616  0.00  0.00    +0.018 A 
ENDBRANCH   4  13
TORSDOF 2
ENDMDL
MODEL 5
REMARK VINA RESULT:      -6.1      5.350      6.430
REMARK  Name = 
REMARK  2 active torsions:
REMARK  status: ('A' for Active; 'I' for Inactive)
REMARK    1  A    between atoms: N_3  and  C_4
REMARK    2  A    between atoms: N_11  and  C_12
REMARK                            x       y       z     vdW  Elec       q    Type
REMARK                         _______ _______ _______ _____ _____    ______ ____
ROOT
ATOM      1  O   UNL     1     -12.252  11.955  67.806  0.00  0.00    -0.248 OA
ATOM      2  C   UNL     1     -11.645  12.723  68.612  0.00  0.00    +0.348 C 
ATOM      3  N   UNL     1     -11.400  12.212  69.907  0.00  0.00    -0.161 NA
ATOM      4  N   UNL     1     -10.836  13.731  67.994  0.00  0.00    -0.161 NA
ENDROOT
BRANCH   3   5
ATOM      5  C   UNL     1     -11.555  10.828  70.237  0.00  0.00    +0.076 A 
ATOM      6  C   UNL     1     -12.654  10.361  70.942  0.00  0.00    +0.029 A 
ATOM      7  C   UNL     1     -12.571   9.180  71.642  0.00  0.00    +0.069 A 
ATOM      8 CL   UNL     1     -13.945   8.639  72.575  0.00  0.00    -0.081 Cl
ATOM      9  C   UNL     1     -11.386   8.462  71.737  0.00  0.00    +0.068 A 
ATOM     10 CL   UNL     1     -11.012   7.601  73.225  0.00  0.00    -0.081 Cl
ATOM     11  C   UNL     1     -10.393   8.839  70.842  0.00  0.00    +0.014 A 
ATOM     12  C   UNL     1     -10.528   9.951  70.020  0.00  0.00    +0.018 A 
ENDBRANCH   3   5
BRANCH   4  13
ATOM     13  C   UNL     1     -10.741  13.837  66.567  0.00  0.00    +0.075 A 
ATOM     14  C   UNL     1     -11.792  14.406  65.872  0.00  0.00    +0.018 A 
ATOM     15  C   UNL     1     -12.130  13.954  64.601  0.00  0.00    +0.013 A 
ATOM     16  C   UNL     1     -11.598  12.778  64.099  0.00  0.00    +0.058 A 
ATOM     17 CL   UNL     1     -12.568  11.808  63.027  0.00  0.00    -0.082 Cl
ATOM     18  C   UNL     1     -10.424  12.345  64.676  0.00  0.00    +0.013 A 
ATOM     19  C   UNL     1     -10.047  12.823  65.925  0.00  0.00    +0.018 A 
ENDBRANCH   4  13
TORSDOF 2
ENDMDL
MODEL 6
REMARK VINA RESULT:      -6.1      2.319      3.242
REMARK  Name = 
REMARK  2 active torsions:
REMARK  status: ('A' for Active; 'I' for Inactive)
REMARK    1  A    between atoms: N_3  and  C_4
REMARK    2  A    between atoms: N_11  and  C_12
REMARK                            x       y       z     vdW  Elec       q    Type
REMARK                         _______ _______ _______ _____ _____    ______ ____
ROOT
ATOM      1  O   UNL     1      -8.749  15.060  66.624  0.00  0.00    -0.248 OA
ATOM      2  C   UNL     1      -9.478  15.842  65.943  0.00  0.00    +0.348 C 
ATOM      3  N   UNL     1     -10.826  15.456  65.767  0.00  0.00    -0.161 NA
ATOM      4  N   UNL     1      -9.036  17.204  65.906  0.00  0.00    -0.161 NA
ENDROOT
BRANCH   3   5
ATOM      5  C   UNL     1     -11.439  14.409  66.528  0.00  0.00    +0.076 A 
ATOM      6  C   UNL     1     -11.770  14.571  67.865  0.00  0.00    +0.029 A 
ATOM      7  C   UNL     1     -11.904  13.471  68.679  0.00  0.00    +0.069 A 
ATOM      8 CL   UNL     1     -12.261  13.697  70.373  0.00  0.00    -0.081 Cl
ATOM      9  C   UNL     1     -11.640  12.184  68.227  0.00  0.00    +0.068 A 
ATOM     10 CL   UNL     1     -10.925  11.011  69.325  0.00  0.00    -0.081 Cl
ATOM     11  C   UNL     1     -11.539  12.051  66.847  0.00  0.00    +0.014 A 
ATOM     12  C   UNL     1     -11.551  13.152  66.000  0.00  0.00    +0.018 A 
ENDBRANCH   3   5
BRANCH   4  13
ATOM     13  C   UNL     1      -7.851  17.619  66.600  0.00  0.00    +0.075 A 
ATOM     14  C   UNL     1      -7.986  18.319  67.785  0.00  0.00    +0.018 A 
ATOM     15  C   UNL     1      -7.073  19.308  68.133  0.00  0.00    +0.013 A 
ATOM     16  C   UNL     1      -6.159  19.790  67.211  0.00  0.00    +0.058 A 
ATOM     17 CL   UNL     1      -5.671  21.458  67.304  0.00  0.00    -0.082 Cl
ATOM     18  C   UNL     1      -5.884  18.967  66.140  0.00  0.00    +0.013 A 
ATOM     19  C   UNL     1      -6.762  17.944  65.807  0.00  0.00    +0.018 A 
ENDBRANCH   4  13
TORSDOF 2
ENDMDL
MODEL 7
REMARK VINA RESULT:      -6.1      4.005      7.141
REMARK  Name = 
REMARK  2 active torsions:
REMARK  status: ('A' for Active; 'I' for Inactive)
REMARK    1  A    between atoms: N_3  and  C_4
REMARK    2  A    between atoms: N_11  and  C_12
REMARK                            x       y       z     vdW  Elec       q    Type
REMARK                         _______ _______ _______ _____ _____    ______ ____
ROOT
ATOM      1  O   UNL     1      -9.765  16.700  67.427  0.00  0.00    -0.248 OA
ATOM      2  C   UNL     1     -10.005  17.289  66.331  0.00  0.00    +0.348 C 
ATOM      3  N   UNL     1      -9.251  18.454  66.063  0.00  0.00    -0.161 NA
ATOM      4  N   UNL     1     -10.565  16.459  65.307  0.00  0.00    -0.161 NA
ENDROOT
BRANCH   3   5
ATOM      5  C   UNL     1      -8.089  18.817  66.817  0.00  0.00    +0.076 A 
ATOM      6  C   UNL     1      -6.851  18.239  66.579  0.00  0.00    +0.029 A 
ATOM      7  C   UNL     1      -5.895  18.231  67.568  0.00  0.00    +0.069 A 
ATOM      8 CL   UNL     1      -4.363  17.445  67.272  0.00  0.00    -0.081 Cl
ATOM      9  C   UNL     1      -6.150  18.717  68.843  0.00  0.00    +0.068 A 
ATOM     10 CL   UNL     1      -5.408  17.935  70.233  0.00  0.00    -0.081 Cl
ATOM     11  C   UNL     1      -7.304  19.482  68.965  0.00  0.00    +0.014 A 
ATOM     12  C   UNL     1      -8.208  19.618  67.919  0.00  0.00    +0.018 A 
ENDBRANCH   3   5
BRANCH   4  13
ATOM     13  C   UNL     1     -10.825  15.067  65.538  0.00  0.00    +0.075 A 
ATOM     14  C   UNL     1     -10.053  14.129  64.880  0.00  0.00    +0.018 A 
ATOM     15  C   UNL     1     -10.600  12.917  64.473  0.00  0.00    +0.013 A 
ATOM     16  C   UNL     1     -11.971  12.714  64.489  0.00  0.00    +0.058 A 
ATOM     17 CL   UNL     1     -12.682  11.686  63.278  0.00  0.00    -0.082 Cl
ATOM     18  C   UNL     1     -12.697  13.534  65.325  0.00  0.00    +0.013 A 
ATOM     19  C   UNL     1     -12.147  14.726  65.780  0.00  0.00    +0.018 A 
ENDBRANCH   4  13
TORSDOF 2
ENDMDL
MODEL 8
REMARK VINA RESULT:      -6.0      3.342      7.282
REMARK  Name = 
REMARK  2 active torsions:
REMARK  status: ('A' for Active; 'I' for Inactive)
REMARK    1  A    between atoms: N_3  and  C_4
REMARK    2  A    between atoms: N_11  and  C_12
REMARK                            x       y       z     vdW  Elec       q    Type
REMARK                         _______ _______ _______ _____ _____    ______ ____
ROOT
ATOM      1  O   UNL     1      -9.195  16.195  67.881  0.00  0.00    -0.248 OA
ATOM      2  C   UNL     1     -10.364  16.675  67.783  0.00  0.00    +0.348 C 
ATOM      3  N   UNL     1     -10.478  18.082  67.865  0.00  0.00    -0.161 NA
ATOM      4  N   UNL     1     -11.303  15.846  67.087  0.00  0.00    -0.161 NA
ENDROOT
BRANCH   3   5
ATOM      5  C   UNL     1      -9.349  18.958  67.777  0.00  0.00    +0.076 A 
ATOM      6  C   UNL     1      -8.807  19.335  66.558  0.00  0.00    +0.029 A 
ATOM      7  C   UNL     1      -7.501  19.760  66.488  0.00  0.00    +0.069 A 
ATOM      8 CL   UNL     1      -6.816  20.173  64.935  0.00  0.00    -0.081 Cl
ATOM      9  C   UNL     1      -6.664  19.753  67.596  0.00  0.00    +0.068 A 
ATOM     10 CL   UNL     1      -4.956  19.387  67.388  0.00  0.00    -0.081 Cl
ATOM     11  C   UNL     1      -7.303  19.590  68.819  0.00  0.00    +0.014 A 
ATOM     12  C   UNL     1      -8.660  19.305  68.906  0.00  0.00    +0.018 A 
ENDBRANCH   3   5
BRANCH   4  13
ATOM     13  C   UNL     1     -10.916  14.572  66.554  0.00  0.00    +0.075 A 
ATOM     14  C   UNL     1     -10.333  14.526  65.301  0.00  0.00    +0.018 A 
ATOM     15  C   UNL     1     -10.564  13.451  64.450  0.00  0.00    +0.013 A 
ATOM     16  C   UNL     1     -11.563  12.530  64.720  0.00  0.00    +0.058 A 
ATOM     17 CL   UNL     1     -12.401  11.785  63.390  0.00  0.00    -0.082 Cl
ATOM     18  C   UNL     1     -11.977  12.451  66.032  0.00  0.00    +0.013 A 
ATOM     19  C   UNL     1     -11.713  13.495  66.909  0.00  0.00    +0.018 A 
ENDBRANCH   4  13
TORSDOF 2
ENDMDL
MODEL 9
REMARK VINA RESULT:      -6.0      4.143      7.328
REMARK  Name = 
REMARK  2 active torsions:
REMARK  status: ('A' for Active; 'I' for Inactive)
REMARK    1  A    between atoms: N_3  and  C_4
REMARK    2  A    between atoms: N_11  and  C_12
REMARK                            x       y       z     vdW  Elec       q    Type
REMARK                         _______ _______ _______ _____ _____    ______ ____
ROOT
ATOM      1  O   UNL     1      -9.721  13.883  66.401  0.00  0.00    -0.248 OA
ATOM      2  C   UNL     1     -10.711  14.031  67.179  0.00  0.00    +0.348 C 
ATOM      3  N   UNL     1     -10.865  15.306  67.769  0.00  0.00    -0.161 NA
ATOM      4  N   UNL     1     -11.802  13.131  66.949  0.00  0.00    -0.161 NA
ENDROOT
BRANCH   3   5
ATOM      5  C   UNL     1     -10.142  16.459  67.324  0.00  0.00    +0.076 A 
ATOM      6  C   UNL     1      -9.124  17.022  68.079  0.00  0.00    +0.029 A 
ATOM      7  C   UNL     1      -8.777  18.339  67.892  0.00  0.00    +0.069 A 
ATOM      8 CL   UNL     1      -7.535  19.049  68.895  0.00  0.00    -0.081 Cl
ATOM      9  C   UNL     1      -9.469  19.166  67.017  0.00  0.00    +0.068 A 
ATOM     10 CL   UNL     1      -9.683  20.866  67.418  0.00  0.00    -0.081 Cl
ATOM     11  C   UNL     1     -10.314  18.512  66.129  0.00  0.00    +0.014 A 
ATOM     12  C   UNL     1     -10.558  17.147  66.218  0.00  0.00    +0.018 A 
ENDBRANCH   3   5
BRANCH   4  13
ATOM     13  C   UNL     1     -11.745  12.145  65.909  0.00  0.00    +0.075 A 
ATOM     14  C   UNL     1     -10.787  11.152  65.985  0.00  0.00    +0.018 A 
ATOM     15  C   UNL     1     -10.198  10.643  64.833  0.00  0.00    +0.013 A 
ATOM     16  C   UNL     1     -10.365  11.273  63.610  0.00  0.00    +0.058 A 
ATOM     17 CL   UNL     1      -9.067  11.216  62.452  0.00  0.00    -0.082 Cl
ATOM     18  C   UNL     1     -11.461  12.100  63.497  0.00  0.00    +0.013 A 
ATOM     19  C   UNL     1     -12.091  12.580  64.638  0.00  0.00    +0.018 A 
ENDBRANCH   4  13
TORSDOF 2
ENDMDL
