MODEL 1
REMARK VINA RESULT:      -6.8      0.000      0.000
REMARK  Name = 
REMARK  2 active torsions:
REMARK  status: ('A' for Active; 'I' for Inactive)
REMARK    1  A    between atoms: C_2  and  C_4
REMARK    2  A    between atoms: C_4  and  C_6
REMARK                            x       y       z     vdW  Elec       q    Type
REMARK                         _______ _______ _______ _____ _____    ______ ____
ROOT
ATOM      1  C   UNL     1     -11.814  14.940  69.674  0.00  0.00    +0.147 C 
ATOM      2  N   UNL     1     -11.425  13.424  69.535  0.00  0.00    -0.228 NA
ATOM      3  C   UNL     1     -11.067  13.048  68.193  0.00  0.00    +0.157 A 
ATOM      4  C   UNL     1     -10.581  14.117  67.448  0.00  0.00    +0.170 A 
ATOM      5  N   UNL     1     -10.840  14.105  66.126  0.00  0.00    -0.193 NA
ATOM      6  C   UNL     1     -11.905  13.444  65.601  0.00  0.00    +0.260 A 
ATOM      7  N   UNL     1     -12.036  12.207  66.142  0.00  0.00    -0.171 NA
ATOM      8  N   UNL     1     -12.867  14.036  64.738  0.00  0.00    -0.086 NA
ATOM      9  N   UNL     1      -9.982  15.157  68.192  0.00  0.00    -0.217 NA
ATOM     10  C   UNL     1     -11.740  12.087  67.465  0.00  0.00    +0.299 A 
ATOM     11  O   UNL     1     -12.203  11.131  68.160  0.00  0.00    -0.264 OA
ATOM     12  C   UNL     1     -10.247  15.397  69.613  0.00  0.00    +0.138 C 
ENDROOT
BRANCH   1  13
ATOM     13  C   UNL     1     -11.818  14.963  71.381  0.00  0.00    +0.203 C 
ATOM     14  O   UNL     1     -11.685  16.456  71.352  0.00  0.00    -0.219 OA
BRANCH  13  16
ATOM     15  C   UNL     1     -13.572  15.686  72.986  0.00  0.00    +0.038 C 
ATOM     16  C   UNL     1     -13.533  15.012  71.484  0.00  0.00    +0.184 C 
ATOM     17  O   UNL     1     -13.537  13.612  72.060  0.00  0.00    -0.220 OA
ENDBRANCH  13  16
ENDBRANCH   1  13
TORSDOF 2
ENDMDL
MODEL 2
REMARK VINA RESULT:      -6.7      2.251      5.645
REMARK  Name = 
REMARK  2 active torsions:
REMARK  status: ('A' for Active; 'I' for Inactive)
REMARK    1  A    between atoms: C_2  and  C_4
REMARK    2  A    between atoms: C_4  and  C_6
REMARK                            x       y       z     vdW  Elec       q    Type
REMARK                         _______ _______ _______ _____ _____    ______ ____
ROOT
ATOM      1  C   UNL     1     -12.145  13.352  67.648  0.00  0.00    +0.147 C 
ATOM      2  N   UNL     1     -11.123  14.368  68.273  0.00  0.00    -0.228 NA
ATOM      3  C   UNL     1     -11.373  14.646  69.663  0.00  0.00    +0.157 A 
ATOM      4  C   UNL     1     -12.032  13.605  70.307  0.00  0.00    +0.170 A 
ATOM      5  N   UNL     1     -12.877  13.942  71.301  0.00  0.00    -0.193 NA
ATOM      6  C   UNL     1     -13.479  15.159  71.361  0.00  0.00    +0.260 A 
ATOM      7  N   UNL     1     -12.600  16.159  71.097  0.00  0.00    -0.171 NA
ATOM      8  N   UNL     1     -14.880  15.353  71.495  0.00  0.00    -0.086 NA
ATOM      9  N   UNL     1     -11.832  12.321  69.755  0.00  0.00    -0.217 NA
ATOM     10  C   UNL     1     -11.657  15.907  70.150  0.00  0.00    +0.299 A 
ATOM     11  O   UNL     1     -11.072  16.851  69.534  0.00  0.00    -0.264 OA
ATOM     12  C   UNL     1     -11.405  12.088  68.373  0.00  0.00    +0.138 C 
ENDROOT
BRANCH   1  13
ATOM     13  C   UNL     1     -11.279  13.105  66.197  0.00  0.00    +0.203 C 
ATOM     14  O   UNL     1     -12.076  11.861  65.943  0.00  0.00    -0.219 OA
BRANCH  13  16
ATOM     15  C   UNL     1     -12.009  13.360  63.836  0.00  0.00    +0.038 C 
ATOM     16  C   UNL     1     -12.334  14.097  65.272  0.00  0.00    +0.184 C 
ATOM     17  O   UNL     1     -11.215  15.095  65.067  0.00  0.00    -0.220 OA
ENDBRANCH  13  16
ENDBRANCH   1  13
TORSDOF 2
ENDMDL
MODEL 3
REMARK VINA RESULT:      -6.5      3.370      4.856
REMARK  Name = 
REMARK  2 active torsions:
REMARK  status: ('A' for Active; 'I' for Inactive)
REMARK    1  A    between atoms: C_2  and  C_4
REMARK    2  A    between atoms: C_4  and  C_6
REMARK                            x       y       z     vdW  Elec       q    Type
REMARK                         _______ _______ _______ _____ _____    ______ ____
ROOT
ATOM      1  C   UNL     1      -9.693  14.763  66.901  0.00  0.00    +0.147 C 
ATOM      2  N   UNL     1     -10.866  15.601  66.274  0.00  0.00    -0.228 NA
ATOM      3  C   UNL     1     -11.903  14.787  65.698  0.00  0.00    +0.157 A 
ATOM      4  C   UNL     1     -11.981  13.527  66.280  0.00  0.00    +0.170 A 
ATOM      5  N   UNL     1     -12.367  12.511  65.483  0.00  0.00    -0.193 NA
ATOM      6  C   UNL     1     -12.191  12.538  64.136  0.00  0.00    +0.260 A 
ATOM      7  N   UNL     1     -12.547  13.740  63.615  0.00  0.00    -0.171 NA
ATOM      8  N   UNL     1     -11.544  11.514  63.393  0.00  0.00    -0.086 NA
ATOM      9  N   UNL     1     -11.521  13.440  67.612  0.00  0.00    -0.217 NA
ATOM     10  C   UNL     1     -12.261  14.838  64.365  0.00  0.00    +0.299 A 
ATOM     11  O   UNL     1     -12.157  15.988  63.837  0.00  0.00    -0.264 OA
ATOM     12  C   UNL     1     -10.592  14.399  68.215  0.00  0.00    +0.138 C 
ENDROOT
BRANCH   1  13
ATOM     13  C   UNL     1      -8.948  16.076  67.698  0.00  0.00    +0.203 C 
ATOM     14  O   UNL     1      -8.066  15.116  68.438  0.00  0.00    -0.219 OA
BRANCH  13  16
ATOM     15  C   UNL     1      -6.793  17.263  67.350  0.00  0.00    +0.038 C 
ATOM     16  C   UNL     1      -7.801  16.328  66.443  0.00  0.00    +0.184 C 
ATOM     17  O   UNL     1      -8.580  17.539  65.976  0.00  0.00    -0.220 OA
ENDBRANCH  13  16
ENDBRANCH   1  13
TORSDOF 2
ENDMDL
MODEL 4
REMARK VINA RESULT:      -6.3      2.886      5.508
REMARK  Name = 
REMARK  2 active torsions:
REMARK  status: ('A' for Active; 'I' for Inactive)
REMARK    1  A    between atoms: C_2  and  C_4
REMARK    2  A    between atoms: C_4  and  C_6
REMARK                            x       y       z     vdW  Elec       q    Type
REMARK                         _______ _______ _______ _____ _____    ______ ____
ROOT
ATOM      1  C   UNL     1     -11.378  15.869  68.765  0.00  0.00    +0.147 C 
ATOM      2  N   UNL     1     -10.912  15.953  70.263  0.00  0.00    -0.228 NA
ATOM      3  C   UNL     1     -11.819  15.312  71.178  0.00  0.00    +0.157 A 
ATOM      4  C   UNL     1     -12.559  14.299  70.579  0.00  0.00    +0.170 A 
ATOM      5  N   UNL     1     -13.807  14.099  71.045  0.00  0.00    -0.193 NA
ATOM      6  C   UNL     1     -14.521  15.083  71.652  0.00  0.00    +0.260 A 
ATOM      7  N   UNL     1     -13.762  15.766  72.545  0.00  0.00    -0.171 NA
ATOM      8  N   UNL     1     -15.834  15.471  71.269  0.00  0.00    -0.086 NA
ATOM      9  N   UNL     1     -11.956  13.682  69.460  0.00  0.00    -0.217 NA
ATOM     10  C   UNL     1     -12.461  15.974  72.206  0.00  0.00    +0.299 A 
ATOM     11  O   UNL     1     -11.787  16.915  72.726  0.00  0.00    -0.264 OA
ATOM     12  C   UNL     1     -10.904  14.309  68.655  0.00  0.00    +0.138 C 
ENDROOT
BRANCH   1  13
ATOM     13  C   UNL     1      -9.909  16.425  68.095  0.00  0.00    +0.203 C 
ATOM     14  O   UNL     1     -10.316  15.871  66.763  0.00  0.00    -0.219 OA
BRANCH  13  16
ATOM     15  C   UNL     1      -9.387  18.364  66.631  0.00  0.00    +0.038 C 
ATOM     16  C   UNL     1     -10.533  17.990  67.753  0.00  0.00    +0.184 C 
ATOM     17  O   UNL     1      -9.694  18.569  68.872  0.00  0.00    -0.220 OA
ENDBRANCH  13  16
ENDBRANCH   1  13
TORSDOF 2
ENDMDL
MODEL 5
REMARK VINA RESULT:      -6.3      1.936      2.214
REMARK  Name = 
REMARK  2 active torsions:
REMARK  status: ('A' for Active; 'I' for Inactive)
REMARK    1  A    between atoms: C_2  and  C_4
REMARK    2  A    between atoms: C_4  and  C_6
REMARK                            x       y       z     vdW  Elec       q    Type
REMARK                         _______ _______ _______ _____ _____    ______ ____
ROOT
ATOM      1  C   UNL     1     -11.501  15.678  69.006  0.00  0.00    +0.147 C 
ATOM      2  N   UNL     1     -10.411  14.688  68.457  0.00  0.00    -0.228 NA
ATOM      3  C   UNL     1      -9.982  14.999  67.119  0.00  0.00    +0.157 A 
ATOM      4  C   UNL     1     -10.138  16.344  66.804  0.00  0.00    +0.170 A 
ATOM      5  N   UNL     1     -10.423  16.641  65.521  0.00  0.00    -0.193 NA
ATOM      6  C   UNL     1     -11.038  15.757  64.692  0.00  0.00    +0.260 A 
ATOM      7  N   UNL     1     -10.502  14.516  64.806  0.00  0.00    -0.171 NA
ATOM      8  N   UNL     1     -12.210  16.047  63.942  0.00  0.00    -0.086 NA
ATOM      9  N   UNL     1     -10.105  17.235  67.900  0.00  0.00    -0.217 NA
ATOM     10  C   UNL     1     -10.118  14.131  66.053  0.00  0.00    +0.299 A 
ATOM     11  O   UNL     1     -10.003  12.904  66.358  0.00  0.00    -0.264 OA
ATOM     12  C   UNL     1     -10.381  16.835  69.282  0.00  0.00    +0.138 C 
ENDROOT
BRANCH   1  13
ATOM     13  C   UNL     1     -11.428  15.136  70.623  0.00  0.00    +0.203 C 
ATOM     14  O   UNL     1     -12.147  16.376  71.063  0.00  0.00    -0.219 OA
BRANCH  13  16
ATOM     15  C   UNL     1     -13.127  14.110  72.118  0.00  0.00    +0.038 C 
ATOM     16  C   UNL     1     -12.875  14.216  70.494  0.00  0.00    +0.184 C 
ATOM     17  O   UNL     1     -12.061  12.940  70.489  0.00  0.00    -0.220 OA
ENDBRANCH  13  16
ENDBRANCH   1  13
TORSDOF 2
ENDMDL
MODEL 6
REMARK VINA RESULT:      -6.2      3.378      5.817
REMARK  Name = 
REMARK  2 active torsions:
REMARK  status: ('A' for Active; 'I' for Inactive)
REMARK    1  A    between atoms: C_2  and  C_4
REMARK    2  A    between atoms: C_4  and  C_6
REMARK                            x       y       z     vdW  Elec       q    Type
REMARK                         _______ _______ _______ _____ _____    ______ ____
ROOT
ATOM      1  C   UNL     1     -11.753  14.337  66.405  0.00  0.00    +0.147 C 
ATOM      2  N   UNL     1     -10.205  14.379  66.676  0.00  0.00    -0.228 NA
ATOM      3  C   UNL     1      -9.802  15.483  67.506  0.00  0.00    +0.157 A 
ATOM      4  C   UNL     1     -10.819  15.923  68.345  0.00  0.00    +0.170 A 
ATOM      5  N   UNL     1     -10.841  17.238  68.639  0.00  0.00    -0.193 NA
ATOM      6  C   UNL     1     -10.296  18.174  67.818  0.00  0.00    +0.260 A 
ATOM      7  N   UNL     1      -9.076  17.787  67.368  0.00  0.00    -0.171 NA
ATOM      8  N   UNL     1     -10.989  19.320  67.341  0.00  0.00    -0.086 NA
ATOM      9  N   UNL     1     -11.789  14.955  68.689  0.00  0.00    -0.217 NA
ATOM     10  C   UNL     1      -8.919  16.463  67.097  0.00  0.00    +0.299 A 
ATOM     11  O   UNL     1      -8.012  16.055  66.308  0.00  0.00    -0.264 OA
ATOM     12  C   UNL     1     -12.047  13.747  67.900  0.00  0.00    +0.138 C 
ENDROOT
BRANCH   1  13
ATOM     13  C   UNL     1     -11.767  12.774  65.719  0.00  0.00    +0.203 C 
ATOM     14  O   UNL     1     -13.201  12.967  65.328  0.00  0.00    -0.219 OA
BRANCH  13  16
ATOM     15  C   UNL     1     -12.050  12.252  63.307  0.00  0.00    +0.038 C 
ATOM     16  C   UNL     1     -11.169  13.316  64.202  0.00  0.00    +0.184 C 
ATOM     17  O   UNL     1     -10.015  12.343  64.310  0.00  0.00    -0.220 OA
ENDBRANCH  13  16
ENDBRANCH   1  13
TORSDOF 2
ENDMDL
MODEL 7
REMARK VINA RESULT:      -6.1      2.955      4.387
REMARK  Name = 
REMARK  2 active torsions:
REMARK  status: ('A' for Active; 'I' for Inactive)
REMARK    1  A    between atoms: C_2  and  C_4
REMARK    2  A    between atoms: C_4  and  C_6
REMARK                            x       y       z     vdW  Elec       q    Type
REMARK                         _______ _______ _______ _____ _____    ______ ____
ROOT
ATOM      1  C   UNL     1     -10.351  15.236  67.339  0.00  0.00    +0.147 C 
ATOM      2  N   UNL     1     -11.634  15.322  66.435  0.00  0.00    -0.228 NA
ATOM      3  C   UNL     1     -12.178  14.034  66.095  0.00  0.00    +0.157 A 
ATOM      4  C   UNL     1     -11.870  13.057  67.034  0.00  0.00    +0.170 A 
ATOM      5  N   UNL     1     -11.709  11.800  66.575  0.00  0.00    -0.193 NA
ATOM      6  C   UNL     1     -11.338  11.538  65.294  0.00  0.00    +0.260 A 
ATOM      7  N   UNL     1     -12.029  12.303  64.412  0.00  0.00    -0.171 NA
ATOM      8  N   UNL     1     -10.240  10.710  64.933  0.00  0.00    -0.086 NA
ATOM      9  N   UNL     1     -11.635  13.523  68.346  0.00  0.00    -0.217 NA
ATOM     10  C   UNL     1     -12.305  13.578  64.797  0.00  0.00    +0.299 A 
ATOM     11  O   UNL     1     -12.558  14.484  63.945  0.00  0.00    -0.264 OA
ATOM     12  C   UNL     1     -11.248  14.901  68.662  0.00  0.00    +0.138 C 
ENDROOT
BRANCH   1  13
ATOM     13  C   UNL     1     -10.297  16.899  67.722  0.00  0.00    +0.203 C 
ATOM     14  O   UNL     1      -9.224  16.623  68.732  0.00  0.00    -0.219 OA
BRANCH  13  16
ATOM     15  C   UNL     1      -8.630  18.654  67.161  0.00  0.00    +0.038 C 
ATOM     16  C   UNL     1      -9.175  17.262  66.472  0.00  0.00    +0.184 C 
ATOM     17  O   UNL     1     -10.257  18.004  65.717  0.00  0.00    -0.220 OA
ENDBRANCH  13  16
ENDBRANCH   1  13
TORSDOF 2
ENDMDL
MODEL 8
REMARK VINA RESULT:      -6.0      5.233      6.983
REMARK  Name = 
REMARK  2 active torsions:
REMARK  status: ('A' for Active; 'I' for Inactive)
REMARK    1  A    between atoms: C_2  and  C_4
REMARK    2  A    between atoms: C_4  and  C_6
REMARK                            x       y       z     vdW  Elec       q    Type
REMARK                         _______ _______ _______ _____ _____    ______ ____
ROOT
ATOM      1  C   UNL     1      -8.345  19.225  67.090  0.00  0.00    +0.147 C 
ATOM      2  N   UNL     1      -9.150  18.467  65.973  0.00  0.00    -0.228 NA
ATOM      3  C   UNL     1     -10.205  17.639  66.492  0.00  0.00    +0.157 A 
ATOM      4  C   UNL     1     -10.680  18.083  67.721  0.00  0.00    +0.170 A 
ATOM      5  N   UNL     1     -11.116  17.142  68.582  0.00  0.00    -0.193 NA
ATOM      6  C   UNL     1     -10.671  15.859  68.541  0.00  0.00    +0.260 A 
ATOM      7  N   UNL     1     -10.634  15.388  67.269  0.00  0.00    -0.171 NA
ATOM      8  N   UNL     1     -10.134  15.163  69.658  0.00  0.00    -0.086 NA
ATOM      9  N   UNL     1     -10.529  19.465  67.970  0.00  0.00    -0.217 NA
ATOM     10  C   UNL     1     -10.266  16.272  66.303  0.00  0.00    +0.299 A 
ATOM     11  O   UNL     1      -9.803  15.875  65.189  0.00  0.00    -0.264 OA
ATOM     12  C   UNL     1      -9.549  20.312  67.285  0.00  0.00    +0.138 C 
ENDROOT
BRANCH   1  13
ATOM     13  C   UNL     1      -7.501  20.259  66.026  0.00  0.00    +0.203 C 
ATOM     14  O   UNL     1      -7.061  21.088  67.195  0.00  0.00    -0.219 OA
BRANCH  13  16
ATOM     15  C   UNL     1      -5.093  20.471  65.453  0.00  0.00    +0.038 C 
ATOM     16  C   UNL     1      -6.080  19.292  66.042  0.00  0.00    +0.184 C 
ATOM     17  O   UNL     1      -6.401  18.799  64.647  0.00  0.00    -0.220 OA
ENDBRANCH  13  16
ENDBRANCH   1  13
TORSDOF 2
ENDMDL
MODEL 9
REMARK VINA RESULT:      -6.0      3.307      4.622
REMARK  Name = 
REMARK  2 active torsions:
REMARK  status: ('A' for Active; 'I' for Inactive)
REMARK    1  A    between atoms: C_2  and  C_4
REMARK    2  A    between atoms: C_4  and  C_6
REMARK                            x       y       z     vdW  Elec       q    Type
REMARK                         _______ _______ _______ _____ _____    ______ ____
ROOT
ATOM      1  C   UNL     1     -10.245  14.514  66.620  0.00  0.00    +0.147 C 
ATOM      2  N   UNL     1     -11.613  14.413  65.854  0.00  0.00    -0.228 NA
ATOM      3  C   UNL     1     -11.890  13.093  65.354  0.00  0.00    +0.157 A 
ATOM      4  C   UNL     1     -11.259  12.097  66.091  0.00  0.00    +0.170 A 
ATOM      5  N   UNL     1     -10.875  10.993  65.420  0.00  0.00    -0.193 NA
ATOM      6  C   UNL     1     -10.612  11.009  64.087  0.00  0.00    +0.260 A 
ATOM      7  N   UNL     1     -11.559  11.700  63.404  0.00  0.00    -0.171 NA
ATOM      8  N   UNL     1      -9.408  10.530  63.504  0.00  0.00    -0.086 NA
ATOM      9  N   UNL     1     -10.979  12.418  67.438  0.00  0.00    -0.217 NA
ATOM     10  C   UNL     1     -12.067  12.805  64.015  0.00  0.00    +0.299 A 
ATOM     11  O   UNL     1     -12.618  13.733  63.347  0.00  0.00    -0.264 OA
ATOM     12  C   UNL     1     -10.877  13.790  67.941  0.00  0.00    +0.138 C 
ENDROOT
BRANCH   1  13
ATOM     13  C   UNL     1     -10.522  16.070  67.266  0.00  0.00    +0.203 C 
ATOM     14  O   UNL     1      -9.479  15.813  68.311  0.00  0.00    -0.219 OA
BRANCH  13  16
ATOM     15  C   UNL     1      -9.377  18.261  67.009  0.00  0.00    +0.038 C 
ATOM     16  C   UNL     1      -9.412  16.830  66.195  0.00  0.00    +0.184 C 
ATOM     17  O   UNL     1     -10.564  17.295  65.331  0.00  0.00    -0.220 OA
ENDBRANCH  13  16
ENDBRANCH   1  13
TORSDOF 2
ENDMDL
