MODEL 1
REMARK VINA RESULT:      -6.3      0.000      0.000
REMARK  Name = 
REMARK  0 active torsions:
REMARK  status: ('A' for Active; 'I' for Inactive)
REMARK                            x       y       z     vdW  Elec       q    Type
REMARK                         _______ _______ _______ _____ _____    ______ ____
ROOT
ATOM      1  N   UNL     1      -8.946  16.744  65.828  0.00  0.00    -0.057 NA
ATOM      2  C   UNL     1      -9.877  15.654  65.868  0.00  0.00    +0.336 A 
ATOM      3  N   UNL     1     -10.845  15.687  64.921  0.00  0.00    -0.113 N 
ATOM      4  O   UNL     1     -11.162  16.846  64.233  0.00  0.00    -0.616 OA
ATOM      5  C   UNL     1     -11.790  14.719  65.003  0.00  0.00    +0.429 A 
ATOM      6  N   UNL     1     -12.673  14.547  63.888  0.00  0.00    -0.038 NA
ATOM      7  N   UNL     1     -11.892  13.937  66.104  0.00  0.00    -0.152 NA
ATOM      8  C   UNL     1     -11.245  14.240  67.255  0.00  0.00    +0.147 A 
ATOM      9  N   UNL     1     -11.906  14.220  68.525  0.00  0.00    -0.293 N 
ATOM     10  C   UNL     1     -12.477  15.444  69.077  0.00  0.00    +0.092 C 
ATOM     11  C   UNL     1     -11.614  16.000  70.199  0.00  0.00    +0.022 C 
ATOM     12  C   UNL     1     -11.507  14.921  71.245  0.00  0.00    +0.004 C 
ATOM     13  C   UNL     1     -12.175  13.639  70.814  0.00  0.00    +0.022 C 
ATOM     14  C   UNL     1     -11.619  13.154  69.480  0.00  0.00    +0.092 C 
ATOM     15  C   UNL     1     -10.098  15.007  67.079  0.00  0.00    +0.126 A 
ENDROOT
TORSDOF 0
ENDMDL
MODEL 2
REMARK VINA RESULT:      -6.1      2.424      4.591
REMARK  Name = 
REMARK  0 active torsions:
REMARK  status: ('A' for Active; 'I' for Inactive)
REMARK                            x       y       z     vdW  Elec       q    Type
REMARK                         _______ _______ _______ _____ _____    ______ ____
ROOT
ATOM      1  N   UNL     1     -11.432  16.567  69.243  0.00  0.00    -0.057 NA
ATOM      2  C   UNL     1     -10.545  16.492  68.119  0.00  0.00    +0.336 A 
ATOM      3  N   UNL     1     -10.211  17.683  67.567  0.00  0.00    -0.113 N 
ATOM      4  O   UNL     1     -10.950  18.832  67.791  0.00  0.00    -0.616 OA
ATOM      5  C   UNL     1      -9.453  17.626  66.445  0.00  0.00    +0.429 A 
ATOM      6  N   UNL     1      -8.854  18.840  65.976  0.00  0.00    -0.038 NA
ATOM      7  N   UNL     1      -9.265  16.455  65.790  0.00  0.00    -0.152 NA
ATOM      8  C   UNL     1     -10.012  15.359  66.063  0.00  0.00    +0.147 A 
ATOM      9  N   UNL     1     -10.616  14.575  65.028  0.00  0.00    -0.293 N 
ATOM     10  C   UNL     1     -11.993  14.831  64.620  0.00  0.00    +0.092 C 
ATOM     11  C   UNL     1     -12.937  13.768  65.160  0.00  0.00    +0.022 C 
ATOM     12  C   UNL     1     -12.445  12.441  64.642  0.00  0.00    +0.004 C 
ATOM     13  C   UNL     1     -11.157  12.571  63.869  0.00  0.00    +0.022 C 
ATOM     14  C   UNL     1     -10.082  13.254  64.708  0.00  0.00    +0.092 C 
ATOM     15  C   UNL     1     -10.535  15.332  67.352  0.00  0.00    +0.126 A 
ENDROOT
TORSDOF 0
ENDMDL
MODEL 3
REMARK VINA RESULT:      -5.8      2.469      3.588
REMARK  Name = 
REMARK  0 active torsions:
REMARK  status: ('A' for Active; 'I' for Inactive)
REMARK                            x       y       z     vdW  Elec       q    Type
REMARK                         _______ _______ _______ _____ _____    ______ ____
ROOT
ATOM      1  N   UNL     1     -12.288  15.943  63.869  0.00  0.00    -0.057 NA
ATOM      2  C   UNL     1     -11.491  15.160  64.767  0.00  0.00    +0.336 A 
ATOM      3  N   UNL     1     -12.129  14.112  65.341  0.00  0.00    -0.113 N 
ATOM      4  O   UNL     1     -13.510  14.025  65.383  0.00  0.00    -0.616 OA
ATOM      5  C   UNL     1     -11.422  13.419  66.266  0.00  0.00    +0.429 A 
ATOM      6  N   UNL     1     -11.942  12.158  66.704  0.00  0.00    -0.038 NA
ATOM      7  N   UNL     1     -10.255  13.903  66.757  0.00  0.00    -0.152 NA
ATOM      8  C   UNL     1      -9.875  15.186  66.552  0.00  0.00    +0.147 A 
ATOM      9  N   UNL     1      -9.397  16.016  67.617  0.00  0.00    -0.293 N 
ATOM     10  C   UNL     1     -10.314  16.899  68.330  0.00  0.00    +0.092 C 
ATOM     11  C   UNL     1     -10.128  18.348  67.910  0.00  0.00    +0.022 C 
ATOM     12  C   UNL     1      -8.690  18.703  68.189  0.00  0.00    +0.004 C 
ATOM     13  C   UNL     1      -7.894  17.520  68.679  0.00  0.00    +0.022 C 
ATOM     14  C   UNL     1      -7.980  16.358  67.696  0.00  0.00    +0.092 C 
ATOM     15  C   UNL     1     -10.414  15.764  65.407  0.00  0.00    +0.126 A 
ENDROOT
TORSDOF 0
ENDMDL
MODEL 4
REMARK VINA RESULT:      -5.6      5.822      7.721
REMARK  Name = 
REMARK  0 active torsions:
REMARK  status: ('A' for Active; 'I' for Inactive)
REMARK                            x       y       z     vdW  Elec       q    Type
REMARK                         _______ _______ _______ _____ _____    ______ ____
ROOT
ATOM      1  N   UNL     1      -5.451  16.722  70.407  0.00  0.00    -0.057 NA
ATOM      2  C   UNL     1      -5.559  18.027  69.823  0.00  0.00    +0.336 A 
ATOM      3  N   UNL     1      -5.256  19.057  70.650  0.00  0.00    -0.113 N 
ATOM      4  O   UNL     1      -5.235  18.912  72.027  0.00  0.00    -0.616 OA
ATOM      5  C   UNL     1      -5.446  20.300  70.146  0.00  0.00    +0.429 A 
ATOM      6  N   UNL     1      -4.898  21.409  70.869  0.00  0.00    -0.038 NA
ATOM      7  N   UNL     1      -6.129  20.487  68.991  0.00  0.00    -0.152 NA
ATOM      8  C   UNL     1      -6.861  19.496  68.429  0.00  0.00    +0.147 A 
ATOM      9  N   UNL     1      -8.202  19.708  67.973  0.00  0.00    -0.293 N 
ATOM     10  C   UNL     1      -9.332  19.408  68.845  0.00  0.00    +0.092 C 
ATOM     11  C   UNL     1     -10.024  18.119  68.429  0.00  0.00    +0.022 C 
ATOM     12  C   UNL     1     -10.463  18.300  66.998  0.00  0.00    +0.004 C 
ATOM     13  C   UNL     1      -9.999  19.613  66.420  0.00  0.00    +0.022 C 
ATOM     14  C   UNL     1      -8.486  19.760  66.541  0.00  0.00    +0.092 C 
ATOM     15  C   UNL     1      -6.432  18.214  68.756  0.00  0.00    +0.126 A 
ENDROOT
TORSDOF 0
ENDMDL
MODEL 5
REMARK VINA RESULT:      -5.6      2.640      4.029
REMARK  Name = 
REMARK  0 active torsions:
REMARK  status: ('A' for Active; 'I' for Inactive)
REMARK                            x       y       z     vdW  Elec       q    Type
REMARK                         _______ _______ _______ _____ _____    ______ ____
ROOT
ATOM      1  N   UNL     1      -8.022  16.585  68.764  0.00  0.00    -0.057 NA
ATOM      2  C   UNL     1      -8.713  16.768  67.521  0.00  0.00    +0.336 A 
ATOM      3  N   UNL     1      -9.387  17.938  67.402  0.00  0.00    -0.113 N 
ATOM      4  O   UNL     1      -9.721  18.709  68.502  0.00  0.00    -0.616 OA
ATOM      5  C   UNL     1     -10.125  18.087  66.275  0.00  0.00    +0.429 A 
ATOM      6  N   UNL     1     -10.637  19.390  65.975  0.00  0.00    -0.038 NA
ATOM      7  N   UNL     1     -10.367  17.034  65.457  0.00  0.00    -0.152 NA
ATOM      8  C   UNL     1     -10.113  15.761  65.841  0.00  0.00    +0.147 A 
ATOM      9  N   UNL     1     -11.069  14.709  65.665  0.00  0.00    -0.293 N 
ATOM     10  C   UNL     1     -11.980  14.354  66.747  0.00  0.00    +0.092 C 
ATOM     11  C   UNL     1     -11.560  13.056  67.420  0.00  0.00    +0.022 C 
ATOM     12  C   UNL     1     -11.535  11.996  66.349  0.00  0.00    +0.004 C 
ATOM     13  C   UNL     1     -11.818  12.560  64.980  0.00  0.00    +0.022 C 
ATOM     14  C   UNL     1     -10.851  13.689  64.642  0.00  0.00    +0.092 C 
ATOM     15  C   UNL     1      -9.122  15.645  66.810  0.00  0.00    +0.126 A 
ENDROOT
TORSDOF 0
ENDMDL
MODEL 6
REMARK VINA RESULT:      -5.5      2.907      4.402
REMARK  Name = 
REMARK  0 active torsions:
REMARK  status: ('A' for Active; 'I' for Inactive)
REMARK                            x       y       z     vdW  Elec       q    Type
REMARK                         _______ _______ _______ _____ _____    ______ ____
ROOT
ATOM      1  N   UNL     1     -12.504  14.006  63.633  0.00  0.00    -0.057 NA
ATOM      2  C   UNL     1     -12.195  13.972  65.033  0.00  0.00    +0.336 A 
ATOM      3  N   UNL     1     -11.513  15.046  65.499  0.00  0.00    -0.113 N 
ATOM      4  O   UNL     1     -10.826  15.904  64.658  0.00  0.00    -0.616 OA
ATOM      5  C   UNL     1     -11.127  14.988  66.797  0.00  0.00    +0.429 A 
ATOM      6  N   UNL     1     -10.645  16.189  67.409  0.00  0.00    -0.038 NA
ATOM      7  N   UNL     1     -11.201  13.828  67.494  0.00  0.00    -0.152 NA
ATOM      8  C   UNL     1     -11.411  12.640  66.879  0.00  0.00    +0.147 A 
ATOM      9  N   UNL     1     -10.616  11.485  67.167  0.00  0.00    -0.293 N 
ATOM     10  C   UNL     1      -9.453  11.168  66.345  0.00  0.00    +0.092 C 
ATOM     11  C   UNL     1      -9.738  10.007  65.406  0.00  0.00    +0.022 C 
ATOM     12  C   UNL     1     -10.141   8.837  66.266  0.00  0.00    +0.004 C 
ATOM     13  C   UNL     1     -10.235   9.206  67.725  0.00  0.00    +0.022 C 
ATOM     14  C   UNL     1     -11.185  10.379  67.933  0.00  0.00    +0.092 C 
ATOM     15  C   UNL     1     -12.082  12.738  65.665  0.00  0.00    +0.126 A 
ENDROOT
TORSDOF 0
ENDMDL
MODEL 7
REMARK VINA RESULT:      -5.4      4.131      5.745
REMARK  Name = 
REMARK  0 active torsions:
REMARK  status: ('A' for Active; 'I' for Inactive)
REMARK                            x       y       z     vdW  Elec       q    Type
REMARK                         _______ _______ _______ _____ _____    ______ ____
ROOT
ATOM      1  N   UNL     1     -11.003  16.718  69.620  0.00  0.00    -0.057 NA
ATOM      2  C   UNL     1     -10.621  17.296  68.365  0.00  0.00    +0.336 A 
ATOM      3  N   UNL     1     -10.638  16.447  67.309  0.00  0.00    -0.113 N 
ATOM      4  O   UNL     1     -10.631  15.072  67.470  0.00  0.00    -0.616 OA
ATOM      5  C   UNL     1     -10.187  16.950  66.134  0.00  0.00    +0.429 A 
ATOM      6  N   UNL     1     -10.429  16.193  64.943  0.00  0.00    -0.038 NA
ATOM      7  N   UNL     1      -9.531  18.135  66.089  0.00  0.00    -0.152 NA
ATOM      8  C   UNL     1      -9.075  18.738  67.212  0.00  0.00    +0.147 A 
ATOM      9  N   UNL     1      -7.744  19.256  67.309  0.00  0.00    -0.293 N 
ATOM     10  C   UNL     1      -6.677  18.441  67.880  0.00  0.00    +0.092 C 
ATOM     11  C   UNL     1      -6.323  18.900  69.286  0.00  0.00    +0.022 C 
ATOM     12  C   UNL     1      -5.918  20.348  69.185  0.00  0.00    +0.004 C 
ATOM     13  C   UNL     1      -6.089  20.894  67.790  0.00  0.00    +0.022 C 
ATOM     14  C   UNL     1      -7.519  20.699  67.298  0.00  0.00    +0.092 C 
ATOM     15  C   UNL     1      -9.776  18.401  68.366  0.00  0.00    +0.126 A 
ENDROOT
TORSDOF 0
ENDMDL
MODEL 8
REMARK VINA RESULT:      -5.4      1.836      2.299
REMARK  Name = 
REMARK  0 active torsions:
REMARK  status: ('A' for Active; 'I' for Inactive)
REMARK                            x       y       z     vdW  Elec       q    Type
REMARK                         _______ _______ _______ _____ _____    ______ ____
ROOT
ATOM      1  N   UNL     1      -8.754  16.410  68.811  0.00  0.00    -0.057 NA
ATOM      2  C   UNL     1      -9.750  15.421  68.518  0.00  0.00    +0.336 A 
ATOM      3  N   UNL     1     -10.381  15.572  67.329  0.00  0.00    -0.113 N 
ATOM      4  O   UNL     1     -10.370  16.772  66.638  0.00  0.00    -0.616 OA
ATOM      5  C   UNL     1     -11.392  14.706  67.078  0.00  0.00    +0.429 A 
ATOM      6  N   UNL     1     -11.912  14.648  65.745  0.00  0.00    -0.038 NA
ATOM      7  N   UNL     1     -11.892  13.916  68.059  0.00  0.00    -0.152 NA
ATOM      8  C   UNL     1     -11.596  14.127  69.363  0.00  0.00    +0.147 A 
ATOM      9  N   UNL     1     -12.606  14.149  70.378  0.00  0.00    -0.293 N 
ATOM     10  C   UNL     1     -13.201  15.414  70.796  0.00  0.00    +0.092 C 
ATOM     11  C   UNL     1     -12.668  15.854  72.150  0.00  0.00    +0.022 C 
ATOM     12  C   UNL     1     -12.980  14.748  73.125  0.00  0.00    +0.004 C 
ATOM     13  C   UNL     1     -13.603  13.552  72.452  0.00  0.00    +0.022 C 
ATOM     14  C   UNL     1     -12.719  13.039  71.320  0.00  0.00    +0.092 C 
ATOM     15  C   UNL     1     -10.383  14.775  69.575  0.00  0.00    +0.126 A 
ENDROOT
TORSDOF 0
ENDMDL
MODEL 9
REMARK VINA RESULT:      -5.2      2.563      3.147
REMARK  Name = 
REMARK  0 active torsions:
REMARK  status: ('A' for Active; 'I' for Inactive)
REMARK                            x       y       z     vdW  Elec       q    Type
REMARK                         _______ _______ _______ _____ _____    ______ ____
ROOT
ATOM      1  N   UNL     1      -8.722  10.983  65.366  0.00  0.00    -0.057 NA
ATOM      2  C   UNL     1     -10.076  11.418  65.547  0.00  0.00    +0.336 A 
ATOM      3  N   UNL     1     -10.760  11.668  64.405  0.00  0.00    -0.113 N 
ATOM      4  O   UNL     1     -10.120  11.877  63.195  0.00  0.00    -0.616 OA
ATOM      5  C   UNL     1     -12.008  12.173  64.557  0.00  0.00    +0.429 A 
ATOM      6  N   UNL     1     -12.865  12.205  63.409  0.00  0.00    -0.038 NA
ATOM      7  N   UNL     1     -12.433  12.630  65.760  0.00  0.00    -0.152 NA
ATOM      8  C   UNL     1     -11.573  12.841  66.785  0.00  0.00    +0.147 A 
ATOM      9  N   UNL     1     -11.589  14.050  67.552  0.00  0.00    -0.293 N 
ATOM     10  C   UNL     1     -10.704  15.155  67.203  0.00  0.00    +0.092 C 
ATOM     11  C   UNL     1      -9.535  15.255  68.171  0.00  0.00    +0.022 C 
ATOM     12  C   UNL     1     -10.120  15.431  69.548  0.00  0.00    +0.004 C 
ATOM     13  C   UNL     1     -11.626  15.347  69.544  0.00  0.00    +0.022 C 
ATOM     14  C   UNL     1     -12.100  14.038  68.921  0.00  0.00    +0.092 C 
ATOM     15  C   UNL     1     -10.419  12.067  66.729  0.00  0.00    +0.126 A 
ENDROOT
TORSDOF 0
ENDMDL
