MODEL 1
REMARK VINA RESULT:      -3.8      0.000      0.000
REMARK  Name = 
REMARK  6 active torsions:
REMARK  status: ('A' for Active; 'I' for Inactive)
REMARK    1  A    between atoms: C_2  and  C_3
REMARK    2  A    between atoms: C_3  and  N_4
REMARK    3  A    between atoms: N_4  and  C_5
REMARK    4  A    between atoms: N_4  and  C_8
REMARK    5  A    between atoms: C_5  and  C_6
REMARK    6  A    between atoms: C_8  and  C_9
REMARK                            x       y       z     vdW  Elec       q    Type
REMARK                         _______ _______ _______ _____ _____    ______ ____
ROOT
ATOM      1  N   UNL     1     -11.586  14.066  65.806  0.00  0.00    -0.266 NA
ENDROOT
BRANCH   1   2
ATOM      2  C   UNL     1     -10.485  14.698  65.203  0.00  0.00    +0.108 C 
BRANCH   2   4
ATOM      3  O   UNL     1     -11.276  16.770  64.256  0.00  0.00    -0.219 OA
ATOM      4  C   UNL     1     -10.641  16.195  65.343  0.00  0.00    +0.199 C 
ENDBRANCH   2   4
ENDBRANCH   1   2
BRANCH   1   5
ATOM      5  C   UNL     1     -11.507  13.670  67.150  0.00  0.00    +0.108 C 
BRANCH   5   6
ATOM      6  C   UNL     1     -11.138  12.201  67.240  0.00  0.00    +0.199 C 
ATOM      7  O   UNL     1     -12.119  11.490  67.913  0.00  0.00    -0.219 OA
ENDBRANCH   5   6
ENDBRANCH   1   5
BRANCH   1   8
ATOM      8  C   UNL     1     -12.627  13.584  65.001  0.00  0.00    +0.108 C 
BRANCH   8   9
ATOM      9  C   UNL     1     -12.095  13.028  63.692  0.00  0.00    +0.199 C 
ATOM     10  O   UNL     1     -12.953  11.976  63.347  0.00  0.00    -0.219 OA
ENDBRANCH   8   9
ENDBRANCH   1   8
TORSDOF 6
ENDMDL
MODEL 2
REMARK VINA RESULT:      -3.8      1.867      3.453
REMARK  Name = 
REMARK  6 active torsions:
REMARK  status: ('A' for Active; 'I' for Inactive)
REMARK    1  A    between atoms: C_2  and  C_3
REMARK    2  A    between atoms: C_3  and  N_4
REMARK    3  A    between atoms: N_4  and  C_5
REMARK    4  A    between atoms: N_4  and  C_8
REMARK    5  A    between atoms: C_5  and  C_6
REMARK    6  A    between atoms: C_8  and  C_9
REMARK                            x       y       z     vdW  Elec       q    Type
REMARK                         _______ _______ _______ _____ _____    ______ ____
ROOT
ATOM      1  N   UNL     1     -10.966  14.360  66.389  0.00  0.00    -0.266 NA
ENDROOT
BRANCH   1   2
ATOM      2  C   UNL     1     -10.489  14.918  67.588  0.00  0.00    +0.108 C 
BRANCH   2   4
ATOM      3  O   UNL     1     -11.822  16.425  68.917  0.00  0.00    -0.219 OA
ATOM      4  C   UNL     1     -11.650  15.106  68.538  0.00  0.00    +0.199 C 
ENDBRANCH   2   4
ENDBRANCH   1   2
BRANCH   1   5
ATOM      5  C   UNL     1     -10.509  14.861  65.161  0.00  0.00    +0.108 C 
BRANCH   5   6
ATOM      6  C   UNL     1     -10.816  16.343  65.056  0.00  0.00    +0.199 C 
ATOM      7  O   UNL     1     -11.587  16.605  63.935  0.00  0.00    -0.219 OA
ENDBRANCH   5   6
ENDBRANCH   1   5
BRANCH   1   8
ATOM      8  C   UNL     1     -12.088  13.520  66.422  0.00  0.00    +0.108 C 
BRANCH   8   9
ATOM      9  C   UNL     1     -12.006  12.452  65.347  0.00  0.00    +0.199 C 
ATOM     10  O   UNL     1     -13.220  12.515  64.652  0.00  0.00    -0.219 OA
ENDBRANCH   8   9
ENDBRANCH   1   8
TORSDOF 6
ENDMDL
MODEL 3
REMARK VINA RESULT:      -3.8      1.860      3.377
REMARK  Name = 
REMARK  6 active torsions:
REMARK  status: ('A' for Active; 'I' for Inactive)
REMARK    1  A    between atoms: C_2  and  C_3
REMARK    2  A    between atoms: C_3  and  N_4
REMARK    3  A    between atoms: N_4  and  C_5
REMARK    4  A    between atoms: N_4  and  C_8
REMARK    5  A    between atoms: C_5  and  C_6
REMARK    6  A    between atoms: C_8  and  C_9
REMARK                            x       y       z     vdW  Elec       q    Type
REMARK                         _______ _______ _______ _____ _____    ______ ____
ROOT
ATOM      1  N   UNL     1     -10.960  14.378  66.509  0.00  0.00    -0.266 NA
ENDROOT
BRANCH   1   2
ATOM      2  C   UNL     1     -10.437  14.880  65.304  0.00  0.00    +0.108 C 
BRANCH   2   4
ATOM      3  O   UNL     1     -11.346  16.810  64.179  0.00  0.00    -0.219 OA
ATOM      4  C   UNL     1     -10.622  16.380  65.277  0.00  0.00    +0.199 C 
ENDBRANCH   2   4
ENDBRANCH   1   2
BRANCH   1   5
ATOM      5  C   UNL     1     -12.121  13.589  66.486  0.00  0.00    +0.108 C 
BRANCH   5   6
ATOM      6  C   UNL     1     -12.031  12.562  65.372  0.00  0.00    +0.199 C 
ATOM      7  O   UNL     1     -13.217  12.511  64.658  0.00  0.00    -0.219 OA
ENDBRANCH   5   6
ENDBRANCH   1   5
BRANCH   1   8
ATOM      8  C   UNL     1     -10.498  14.896  67.727  0.00  0.00    +0.108 C 
BRANCH   8   9
ATOM      9  C   UNL     1     -11.629  15.034  68.729  0.00  0.00    +0.199 C 
ATOM     10  O   UNL     1     -11.836  16.411  68.885  0.00  0.00    -0.219 OA
ENDBRANCH   8   9
ENDBRANCH   1   8
TORSDOF 6
ENDMDL
MODEL 4
REMARK VINA RESULT:      -3.8      1.859      3.677
REMARK  Name = 
REMARK  6 active torsions:
REMARK  status: ('A' for Active; 'I' for Inactive)
REMARK    1  A    between atoms: C_2  and  C_3
REMARK    2  A    between atoms: C_3  and  N_4
REMARK    3  A    between atoms: N_4  and  C_5
REMARK    4  A    between atoms: N_4  and  C_8
REMARK    5  A    between atoms: C_5  and  C_6
REMARK    6  A    between atoms: C_8  and  C_9
REMARK                            x       y       z     vdW  Elec       q    Type
REMARK                         _______ _______ _______ _____ _____    ______ ____
ROOT
ATOM      1  N   UNL     1     -10.997  14.533  66.479  0.00  0.00    -0.266 NA
ENDROOT
BRANCH   1   2
ATOM      2  C   UNL     1     -12.286  14.035  66.221  0.00  0.00    +0.108 C 
BRANCH   2   4
ATOM      3  O   UNL     1     -13.206  12.471  64.632  0.00  0.00    -0.219 OA
ATOM      4  C   UNL     1     -12.165  12.705  65.513  0.00  0.00    +0.199 C 
ENDBRANCH   2   4
ENDBRANCH   1   2
BRANCH   1   5
ATOM      5  C   UNL     1     -10.556  14.664  67.805  0.00  0.00    +0.108 C 
BRANCH   5   6
ATOM      6  C   UNL     1     -11.711  15.072  68.701  0.00  0.00    +0.199 C 
ATOM      7  O   UNL     1     -11.748  16.448  68.854  0.00  0.00    -0.219 OA
ENDBRANCH   5   6
ENDBRANCH   1   5
BRANCH   1   8
ATOM      8  C   UNL     1     -10.283  15.155  65.446  0.00  0.00    +0.108 C 
BRANCH   8   9
ATOM      9  C   UNL     1     -10.563  16.647  65.406  0.00  0.00    +0.199 C 
ATOM     10  O   UNL     1     -11.308  16.865  64.240  0.00  0.00    -0.219 OA
ENDBRANCH   8   9
ENDBRANCH   1   8
TORSDOF 6
ENDMDL
MODEL 5
REMARK VINA RESULT:      -3.8      1.833      3.186
REMARK  Name = 
REMARK  6 active torsions:
REMARK  status: ('A' for Active; 'I' for Inactive)
REMARK    1  A    between atoms: C_2  and  C_3
REMARK    2  A    between atoms: C_3  and  N_4
REMARK    3  A    between atoms: N_4  and  C_5
REMARK    4  A    between atoms: N_4  and  C_8
REMARK    5  A    between atoms: C_5  and  C_6
REMARK    6  A    between atoms: C_8  and  C_9
REMARK                            x       y       z     vdW  Elec       q    Type
REMARK                         _______ _______ _______ _____ _____    ______ ____
ROOT
ATOM      1  N   UNL     1     -11.207  14.657  66.503  0.00  0.00    -0.266 NA
ENDROOT
BRANCH   1   2
ATOM      2  C   UNL     1     -10.551  14.894  67.724  0.00  0.00    +0.108 C 
BRANCH   2   4
ATOM      3  O   UNL     1     -11.270  17.043  68.549  0.00  0.00    -0.219 OA
ATOM      4  C   UNL     1     -11.472  15.676  68.631  0.00  0.00    +0.199 C 
ENDBRANCH   2   4
ENDBRANCH   1   2
BRANCH   1   5
ATOM      5  C   UNL     1     -12.319  13.802  66.468  0.00  0.00    +0.108 C 
BRANCH   5   6
ATOM      6  C   UNL     1     -12.076  12.671  65.485  0.00  0.00    +0.199 C 
ATOM      7  O   UNL     1     -13.175  12.497  64.659  0.00  0.00    -0.219 OA
ENDBRANCH   5   6
ENDBRANCH   1   5
BRANCH   1   8
ATOM      8  C   UNL     1     -10.586  15.037  65.305  0.00  0.00    +0.108 C 
BRANCH   8   9
ATOM      9  C   UNL     1     -10.765  16.521  65.041  0.00  0.00    +0.199 C 
ATOM     10  O   UNL     1     -11.600  16.611  63.920  0.00  0.00    -0.219 OA
ENDBRANCH   8   9
ENDBRANCH   1   8
TORSDOF 6
ENDMDL
MODEL 6
REMARK VINA RESULT:      -3.8      0.935      2.927
REMARK  Name = 
REMARK  6 active torsions:
REMARK  status: ('A' for Active; 'I' for Inactive)
REMARK    1  A    between atoms: C_2  and  C_3
REMARK    2  A    between atoms: C_3  and  N_4
REMARK    3  A    between atoms: N_4  and  C_5
REMARK    4  A    between atoms: N_4  and  C_8
REMARK    5  A    between atoms: C_5  and  C_6
REMARK    6  A    between atoms: C_8  and  C_9
REMARK                            x       y       z     vdW  Elec       q    Type
REMARK                         _______ _______ _______ _____ _____    ______ ____
ROOT
ATOM      1  N   UNL     1     -10.799  13.846  65.386  0.00  0.00    -0.266 NA
ENDROOT
BRANCH   1   2
ATOM      2  C   UNL     1      -9.957  14.972  65.392  0.00  0.00    +0.108 C 
BRANCH   2   4
ATOM      3  O   UNL     1     -11.269  16.623  64.223  0.00  0.00    -0.219 OA
ATOM      4  C   UNL     1     -10.808  16.219  65.464  0.00  0.00    +0.199 C 
ENDBRANCH   2   4
ENDBRANCH   1   2
BRANCH   1   5
ATOM      5  C   UNL     1     -10.736  12.938  64.317  0.00  0.00    +0.108 C 
BRANCH   5   6
ATOM      6  C   UNL     1     -12.133  12.625  63.816  0.00  0.00    +0.199 C 
ATOM      7  O   UNL     1     -12.636  13.683  63.075  0.00  0.00    -0.219 OA
ENDBRANCH   5   6
ENDBRANCH   1   5
BRANCH   1   8
ATOM      8  C   UNL     1     -11.877  13.789  66.281  0.00  0.00    +0.108 C 
BRANCH   8   9
ATOM      9  C   UNL     1     -11.518  12.991  67.522  0.00  0.00    +0.199 C 
ATOM     10  O   UNL     1     -12.018  11.701  67.304  0.00  0.00    -0.219 OA
ENDBRANCH   8   9
ENDBRANCH   1   8
TORSDOF 6
ENDMDL
MODEL 7
REMARK VINA RESULT:      -3.7      1.852      2.140
REMARK  Name = 
REMARK  6 active torsions:
REMARK  status: ('A' for Active; 'I' for Inactive)
REMARK    1  A    between atoms: C_2  and  C_3
REMARK    2  A    between atoms: C_3  and  N_4
REMARK    3  A    between atoms: N_4  and  C_5
REMARK    4  A    between atoms: N_4  and  C_8
REMARK    5  A    between atoms: C_5  and  C_6
REMARK    6  A    between atoms: C_8  and  C_9
REMARK                            x       y       z     vdW  Elec       q    Type
REMARK                         _______ _______ _______ _____ _____    ______ ____
ROOT
ATOM      1  N   UNL     1     -11.124  14.631  66.600  0.00  0.00    -0.266 NA
ENDROOT
BRANCH   1   2
ATOM      2  C   UNL     1     -10.242  15.160  65.642  0.00  0.00    +0.108 C 
BRANCH   2   4
ATOM      3  O   UNL     1     -11.274  16.852  64.268  0.00  0.00    -0.219 OA
ATOM      4  C   UNL     1     -10.565  16.622  65.434  0.00  0.00    +0.199 C 
ENDBRANCH   2   4
ENDBRANCH   1   2
BRANCH   1   5
ATOM      5  C   UNL     1     -10.703  14.495  67.932  0.00  0.00    +0.108 C 
BRANCH   5   6
ATOM      6  C   UNL     1     -11.752  15.060  68.871  0.00  0.00    +0.199 C 
ATOM      7  O   UNL     1     -11.745  16.445  68.836  0.00  0.00    -0.219 OA
ENDBRANCH   5   6
ENDBRANCH   1   5
BRANCH   1   8
ATOM      8  C   UNL     1     -12.293  13.986  66.173  0.00  0.00    +0.108 C 
BRANCH   8   9
ATOM      9  C   UNL     1     -12.035  13.144  64.936  0.00  0.00    +0.199 C 
ATOM     10  O   UNL     1     -13.239  12.479  64.668  0.00  0.00    -0.219 OA
ENDBRANCH   8   9
ENDBRANCH   1   8
TORSDOF 6
ENDMDL
MODEL 8
REMARK VINA RESULT:      -3.7      0.856      3.940
REMARK  Name = 
REMARK  6 active torsions:
REMARK  status: ('A' for Active; 'I' for Inactive)
REMARK    1  A    between atoms: C_2  and  C_3
REMARK    2  A    between atoms: C_3  and  N_4
REMARK    3  A    between atoms: N_4  and  C_5
REMARK    4  A    between atoms: N_4  and  C_8
REMARK    5  A    between atoms: C_5  and  C_6
REMARK    6  A    between atoms: C_8  and  C_9
REMARK                            x       y       z     vdW  Elec       q    Type
REMARK                         _______ _______ _______ _____ _____    ______ ____
ROOT
ATOM      1  N   UNL     1     -11.155  13.476  65.415  0.00  0.00    -0.266 NA
ENDROOT
BRANCH   1   2
ATOM      2  C   UNL     1     -10.877  12.747  64.245  0.00  0.00    +0.108 C 
BRANCH   2   4
ATOM      3  O   UNL     1     -13.062  11.938  63.620  0.00  0.00    -0.219 OA
ATOM      4  C   UNL     1     -12.063  12.846  63.313  0.00  0.00    +0.199 C 
ENDBRANCH   2   4
ENDBRANCH   1   2
BRANCH   1   5
ATOM      5  C   UNL     1     -11.793  14.722  65.320  0.00  0.00    +0.108 C 
BRANCH   5   6
ATOM      6  C   UNL     1     -10.770  15.814  65.069  0.00  0.00    +0.199 C 
ATOM      7  O   UNL     1     -11.285  16.782  64.222  0.00  0.00    -0.219 OA
ENDBRANCH   5   6
ENDBRANCH   1   5
BRANCH   1   8
ATOM      8  C   UNL     1     -10.547  13.097  66.620  0.00  0.00    +0.108 C 
BRANCH   8   9
ATOM      9  C   UNL     1     -11.584  12.763  67.676  0.00  0.00    +0.199 C 
ATOM     10  O   UNL     1     -12.044  11.476  67.367  0.00  0.00    -0.219 OA
ENDBRANCH   8   9
ENDBRANCH   1   8
TORSDOF 6
ENDMDL
MODEL 9
REMARK VINA RESULT:      -3.7      0.921      3.640
REMARK  Name = 
REMARK  6 active torsions:
REMARK  status: ('A' for Active; 'I' for Inactive)
REMARK    1  A    between atoms: C_2  and  C_3
REMARK    2  A    between atoms: C_3  and  N_4
REMARK    3  A    between atoms: N_4  and  C_5
REMARK    4  A    between atoms: N_4  and  C_8
REMARK    5  A    between atoms: C_5  and  C_6
REMARK    6  A    between atoms: C_8  and  C_9
REMARK                            x       y       z     vdW  Elec       q    Type
REMARK                         _______ _______ _______ _____ _____    ______ ____
ROOT
ATOM      1  N   UNL     1     -10.813  14.002  65.479  0.00  0.00    -0.266 NA
ENDROOT
BRANCH   1   2
ATOM      2  C   UNL     1     -11.889  13.943  66.382  0.00  0.00    +0.108 C 
BRANCH   2   4
ATOM      3  O   UNL     1     -12.008  11.792  67.467  0.00  0.00    -0.219 OA
ATOM      4  C   UNL     1     -11.496  13.075  67.555  0.00  0.00    +0.199 C 
ENDBRANCH   2   4
ENDBRANCH   1   2
BRANCH   1   5
ATOM      5  C   UNL     1      -9.974  15.127  65.472  0.00  0.00    +0.108 C 
BRANCH   5   6
ATOM      6  C   UNL     1     -10.805  16.397  65.488  0.00  0.00    +0.199 C 
ATOM      7  O   UNL     1     -11.268  16.695  64.217  0.00  0.00    -0.219 OA
ENDBRANCH   5   6
ENDBRANCH   1   5
BRANCH   1   8
ATOM      8  C   UNL     1     -10.757  13.089  64.416  0.00  0.00    +0.108 C 
BRANCH   8   9
ATOM      9  C   UNL     1     -12.149  12.663  63.987  0.00  0.00    +0.199 C 
ATOM     10  O   UNL     1     -12.593  13.648  63.095  0.00  0.00    -0.219 OA
ENDBRANCH   8   9
ENDBRANCH   1   8
TORSDOF 6
ENDMDL
