MODEL 1
REMARK VINA RESULT:      -7.8      0.000      0.000
REMARK  Name = 
REMARK  4 active torsions:
REMARK  status: ('A' for Active; 'I' for Inactive)
REMARK    1  A    between atoms: S_2  and  C_5
REMARK    2  A    between atoms: C_10  and  C_11
REMARK    3  A    between atoms: C_16  and  C_17
REMARK    4  A    between atoms: C_17  and  C_18
REMARK                            x       y       z     vdW  Elec       q    Type
REMARK                         _______ _______ _______ _____ _____    ______ ____
ROOT
ATOM      1  C   UNL     1      -8.873  17.356  66.331  0.00  0.00    +0.130 A 
ATOM      2  C   UNL     1      -9.777  18.055  67.121  0.00  0.00    +0.091 A 
ATOM      3  C   UNL     1     -10.649  17.387  67.978  0.00  0.00    +0.023 A 
ATOM      4  C   UNL     1     -10.848  16.027  67.854  0.00  0.00    +0.086 A 
ATOM      5  N   UNL     1     -10.952  15.130  68.974  0.00  0.00    -0.218 NA
ATOM      6  C   UNL     1     -12.139  14.104  68.768  0.00  0.00    +0.193 C 
ATOM      7  N   UNL     1     -11.303  13.039  67.960  0.00  0.00    -0.057 NA
ATOM      8  S   UNL     1      -9.989  13.671  67.218  0.00  0.00    +0.080 S 
ATOM      9  O   UNL     1      -9.696  12.963  65.940  0.00  0.00    -0.152 OA
ATOM     10  O   UNL     1      -8.834  13.588  68.195  0.00  0.00    -0.152 OA
ATOM     11  C   UNL     1     -10.223  15.375  66.789  0.00  0.00    +0.140 A 
ATOM     12  C   UNL     1      -9.244  16.034  66.097  0.00  0.00    +0.041 A 
ENDROOT
BRANCH   1  14
ATOM     13  N   UNL     1      -6.901  17.241  65.934  0.00  0.00    +0.039 NA
ATOM     14  S   UNL     1      -7.216  17.767  66.159  0.00  0.00    +0.094 S 
ATOM     15  O   UNL     1      -6.797  18.700  65.131  0.00  0.00    -0.150 OA
ATOM     16  O   UNL     1      -6.497  17.919  67.487  0.00  0.00    -0.150 OA
ENDBRANCH   1  14
BRANCH   2  17
ATOM     17  C   UNL     1      -9.628  19.518  67.084  0.00  0.00    +0.420 C 
ATOM     18  F   UNL     1     -10.835  19.994  67.603  0.00  0.00    -0.166 F 
ATOM     19  F   UNL     1      -9.593  20.054  65.821  0.00  0.00    -0.166 F 
ATOM     20  F   UNL     1      -8.661  20.005  67.927  0.00  0.00    -0.166 F 
ENDBRANCH   2  17
BRANCH   6  21
ATOM     21  C   UNL     1     -11.798  13.381  70.214  0.00  0.00    +0.068 C 
BRANCH  21  22
ATOM     22  C   UNL     1     -12.359  14.207  71.274  0.00  0.00    -0.019 A 
ATOM     23  C   UNL     1     -13.735  14.409  71.251  0.00  0.00    -0.004 A 
ATOM     24  C   UNL     1     -14.360  15.290  72.108  0.00  0.00    -0.000 A 
ATOM     25  C   UNL     1     -13.625  15.995  73.052  0.00  0.00    -0.000 A 
ATOM     26  C   UNL     1     -12.253  16.014  72.831  0.00  0.00    -0.000 A 
ATOM     27  C   UNL     1     -11.635  14.998  72.135  0.00  0.00    -0.004 A 
ENDBRANCH  21  22
ENDBRANCH   6  21
TORSDOF 4
ENDMDL
MODEL 2
REMARK VINA RESULT:      -7.2      2.423      3.034
REMARK  Name = 
REMARK  4 active torsions:
REMARK  status: ('A' for Active; 'I' for Inactive)
REMARK    1  A    between atoms: S_2  and  C_5
REMARK    2  A    between atoms: C_10  and  C_11
REMARK    3  A    between atoms: C_16  and  C_17
REMARK    4  A    between atoms: C_17  and  C_18
REMARK                            x       y       z     vdW  Elec       q    Type
REMARK                         _______ _______ _______ _____ _____    ______ ____
ROOT
ATOM      1  C   UNL     1      -6.896  19.182  66.486  0.00  0.00    +0.130 A 
ATOM      2  C   UNL     1      -6.825  19.481  67.840  0.00  0.00    +0.091 A 
ATOM      3  C   UNL     1      -7.648  18.840  68.763  0.00  0.00    +0.023 A 
ATOM      4  C   UNL     1      -8.746  18.119  68.339  0.00  0.00    +0.086 A 
ATOM      5  N   UNL     1      -9.134  16.852  68.899  0.00  0.00    -0.218 NA
ATOM      6  C   UNL     1     -10.697  16.795  69.137  0.00  0.00    +0.193 C 
ATOM      7  N   UNL     1     -11.070  16.297  67.688  0.00  0.00    -0.057 NA
ATOM      8  S   UNL     1      -9.940  16.664  66.564  0.00  0.00    +0.080 S 
ATOM      9  O   UNL     1     -10.562  16.920  65.234  0.00  0.00    -0.152 OA
ATOM     10  O   UNL     1      -8.953  15.515  66.522  0.00  0.00    -0.152 OA
ATOM     11  C   UNL     1      -9.048  18.140  66.975  0.00  0.00    +0.140 A 
ATOM     12  C   UNL     1      -8.114  18.627  66.102  0.00  0.00    +0.041 A 
ENDROOT
BRANCH   1  14
ATOM     13  N   UNL     1      -5.750  18.701  64.900  0.00  0.00    +0.039 NA
ATOM     14  S   UNL     1      -5.533  18.900  65.482  0.00  0.00    +0.094 S 
ATOM     15  O   UNL     1      -4.723  20.010  65.019  0.00  0.00    -0.150 OA
ATOM     16  O   UNL     1      -4.749  17.661  65.874  0.00  0.00    -0.150 OA
ENDBRANCH   1  14
BRANCH   2  17
ATOM     17  C   UNL     1      -5.732  20.394  68.215  0.00  0.00    +0.420 C 
ATOM     18  F   UNL     1      -6.062  20.802  69.510  0.00  0.00    -0.166 F 
ATOM     19  F   UNL     1      -5.708  21.570  67.509  0.00  0.00    -0.166 F 
ATOM     20  F   UNL     1      -4.509  19.785  68.334  0.00  0.00    -0.166 F 
ENDBRANCH   2  17
BRANCH   6  21
ATOM     21  C   UNL     1     -10.578  15.251  69.714  0.00  0.00    +0.068 C 
BRANCH  21  22
ATOM     22  C   UNL     1     -11.647  15.048  70.682  0.00  0.00    -0.019 A 
ATOM     23  C   UNL     1     -11.705  15.937  71.749  0.00  0.00    -0.004 A 
ATOM     24  C   UNL     1     -12.575  15.758  72.805  0.00  0.00    -0.000 A 
ATOM     25  C   UNL     1     -13.450  14.681  72.820  0.00  0.00    -0.000 A 
ATOM     26  C   UNL     1     -13.143  13.663  71.924  0.00  0.00    -0.000 A 
ATOM     27  C   UNL     1     -12.438  13.927  70.770  0.00  0.00    -0.004 A 
ENDBRANCH  21  22
ENDBRANCH   6  21
TORSDOF 4
ENDMDL
MODEL 3
REMARK VINA RESULT:      -7.1      1.746      2.340
REMARK  Name = 
REMARK  4 active torsions:
REMARK  status: ('A' for Active; 'I' for Inactive)
REMARK    1  A    between atoms: S_2  and  C_5
REMARK    2  A    between atoms: C_10  and  C_11
REMARK    3  A    between atoms: C_16  and  C_17
REMARK    4  A    between atoms: C_17  and  C_18
REMARK                            x       y       z     vdW  Elec       q    Type
REMARK                         _______ _______ _______ _____ _____    ______ ____
ROOT
ATOM      1  C   UNL     1      -9.123  18.032  66.686  0.00  0.00    +0.130 A 
ATOM      2  C   UNL     1      -9.581  18.195  67.988  0.00  0.00    +0.091 A 
ATOM      3  C   UNL     1     -10.177  17.142  68.678  0.00  0.00    +0.023 A 
ATOM      4  C   UNL     1     -10.595  16.011  68.006  0.00  0.00    +0.086 A 
ATOM      5  N   UNL     1     -10.419  14.675  68.506  0.00  0.00    -0.218 NA
ATOM      6  C   UNL     1     -11.732  13.817  68.301  0.00  0.00    +0.193 C 
ATOM      7  N   UNL     1     -11.395  13.340  66.836  0.00  0.00    -0.057 NA
ATOM      8  S   UNL     1     -10.355  14.331  66.053  0.00  0.00    +0.080 S 
ATOM      9  O   UNL     1     -10.637  14.365  64.590  0.00  0.00    -0.152 OA
ATOM     10  O   UNL     1      -8.952  13.844  66.354  0.00  0.00    -0.152 OA
ATOM     11  C   UNL     1     -10.486  16.008  66.613  0.00  0.00    +0.140 A 
ATOM     12  C   UNL     1      -9.734  16.979  66.010  0.00  0.00    +0.041 A 
ENDROOT
BRANCH   1  14
ATOM     13  N   UNL     1      -7.416  18.183  65.627  0.00  0.00    +0.039 NA
ATOM     14  S   UNL     1      -7.595  18.570  66.122  0.00  0.00    +0.094 S 
ATOM     15  O   UNL     1      -7.477  19.838  65.428  0.00  0.00    -0.150 OA
ATOM     16  O   UNL     1      -6.461  18.261  67.082  0.00  0.00    -0.150 OA
ENDBRANCH   1  14
BRANCH   2  17
ATOM     17  C   UNL     1      -9.252  19.492  68.600  0.00  0.00    +0.420 C 
ATOM     18  F   UNL     1     -10.197  19.634  69.620  0.00  0.00    -0.166 F 
ATOM     19  F   UNL     1      -9.491  20.578  67.794  0.00  0.00    -0.166 F 
ATOM     20  F   UNL     1      -8.037  19.520  69.234  0.00  0.00    -0.166 F 
ENDBRANCH   2  17
BRANCH   6  21
ATOM     21  C   UNL     1     -11.005  12.495  68.975  0.00  0.00    +0.068 C 
BRANCH  21  22
ATOM     22  C   UNL     1     -11.934  11.909  69.931  0.00  0.00    -0.019 A 
ATOM     23  C   UNL     1     -12.441  12.753  70.914  0.00  0.00    -0.004 A 
ATOM     24  C   UNL     1     -13.206  12.282  71.960  0.00  0.00    -0.000 A 
ATOM     25  C   UNL     1     -13.520  10.933  72.049  0.00  0.00    -0.000 A 
ATOM     26  C   UNL     1     -12.745  10.096  71.256  0.00  0.00    -0.000 A 
ATOM     27  C   UNL     1     -12.159  10.563  70.100  0.00  0.00    -0.004 A 
ENDBRANCH  21  22
ENDBRANCH   6  21
TORSDOF 4
ENDMDL
MODEL 4
REMARK VINA RESULT:      -6.9      3.349      4.417
REMARK  Name = 
REMARK  4 active torsions:
REMARK  status: ('A' for Active; 'I' for Inactive)
REMARK    1  A    between atoms: S_2  and  C_5
REMARK    2  A    between atoms: C_10  and  C_11
REMARK    3  A    between atoms: C_16  and  C_17
REMARK    4  A    between atoms: C_17  and  C_18
REMARK                            x       y       z     vdW  Elec       q    Type
REMARK                         _______ _______ _______ _____ _____    ______ ____
ROOT
ATOM      1  C   UNL     1     -10.877  15.848  66.961  0.00  0.00    +0.130 A 
ATOM      2  C   UNL     1     -10.616  15.913  68.324  0.00  0.00    +0.091 A 
ATOM      3  C   UNL     1     -10.528  14.756  69.096  0.00  0.00    +0.023 A 
ATOM      4  C   UNL     1     -10.983  13.550  68.604  0.00  0.00    +0.086 A 
ATOM      5  N   UNL     1     -10.294  12.301  68.790  0.00  0.00    -0.218 NA
ATOM      6  C   UNL     1     -11.307  11.150  69.182  0.00  0.00    +0.193 C 
ATOM      7  N   UNL     1     -11.687  10.750  67.705  0.00  0.00    -0.057 NA
ATOM      8  S   UNL     1     -11.442  11.951  66.622  0.00  0.00    +0.080 S 
ATOM      9  O   UNL     1     -12.442  11.898  65.518  0.00  0.00    -0.152 OA
ATOM     10  O   UNL     1     -10.020  11.820  66.113  0.00  0.00    -0.152 OA
ATOM     11  C   UNL     1     -11.615  13.555  67.358  0.00  0.00    +0.140 A 
ATOM     12  C   UNL     1     -11.511  14.670  66.572  0.00  0.00    +0.041 A 
ENDROOT
BRANCH   1  14
ATOM     13  N   UNL     1     -10.119  16.438  65.191  0.00  0.00    +0.039 NA
ATOM     14  S   UNL     1     -10.019  16.730  65.766  0.00  0.00    +0.094 S 
ATOM     15  O   UNL     1     -10.452  18.061  65.388  0.00  0.00    -0.150 OA
ATOM     16  O   UNL     1      -8.515  16.553  65.859  0.00  0.00    -0.150 OA
ENDBRANCH   1  14
BRANCH   2  17
ATOM     17  C   UNL     1     -10.301  17.259  68.829  0.00  0.00    +0.420 C 
ATOM     18  F   UNL     1     -10.784  17.250  70.140  0.00  0.00    -0.166 F 
ATOM     19  F   UNL     1     -11.014  18.270  68.235  0.00  0.00    -0.166 F 
ATOM     20  F   UNL     1      -8.958  17.513  68.946  0.00  0.00    -0.166 F 
ENDBRANCH   2  17
BRANCH   6  21
ATOM     21  C   UNL     1     -10.074  10.051  69.239  0.00  0.00    +0.068 C 
BRANCH  21  22
ATOM     22  C   UNL     1     -10.079   9.439  70.561  0.00  0.00    -0.019 A 
ATOM     23  C   UNL     1      -8.883   8.880  70.998  0.00  0.00    -0.004 A 
ATOM     24  C   UNL     1      -8.802   8.143  72.161  0.00  0.00    -0.000 A 
ATOM     25  C   UNL     1      -9.926   7.956  72.955  0.00  0.00    -0.000 A 
ATOM     26  C   UNL     1     -11.136   8.242  72.336  0.00  0.00    -0.000 A 
ATOM     27  C   UNL     1     -11.202   9.147  71.299  0.00  0.00    -0.004 A 
ENDBRANCH  21  22
ENDBRANCH   6  21
TORSDOF 4
ENDMDL
MODEL 5
REMARK VINA RESULT:      -6.9      4.657      7.088
REMARK  Name = 
REMARK  4 active torsions:
REMARK  status: ('A' for Active; 'I' for Inactive)
REMARK    1  A    between atoms: S_2  and  C_5
REMARK    2  A    between atoms: C_10  and  C_11
REMARK    3  A    between atoms: C_16  and  C_17
REMARK    4  A    between atoms: C_17  and  C_18
REMARK                            x       y       z     vdW  Elec       q    Type
REMARK                         _______ _______ _______ _____ _____    ______ ____
ROOT
ATOM      1  C   UNL     1     -10.382  14.345  66.229  0.00  0.00    +0.130 A 
ATOM      2  C   UNL     1      -9.130  14.004  66.726  0.00  0.00    +0.091 A 
ATOM      3  C   UNL     1      -8.253  14.980  67.195  0.00  0.00    +0.023 A 
ATOM      4  C   UNL     1      -8.471  16.313  66.912  0.00  0.00    +0.086 A 
ATOM      5  N   UNL     1      -8.280  17.373  67.865  0.00  0.00    -0.218 NA
ATOM      6  C   UNL     1      -7.529  18.598  67.203  0.00  0.00    +0.193 C 
ATOM      7  N   UNL     1      -8.821  19.304  66.639  0.00  0.00    -0.057 NA
ATOM      8  S   UNL     1     -10.078  18.280  66.422  0.00  0.00    +0.080 S 
ATOM      9  O   UNL     1     -10.919  18.693  65.262  0.00  0.00    -0.152 OA
ATOM     10  O   UNL     1     -10.865  18.248  67.716  0.00  0.00    -0.152 OA
ATOM     11  C   UNL     1      -9.537  16.630  66.067  0.00  0.00    +0.140 A 
ATOM     12  C   UNL     1     -10.465  15.663  65.788  0.00  0.00    +0.041 A 
ENDROOT
BRANCH   1  14
ATOM     13  N   UNL     1     -12.338  13.925  66.461  0.00  0.00    +0.039 NA
ATOM     14  S   UNL     1     -11.841  13.544  66.644  0.00  0.00    +0.094 S 
ATOM     15  O   UNL     1     -12.244  12.345  65.935  0.00  0.00    -0.150 OA
ATOM     16  O   UNL     1     -12.104  13.518  68.139  0.00  0.00    -0.150 OA
ENDBRANCH   1  14
BRANCH   2  17
ATOM     17  C   UNL     1      -8.887  12.558  66.849  0.00  0.00    +0.420 C 
ATOM     18  F   UNL     1      -7.495  12.454  66.916  0.00  0.00    -0.166 F 
ATOM     19  F   UNL     1      -9.205  11.832  65.729  0.00  0.00    -0.166 F 
ATOM     20  F   UNL     1      -9.341  12.011  68.022  0.00  0.00    -0.166 F 
ENDBRANCH   2  17
BRANCH   6  21
ATOM     21  C   UNL     1      -7.601  19.441  68.623  0.00  0.00    +0.068 C 
BRANCH  21  22
ATOM     22  C   UNL     1      -6.242  19.796  69.005  0.00  0.00    -0.019 A 
ATOM     23  C   UNL     1      -6.040  20.183  70.326  0.00  0.00    -0.004 A 
ATOM     24  C   UNL     1      -4.833  20.684  70.766  0.00  0.00    -0.000 A 
ATOM     25  C   UNL     1      -3.758  20.795  69.894  0.00  0.00    -0.000 A 
ATOM     26  C   UNL     1      -4.084  20.711  68.547  0.00  0.00    -0.000 A 
ATOM     27  C   UNL     1      -5.202  20.021  68.132  0.00  0.00    -0.004 A 
ENDBRANCH  21  22
ENDBRANCH   6  21
TORSDOF 4
ENDMDL
MODEL 6
REMARK VINA RESULT:      -6.9      4.518      5.855
REMARK  Name = 
REMARK  4 active torsions:
REMARK  status: ('A' for Active; 'I' for Inactive)
REMARK    1  A    between atoms: S_2  and  C_5
REMARK    2  A    between atoms: C_10  and  C_11
REMARK    3  A    between atoms: C_16  and  C_17
REMARK    4  A    between atoms: C_17  and  C_18
REMARK                            x       y       z     vdW  Elec       q    Type
REMARK                         _______ _______ _______ _____ _____    ______ ____
ROOT
ATOM      1  C   UNL     1      -6.534  19.369  69.463  0.00  0.00    +0.130 A 
ATOM      2  C   UNL     1      -6.224  18.057  69.795  0.00  0.00    +0.091 A 
ATOM      3  C   UNL     1      -6.875  16.988  69.184  0.00  0.00    +0.023 A 
ATOM      4  C   UNL     1      -8.034  17.193  68.463  0.00  0.00    +0.086 A 
ATOM      5  N   UNL     1      -8.323  16.541  67.214  0.00  0.00    -0.218 NA
ATOM      6  C   UNL     1      -9.820  16.029  67.177  0.00  0.00    +0.193 C 
ATOM      7  N   UNL     1     -10.445  17.377  66.648  0.00  0.00    -0.057 NA
ATOM      8  S   UNL     1      -9.529  18.692  66.977  0.00  0.00    +0.080 S 
ATOM      9  O   UNL     1     -10.375  19.897  67.206  0.00  0.00    -0.152 OA
ATOM     10  O   UNL     1      -8.571  18.878  65.818  0.00  0.00    -0.152 OA
ATOM     11  C   UNL     1      -8.572  18.482  68.454  0.00  0.00    +0.140 A 
ATOM     12  C   UNL     1      -7.804  19.518  68.910  0.00  0.00    +0.041 A 
ENDROOT
BRANCH   1  14
ATOM     13  N   UNL     1      -5.665  21.063  68.803  0.00  0.00    +0.039 NA
ATOM     14  S   UNL     1      -5.371  20.590  69.144  0.00  0.00    +0.094 S 
ATOM     15  O   UNL     1      -4.863  21.415  70.223  0.00  0.00    -0.150 OA
ATOM     16  O   UNL     1      -4.333  20.172  68.119  0.00  0.00    -0.150 OA
ENDBRANCH   1  14
BRANCH   2  17
ATOM     17  C   UNL     1      -5.078  17.904  70.706  0.00  0.00    +0.420 C 
ATOM     18  F   UNL     1      -5.214  16.606  71.205  0.00  0.00    -0.166 F 
ATOM     19  F   UNL     1      -5.141  18.684  71.833  0.00  0.00    -0.166 F 
ATOM     20  F   UNL     1      -3.858  17.919  70.080  0.00  0.00    -0.166 F 
ENDBRANCH   2  17
BRANCH   6  21
ATOM     21  C   UNL     1      -9.607  15.443  65.646  0.00  0.00    +0.068 C 
BRANCH  21  22
ATOM     22  C   UNL     1     -10.566  14.367  65.440  0.00  0.00    -0.019 A 
ATOM     23  C   UNL     1     -10.252  13.423  64.469  0.00  0.00    -0.004 A 
ATOM     24  C   UNL     1     -11.146  12.448  64.079  0.00  0.00    -0.000 A 
ATOM     25  C   UNL     1     -12.398  12.363  64.674  0.00  0.00    -0.000 A 
ATOM     26  C   UNL     1     -12.787  13.493  65.384  0.00  0.00    -0.000 A 
ATOM     27  C   UNL     1     -11.850  14.339  65.934  0.00  0.00    -0.004 A 
ENDBRANCH  21  22
ENDBRANCH   6  21
TORSDOF 4
ENDMDL
MODEL 7
REMARK VINA RESULT:      -6.8      4.271      7.153
REMARK  Name = 
REMARK  4 active torsions:
REMARK  status: ('A' for Active; 'I' for Inactive)
REMARK    1  A    between atoms: S_2  and  C_5
REMARK    2  A    between atoms: C_10  and  C_11
REMARK    3  A    between atoms: C_16  and  C_17
REMARK    4  A    between atoms: C_17  and  C_18
REMARK                            x       y       z     vdW  Elec       q    Type
REMARK                         _______ _______ _______ _____ _____    ______ ____
ROOT
ATOM      1  C   UNL     1     -11.341  12.765  66.992  0.00  0.00    +0.130 A 
ATOM      2  C   UNL     1     -10.625  13.152  65.866  0.00  0.00    +0.091 A 
ATOM      3  C   UNL     1      -9.995  14.393  65.806  0.00  0.00    +0.023 A 
ATOM      4  C   UNL     1     -10.301  15.379  66.721  0.00  0.00    +0.086 A 
ATOM      5  N   UNL     1      -9.320  16.239  67.327  0.00  0.00    -0.218 NA
ATOM      6  C   UNL     1      -9.822  17.739  67.352  0.00  0.00    +0.193 C 
ATOM      7  N   UNL     1     -10.608  17.632  68.715  0.00  0.00    -0.057 NA
ATOM      8  S   UNL     1     -11.061  16.105  69.085  0.00  0.00    +0.080 S 
ATOM      9  O   UNL     1     -12.352  16.089  69.831  0.00  0.00    -0.152 OA
ATOM     10  O   UNL     1      -9.934  15.478  69.880  0.00  0.00    -0.152 OA
ATOM     11  C   UNL     1     -11.325  15.120  67.635  0.00  0.00    +0.140 A 
ATOM     12  C   UNL     1     -11.779  13.836  67.768  0.00  0.00    +0.041 A 
ENDROOT
BRANCH   1  14
ATOM     13  N   UNL     1     -11.705  11.167  68.164  0.00  0.00    +0.039 NA
ATOM     14  S   UNL     1     -11.208  11.229  67.745  0.00  0.00    +0.094 S 
ATOM     15  O   UNL     1     -11.442  10.018  66.983  0.00  0.00    -0.150 OA
ATOM     16  O   UNL     1     -10.060  11.147  68.735  0.00  0.00    -0.150 OA
ENDBRANCH   1  14
BRANCH   2  17
ATOM     17  C   UNL     1     -10.472  12.106  64.842  0.00  0.00    +0.420 C 
ATOM     18  F   UNL     1     -10.075  12.807  63.700  0.00  0.00    -0.166 F 
ATOM     19  F   UNL     1     -11.648  11.513  64.456  0.00  0.00    -0.166 F 
ATOM     20  F   UNL     1      -9.453  11.223  65.091  0.00  0.00    -0.166 F 
ENDBRANCH   2  17
BRANCH   6  21
ATOM     21  C   UNL     1      -8.432  18.217  68.108  0.00  0.00    +0.068 C 
BRANCH  21  22
ATOM     22  C   UNL     1      -7.742  19.153  67.231  0.00  0.00    -0.019 A 
ATOM     23  C   UNL     1      -7.145  18.623  66.092  0.00  0.00    -0.004 A 
ATOM     24  C   UNL     1      -6.338  19.381  65.268  0.00  0.00    -0.000 A 
ATOM     25  C   UNL     1      -6.116  20.724  65.543  0.00  0.00    -0.000 A 
ATOM     26  C   UNL     1      -6.452  21.122  66.831  0.00  0.00    -0.000 A 
ATOM     27  C   UNL     1      -7.418  20.451  67.549  0.00  0.00    -0.004 A 
ENDBRANCH  21  22
ENDBRANCH   6  21
TORSDOF 4
ENDMDL
MODEL 8
REMARK VINA RESULT:      -6.6      4.934      6.661
REMARK  Name = 
REMARK  4 active torsions:
REMARK  status: ('A' for Active; 'I' for Inactive)
REMARK    1  A    between atoms: S_2  and  C_5
REMARK    2  A    between atoms: C_10  and  C_11
REMARK    3  A    between atoms: C_16  and  C_17
REMARK    4  A    between atoms: C_17  and  C_18
REMARK                            x       y       z     vdW  Elec       q    Type
REMARK                         _______ _______ _______ _____ _____    ______ ____
ROOT
ATOM      1  C   UNL     1     -11.992  13.589  69.317  0.00  0.00    +0.130 A 
ATOM      2  C   UNL     1     -12.389  13.023  70.522  0.00  0.00    +0.091 A 
ATOM      3  C   UNL     1     -12.069  11.704  70.837  0.00  0.00    +0.023 A 
ATOM      4  C   UNL     1     -11.615  10.841  69.860  0.00  0.00    +0.086 A 
ATOM      5  N   UNL     1     -10.547   9.898  70.062  0.00  0.00    -0.218 NA
ATOM      6  C   UNL     1     -10.913   8.490  69.440  0.00  0.00    +0.193 C 
ATOM      7  N   UNL     1     -10.393   8.807  67.986  0.00  0.00    -0.057 NA
ATOM      8  S   UNL     1     -10.352  10.406  67.644  0.00  0.00    +0.080 S 
ATOM      9  O   UNL     1     -10.632  10.660  66.202  0.00  0.00    -0.152 OA
ATOM     10  O   UNL     1      -8.991  10.924  68.062  0.00  0.00    -0.152 OA
ATOM     11  C   UNL     1     -11.584  11.309  68.545  0.00  0.00    +0.140 A 
ATOM     12  C   UNL     1     -11.732  12.651  68.321  0.00  0.00    +0.041 A 
ENDROOT
BRANCH   1  14
ATOM     13  N   UNL     1     -11.013  15.183  68.569  0.00  0.00    +0.039 NA
ATOM     14  S   UNL     1     -11.278  15.142  69.164  0.00  0.00    +0.094 S 
ATOM     15  O   UNL     1     -12.113  16.325  69.088  0.00  0.00    -0.150 OA
ATOM     16  O   UNL     1     -10.018  15.304  69.993  0.00  0.00    -0.150 OA
ENDBRANCH   1  14
BRANCH   2  17
ATOM     17  C   UNL     1     -13.024  13.958  71.465  0.00  0.00    +0.420 C 
ATOM     18  F   UNL     1     -13.686  13.126  72.371  0.00  0.00    -0.166 F 
ATOM     19  F   UNL     1     -14.038  14.708  70.924  0.00  0.00    -0.166 F 
ATOM     20  F   UNL     1     -12.137  14.677  72.223  0.00  0.00    -0.166 F 
ENDBRANCH   2  17
BRANCH   6  21
ATOM     21  C   UNL     1      -9.451   7.877  69.907  0.00  0.00    +0.068 C 
BRANCH  21  22
ATOM     22  C   UNL     1      -9.573   7.422  71.285  0.00  0.00    -0.019 A 
ATOM     23  C   UNL     1     -10.674   6.630  71.590  0.00  0.00    -0.004 A 
ATOM     24  C   UNL     1     -10.978   6.266  72.885  0.00  0.00    -0.000 A 
ATOM     25  C   UNL     1     -10.165   6.667  73.937  0.00  0.00    -0.000 A 
ATOM     26  C   UNL     1      -9.287   7.701  73.639  0.00  0.00    -0.000 A 
ATOM     27  C   UNL     1      -8.847   7.905  72.349  0.00  0.00    -0.004 A 
ENDBRANCH  21  22
ENDBRANCH   6  21
TORSDOF 4
ENDMDL
MODEL 9
REMARK VINA RESULT:      -6.6      3.949      5.991
REMARK  Name = 
REMARK  4 active torsions:
REMARK  status: ('A' for Active; 'I' for Inactive)
REMARK    1  A    between atoms: S_2  and  C_5
REMARK    2  A    between atoms: C_10  and  C_11
REMARK    3  A    between atoms: C_16  and  C_17
REMARK    4  A    between atoms: C_17  and  C_18
REMARK                            x       y       z     vdW  Elec       q    Type
REMARK                         _______ _______ _______ _____ _____    ______ ____
ROOT
ATOM      1  C   UNL     1      -9.524  17.216  67.684  0.00  0.00    +0.130 A 
ATOM      2  C   UNL     1      -8.420  16.763  66.973  0.00  0.00    +0.091 A 
ATOM      3  C   UNL     1      -8.381  15.472  66.452  0.00  0.00    +0.023 A 
ATOM      4  C   UNL     1      -9.288  14.519  66.870  0.00  0.00    +0.086 A 
ATOM      5  N   UNL     1      -9.924  13.580  65.986  0.00  0.00    -0.218 NA
ATOM      6  C   UNL     1      -9.936  12.129  66.618  0.00  0.00    +0.193 C 
ATOM      7  N   UNL     1     -11.275  12.310  67.431  0.00  0.00    -0.057 NA
ATOM      8  S   UNL     1     -11.630  13.872  67.760  0.00  0.00    +0.080 S 
ATOM      9  O   UNL     1     -12.337  14.004  69.065  0.00  0.00    -0.152 OA
ATOM     10  O   UNL     1     -12.456  14.402  66.606  0.00  0.00    -0.152 OA
ATOM     11  C   UNL     1     -10.171  14.871  67.894  0.00  0.00    +0.140 A 
ATOM     12  C   UNL     1     -10.289  16.191  68.237  0.00  0.00    +0.041 A 
ENDROOT
BRANCH   1  14
ATOM     13  N   UNL     1     -10.882  18.704  67.686  0.00  0.00    +0.039 NA
ATOM     14  S   UNL     1     -10.279  18.737  67.440  0.00  0.00    +0.094 S 
ATOM     15  O   UNL     1      -9.831  19.902  68.178  0.00  0.00    -0.150 OA
ATOM     16  O   UNL     1     -10.633  19.001  65.988  0.00  0.00    -0.150 OA
ENDBRANCH   1  14
BRANCH   2  17
ATOM     17  C   UNL     1      -7.399  17.787  66.699  0.00  0.00    +0.420 C 
ATOM     18  F   UNL     1      -6.255  17.048  66.387  0.00  0.00    -0.166 F 
ATOM     19  F   UNL     1      -7.017  18.515  67.798  0.00  0.00    -0.166 F 
ATOM     20  F   UNL     1      -7.650  18.544  65.583  0.00  0.00    -0.166 F 
ENDBRANCH   2  17
BRANCH   6  21
ATOM     21  C   UNL     1     -10.733  11.534  65.298  0.00  0.00    +0.068 C 
BRANCH  21  22
ATOM     22  C   UNL     1      -9.819  10.661  64.576  0.00  0.00    -0.019 A 
ATOM     23  C   UNL     1      -9.904  10.670  63.188  0.00  0.00    -0.004 A 
ATOM     24  C   UNL     1      -9.200   9.780  62.405  0.00  0.00    -0.000 A 
ATOM     25  C   UNL     1      -8.351   8.849  62.989  0.00  0.00    -0.000 A 
ATOM     26  C   UNL     1      -8.538   8.658  64.352  0.00  0.00    -0.000 A 
ATOM     27  C   UNL     1      -9.064   9.658  65.140  0.00  0.00    -0.004 A 
ENDBRANCH  21  22
ENDBRANCH   6  21
TORSDOF 4
ENDMDL
