MODEL 1
REMARK VINA RESULT:      -6.7      0.000      0.000
REMARK  Name = 
REMARK  8 active torsions:
REMARK  status: ('A' for Active; 'I' for Inactive)
REMARK    1  A    between atoms: O_2  and  C_3
REMARK    2  A    between atoms: C_8  and  O_9
REMARK    3  A    between atoms: C_13  and  O_14
REMARK    4  A    between atoms: O_14  and  C_15
REMARK    5  A    between atoms: C_15  and  C_17
REMARK    6  A    between atoms: C_17  and  C_19
REMARK    7  A    between atoms: C_22  and  C_23
REMARK    8  A    between atoms: C_23  and  C_24
REMARK                            x       y       z     vdW  Elec       q    Type
REMARK                         _______ _______ _______ _____ _____    ______ ____
ROOT
ATOM      1  C   UNL     1     -12.065  11.063  70.330  0.00  0.00    +0.172 A 
ATOM      2  C   UNL     1     -12.529  12.337  70.634  0.00  0.00    +0.172 A 
ATOM      3  C   UNL     1     -12.251  13.410  69.793  0.00  0.00    +0.037 A 
ATOM      4  C   UNL     1     -11.332  13.202  68.762  0.00  0.00    -0.008 A 
ATOM      5  C   UNL     1     -11.636  14.150  67.465  0.00  0.00    +0.084 C 
ATOM      6  N   UNL     1     -10.176  13.924  66.888  0.00  0.00    -0.270 NA
ATOM      7  C   UNL     1     -10.228  12.660  66.282  0.00  0.00    +0.077 C 
ATOM      8  C   UNL     1     -11.237  11.693  66.777  0.00  0.00    +0.043 C 
ATOM      9  C   UNL     1      -9.218  14.141  67.850  0.00  0.00    +0.076 C 
ATOM     10  C   UNL     1      -8.891  15.717  68.055  0.00  0.00    +0.056 C 
ATOM     11  C   UNL     1     -10.248  16.210  67.112  0.00  0.00    +0.172 C 
ATOM     12  C   UNL     1     -11.231  15.546  68.263  0.00  0.00    +0.064 C 
ATOM     13  C   UNL     1     -11.396  11.905  68.250  0.00  0.00    -0.020 A 
ATOM     14  C   UNL     1     -11.700  10.805  69.040  0.00  0.00    +0.036 A 
ENDROOT
BRANCH   1  16
ATOM     15  C   UNL     1     -11.773   9.552  71.534  0.00  0.00    +0.253 C 
ATOM     16  O   UNL     1     -11.881  10.079  71.291  0.00  0.00    -0.468 OA
ENDBRANCH   1  16
BRANCH   2  17
ATOM     17  O   UNL     1     -13.185  12.470  71.840  0.00  0.00    -0.468 OA
ATOM     18  C   UNL     1     -13.565  13.709  72.379  0.00  0.00    +0.253 C 
ENDBRANCH   2  17
BRANCH  10  19
ATOM     19  C   UNL     1      -7.835  15.899  66.837  0.00  0.00    +0.005 C 
BRANCH  19  20
ATOM     20  C   UNL     1      -6.457  15.898  67.287  0.00  0.00    +0.000 C 
ATOM     21  C   UNL     1      -6.410  16.222  68.777  0.00  0.00    +0.000 C 
ATOM     22  C   UNL     1      -5.658  16.996  66.603  0.00  0.00    +0.000 C 
ENDBRANCH  19  20
ENDBRANCH  10  19
BRANCH  11  23
ATOM     23  O   UNL     1     -10.202  17.622  67.706  0.00  0.00    -0.451 OA
BRANCH  23  24
ATOM     24  C   UNL     1     -10.329  18.713  66.963  0.00  0.00    +0.334 C 
ATOM     25  O   UNL     1     -10.482  18.626  65.748  0.00  0.00    -0.249 OA
BRANCH  24  26
ATOM     26  C   UNL     1      -9.659  20.096  67.494  0.00  0.00    +0.190 C 
ATOM     27  N   UNL     1      -9.805  19.655  69.016  0.00  0.00    -0.121 NA
BRANCH  26  28
ATOM     28  C   UNL     1      -8.116  19.499  67.414  0.00  0.00    +0.029 C 
ATOM     29  C   UNL     1      -7.543  19.650  68.778  0.00  0.00    +0.002 C 
ATOM     30  C   UNL     1      -7.407  20.179  66.315  0.00  0.00    +0.002 C 
ENDBRANCH  26  28
ENDBRANCH  24  26
ENDBRANCH  23  24
ENDBRANCH  11  23
TORSDOF 8
ENDMDL
MODEL 2
REMARK VINA RESULT:      -6.4      2.579      8.135
REMARK  Name = 
REMARK  8 active torsions:
REMARK  status: ('A' for Active; 'I' for Inactive)
REMARK    1  A    between atoms: O_2  and  C_3
REMARK    2  A    between atoms: C_8  and  O_9
REMARK    3  A    between atoms: C_13  and  O_14
REMARK    4  A    between atoms: O_14  and  C_15
REMARK    5  A    between atoms: C_15  and  C_17
REMARK    6  A    between atoms: C_17  and  C_19
REMARK    7  A    between atoms: C_22  and  C_23
REMARK    8  A    between atoms: C_23  and  C_24
REMARK                            x       y       z     vdW  Elec       q    Type
REMARK                         _______ _______ _______ _____ _____    ______ ____
ROOT
ATOM      1  C   UNL     1      -6.187  19.768  66.657  0.00  0.00    +0.172 A 
ATOM      2  C   UNL     1      -6.105  18.456  66.209  0.00  0.00    +0.172 A 
ATOM      3  C   UNL     1      -7.216  17.619  66.260  0.00  0.00    +0.037 A 
ATOM      4  C   UNL     1      -8.336  18.076  66.955  0.00  0.00    -0.008 A 
ATOM      5  C   UNL     1      -9.727  17.467  66.350  0.00  0.00    +0.084 C 
ATOM      6  N   UNL     1     -10.528  17.835  67.669  0.00  0.00    -0.270 NA
ATOM      7  C   UNL     1     -10.791  19.208  67.551  0.00  0.00    +0.077 C 
ATOM      8  C   UNL     1      -9.881  20.020  66.709  0.00  0.00    +0.043 C 
ATOM      9  C   UNL     1      -9.869  17.398  68.794  0.00  0.00    +0.076 C 
ATOM     10  C   UNL     1     -10.117  15.821  69.084  0.00  0.00    +0.056 C 
ATOM     11  C   UNL     1     -10.843  15.562  67.542  0.00  0.00    +0.172 C 
ATOM     12  C   UNL     1      -9.387  15.923  66.848  0.00  0.00    +0.064 C 
ATOM     13  C   UNL     1      -8.501  19.458  66.846  0.00  0.00    -0.020 A 
ATOM     14  C   UNL     1      -7.427  20.332  66.760  0.00  0.00    +0.036 A 
ENDROOT
BRANCH   1  16
ATOM     15  C   UNL     1      -4.748  20.870  67.386  0.00  0.00    +0.253 C 
ATOM     16  O   UNL     1      -5.082  20.493  67.078  0.00  0.00    -0.468 OA
ENDBRANCH   1  16
BRANCH   2  17
ATOM     17  O   UNL     1      -4.855  18.031  65.808  0.00  0.00    -0.468 OA
ATOM     18  C   UNL     1      -4.364  18.201  64.505  0.00  0.00    +0.253 C 
ENDBRANCH   2  17
BRANCH  10  19
ATOM     19  C   UNL     1     -11.537  15.946  69.859  0.00  0.00    +0.005 C 
BRANCH  19  20
ATOM     20  C   UNL     1     -11.569  15.185  71.093  0.00  0.00    +0.000 C 
ATOM     21  C   UNL     1     -12.412  13.930  70.895  0.00  0.00    +0.000 C 
ATOM     22  C   UNL     1     -12.256  15.970  72.201  0.00  0.00    +0.000 C 
ENDBRANCH  19  20
ENDBRANCH  10  19
BRANCH  11  23
ATOM     23  O   UNL     1     -10.625  14.049  67.646  0.00  0.00    -0.451 OA
BRANCH  23  24
ATOM     24  C   UNL     1     -11.270  13.181  66.879  0.00  0.00    +0.334 C 
ATOM     25  O   UNL     1     -11.990  12.322  67.379  0.00  0.00    -0.249 OA
BRANCH  24  26
ATOM     26  C   UNL     1     -10.647  12.820  65.420  0.00  0.00    +0.190 C 
ATOM     27  N   UNL     1     -10.863  11.260  65.645  0.00  0.00    -0.121 NA
BRANCH  26  28
ATOM     28  C   UNL     1     -12.105  12.964  64.648  0.00  0.00    +0.029 C 
ATOM     29  C   UNL     1     -12.074  11.994  63.522  0.00  0.00    +0.002 C 
ATOM     30  C   UNL     1     -12.313  14.382  64.300  0.00  0.00    +0.002 C 
ENDBRANCH  26  28
ENDBRANCH  24  26
ENDBRANCH  23  24
ENDBRANCH  11  23
TORSDOF 8
ENDMDL
MODEL 3
REMARK VINA RESULT:      -6.3      2.739      8.203
REMARK  Name = 
REMARK  8 active torsions:
REMARK  status: ('A' for Active; 'I' for Inactive)
REMARK    1  A    between atoms: O_2  and  C_3
REMARK    2  A    between atoms: C_8  and  O_9
REMARK    3  A    between atoms: C_13  and  O_14
REMARK    4  A    between atoms: O_14  and  C_15
REMARK    5  A    between atoms: C_15  and  C_17
REMARK    6  A    between atoms: C_17  and  C_19
REMARK    7  A    between atoms: C_22  and  C_23
REMARK    8  A    between atoms: C_23  and  C_24
REMARK                            x       y       z     vdW  Elec       q    Type
REMARK                         _______ _______ _______ _____ _____    ______ ____
ROOT
ATOM      1  C   UNL     1      -5.850  19.686  66.925  0.00  0.00    +0.172 A 
ATOM      2  C   UNL     1      -5.957  18.514  66.187  0.00  0.00    +0.172 A 
ATOM      3  C   UNL     1      -7.167  17.831  66.116  0.00  0.00    +0.037 A 
ATOM      4  C   UNL     1      -8.194  18.246  66.966  0.00  0.00    -0.008 A 
ATOM      5  C   UNL     1      -9.672  17.969  66.326  0.00  0.00    +0.084 C 
ATOM      6  N   UNL     1     -10.373  18.115  67.742  0.00  0.00    -0.270 NA
ATOM      7  C   UNL     1     -10.456  19.498  67.955  0.00  0.00    +0.077 C 
ATOM      8  C   UNL     1      -9.474  20.367  67.264  0.00  0.00    +0.043 C 
ATOM      9  C   UNL     1      -9.742  17.351  68.695  0.00  0.00    +0.076 C 
ATOM     10  C   UNL     1     -10.188  15.792  68.636  0.00  0.00    +0.056 C 
ATOM     11  C   UNL     1     -10.993  15.990  67.123  0.00  0.00    +0.172 C 
ATOM     12  C   UNL     1      -9.525  16.322  66.439  0.00  0.00    +0.064 C 
ATOM     13  C   UNL     1      -8.176  19.625  67.183  0.00  0.00    -0.020 A 
ATOM     14  C   UNL     1      -6.999  20.357  67.231  0.00  0.00    +0.036 A 
ENDROOT
BRANCH   1  16
ATOM     15  C   UNL     1      -4.256  20.421  67.784  0.00  0.00    +0.253 C 
ATOM     16  O   UNL     1      -4.644  20.152  67.430  0.00  0.00    -0.468 OA
ENDBRANCH   1  16
BRANCH   2  17
ATOM     17  O   UNL     1      -4.788  18.045  65.623  0.00  0.00    -0.468 OA
ATOM     18  C   UNL     1      -4.327  18.444  64.360  0.00  0.00    +0.253 C 
ENDBRANCH   2  17
BRANCH  10  19
ATOM     19  C   UNL     1     -11.553  15.905  69.506  0.00  0.00    +0.005 C 
BRANCH  19  20
ATOM     20  C   UNL     1     -11.494  15.144  70.739  0.00  0.00    +0.000 C 
ATOM     21  C   UNL     1     -12.384  13.912  70.618  0.00  0.00    +0.000 C 
ATOM     22  C   UNL     1     -12.060  15.946  71.902  0.00  0.00    +0.000 C 
ENDBRANCH  19  20
ENDBRANCH  10  19
BRANCH  11  23
ATOM     23  O   UNL     1     -10.974  14.479  66.867  0.00  0.00    -0.451 OA
BRANCH  23  24
ATOM     24  C   UNL     1     -11.568  13.926  65.818  0.00  0.00    +0.334 C 
ATOM     25  O   UNL     1     -12.239  14.608  65.050  0.00  0.00    -0.249 OA
BRANCH  24  26
ATOM     26  C   UNL     1     -11.960  12.349  65.891  0.00  0.00    +0.190 C 
ATOM     27  N   UNL     1     -12.966  12.479  64.665  0.00  0.00    -0.121 NA
BRANCH  26  28
ATOM     28  C   UNL     1     -10.720  11.889  64.893  0.00  0.00    +0.029 C 
ATOM     29  C   UNL     1     -11.331  11.654  63.558  0.00  0.00    +0.002 C 
ATOM     30  C   UNL     1     -10.016  10.752  65.513  0.00  0.00    +0.002 C 
ENDBRANCH  26  28
ENDBRANCH  24  26
ENDBRANCH  23  24
ENDBRANCH  11  23
TORSDOF 8
ENDMDL
MODEL 4
REMARK VINA RESULT:      -6.0      3.162      5.739
REMARK  Name = 
REMARK  8 active torsions:
REMARK  status: ('A' for Active; 'I' for Inactive)
REMARK    1  A    between atoms: O_2  and  C_3
REMARK    2  A    between atoms: C_8  and  O_9
REMARK    3  A    between atoms: C_13  and  O_14
REMARK    4  A    between atoms: O_14  and  C_15
REMARK    5  A    between atoms: C_15  and  C_17
REMARK    6  A    between atoms: C_17  and  C_19
REMARK    7  A    between atoms: C_22  and  C_23
REMARK    8  A    between atoms: C_23  and  C_24
REMARK                            x       y       z     vdW  Elec       q    Type
REMARK                         _______ _______ _______ _____ _____    ______ ____
ROOT
ATOM      1  C   UNL     1      -9.854  10.205  63.996  0.00  0.00    +0.172 A 
ATOM      2  C   UNL     1     -10.013   9.946  65.352  0.00  0.00    +0.172 A 
ATOM      3  C   UNL     1     -10.587  10.896  66.191  0.00  0.00    +0.037 A 
ATOM      4  C   UNL     1     -10.803  12.172  65.669  0.00  0.00    -0.008 A 
ATOM      5  C   UNL     1     -12.083  12.914  66.365  0.00  0.00    +0.084 C 
ATOM      6  N   UNL     1     -11.608  14.337  65.852  0.00  0.00    -0.270 NA
ATOM      7  C   UNL     1     -12.005  14.379  64.507  0.00  0.00    +0.077 C 
ATOM      8  C   UNL     1     -12.164  13.091  63.790  0.00  0.00    +0.043 C 
ATOM      9  C   UNL     1     -10.282  14.558  66.140  0.00  0.00    +0.076 C 
ATOM     10  C   UNL     1     -10.053  15.037  67.674  0.00  0.00    +0.056 C 
ATOM     11  C   UNL     1     -11.672  14.652  68.127  0.00  0.00    +0.172 C 
ATOM     12  C   UNL     1     -11.328  13.063  67.834  0.00  0.00    +0.064 C 
ATOM     13  C   UNL     1     -11.132  12.141  64.313  0.00  0.00    -0.020 A 
ATOM     14  C   UNL     1     -10.612  11.196  63.441  0.00  0.00    +0.036 A 
ENDROOT
BRANCH   1  16
ATOM     15  C   UNL     1      -8.467   9.478  62.828  0.00  0.00    +0.253 C 
ATOM     16  O   UNL     1      -8.908   9.562  63.212  0.00  0.00    -0.468 OA
ENDBRANCH   1  16
BRANCH   2  17
ATOM     17  O   UNL     1      -9.491   8.752  65.805  0.00  0.00    -0.468 OA
ATOM     18  C   UNL     1      -8.448   8.671  66.739  0.00  0.00    +0.253 C 
ENDBRANCH   2  17
BRANCH  10  19
ATOM     19  C   UNL     1     -10.363  16.617  67.476  0.00  0.00    +0.005 C 
BRANCH  19  20
ATOM     20  C   UNL     1      -9.229  17.455  67.816  0.00  0.00    +0.000 C 
ATOM     21  C   UNL     1      -8.276  16.678  68.717  0.00  0.00    +0.000 C 
ATOM     22  C   UNL     1      -9.668  18.664  68.628  0.00  0.00    +0.000 C 
ENDBRANCH  19  20
ENDBRANCH  10  19
BRANCH  11  23
ATOM     23  O   UNL     1     -11.300  14.647  69.614  0.00  0.00    -0.451 OA
BRANCH  23  24
ATOM     24  C   UNL     1     -12.087  15.163  70.548  0.00  0.00    +0.334 C 
ATOM     25  O   UNL     1     -12.794  16.135  70.300  0.00  0.00    -0.249 OA
BRANCH  24  26
ATOM     26  C   UNL     1     -11.667  14.973  72.108  0.00  0.00    +0.190 C 
ATOM     27  N   UNL     1     -12.186  16.428  72.490  0.00  0.00    -0.121 NA
BRANCH  26  28
ATOM     28  C   UNL     1     -13.118  14.290  72.522  0.00  0.00    +0.029 C 
ATOM     29  C   UNL     1     -13.202  13.011  71.768  0.00  0.00    +0.002 C 
ATOM     30  C   UNL     1     -14.186  15.277  72.281  0.00  0.00    +0.002 C 
ENDBRANCH  26  28
ENDBRANCH  24  26
ENDBRANCH  23  24
ENDBRANCH  11  23
TORSDOF 8
ENDMDL
MODEL 5
REMARK VINA RESULT:      -6.0      2.582      8.022
REMARK  Name = 
REMARK  8 active torsions:
REMARK  status: ('A' for Active; 'I' for Inactive)
REMARK    1  A    between atoms: O_2  and  C_3
REMARK    2  A    between atoms: C_8  and  O_9
REMARK    3  A    between atoms: C_13  and  O_14
REMARK    4  A    between atoms: O_14  and  C_15
REMARK    5  A    between atoms: C_15  and  C_17
REMARK    6  A    between atoms: C_17  and  C_19
REMARK    7  A    between atoms: C_22  and  C_23
REMARK    8  A    between atoms: C_23  and  C_24
REMARK                            x       y       z     vdW  Elec       q    Type
REMARK                         _______ _______ _______ _____ _____    ______ ____
ROOT
ATOM      1  C   UNL     1      -6.135  19.623  68.736  0.00  0.00    +0.172 A 
ATOM      2  C   UNL     1      -5.768  18.290  68.591  0.00  0.00    +0.172 A 
ATOM      3  C   UNL     1      -6.719  17.325  68.273  0.00  0.00    +0.037 A 
ATOM      4  C   UNL     1      -8.062  17.706  68.308  0.00  0.00    -0.008 A 
ATOM      5  C   UNL     1      -8.971  16.853  67.250  0.00  0.00    +0.084 C 
ATOM      6  N   UNL     1     -10.313  17.259  67.991  0.00  0.00    -0.270 NA
ATOM      7  C   UNL     1     -10.582  18.562  67.547  0.00  0.00    +0.077 C 
ATOM      8  C   UNL     1      -9.441  19.387  67.084  0.00  0.00    +0.043 C 
ATOM      9  C   UNL     1     -10.223  17.045  69.347  0.00  0.00    +0.076 C 
ATOM     10  C   UNL     1     -10.474  15.492  69.746  0.00  0.00    +0.056 C 
ATOM     11  C   UNL     1     -10.385  14.965  68.107  0.00  0.00    +0.172 C 
ATOM     12  C   UNL     1      -8.800  15.434  68.091  0.00  0.00    +0.064 C 
ATOM     13  C   UNL     1      -8.247  19.032  67.915  0.00  0.00    -0.020 A 
ATOM     14  C   UNL     1      -7.315  20.025  68.179  0.00  0.00    +0.036 A 
ENDROOT
BRANCH   1  16
ATOM     15  C   UNL     1      -5.266  21.006  69.808  0.00  0.00    +0.253 C 
ATOM     16  O   UNL     1      -5.400  20.530  69.484  0.00  0.00    -0.468 OA
ENDBRANCH   1  16
BRANCH   2  17
ATOM     17  O   UNL     1      -4.450  17.992  68.869  0.00  0.00    -0.468 OA
ATOM     18  C   UNL     1      -4.032  16.759  69.390  0.00  0.00    +0.253 C 
ENDBRANCH   2  17
BRANCH  10  19
ATOM     19  C   UNL     1     -12.097  15.514  69.770  0.00  0.00    +0.005 C 
BRANCH  19  20
ATOM     20  C   UNL     1     -12.632  15.779  71.091  0.00  0.00    +0.000 C 
ATOM     21  C   UNL     1     -11.712  15.169  72.143  0.00  0.00    +0.000 C 
ATOM     22  C   UNL     1     -13.979  15.098  71.280  0.00  0.00    +0.000 C 
ENDBRANCH  19  20
ENDBRANCH  10  19
BRANCH  11  23
ATOM     23  O   UNL     1     -10.141  13.516  68.541  0.00  0.00    -0.451 OA
BRANCH  23  24
ATOM     24  C   UNL     1     -10.469  12.479  67.782  0.00  0.00    +0.334 C 
ATOM     25  O   UNL     1     -10.144  12.445  66.599  0.00  0.00    -0.249 OA
BRANCH  24  26
ATOM     26  C   UNL     1     -11.787  11.612  68.180  0.00  0.00    +0.190 C 
ATOM     27  N   UNL     1     -11.116  10.253  67.695  0.00  0.00    -0.121 NA
BRANCH  26  28
ATOM     28  C   UNL     1     -11.281  11.367  69.738  0.00  0.00    +0.029 C 
ATOM     29  C   UNL     1     -10.805   9.960  69.801  0.00  0.00    +0.002 C 
ATOM     30  C   UNL     1     -12.377  11.742  70.651  0.00  0.00    +0.002 C 
ENDBRANCH  26  28
ENDBRANCH  24  26
ENDBRANCH  23  24
ENDBRANCH  11  23
TORSDOF 8
ENDMDL
MODEL 6
REMARK VINA RESULT:      -5.9      1.977      2.739
REMARK  Name = 
REMARK  8 active torsions:
REMARK  status: ('A' for Active; 'I' for Inactive)
REMARK    1  A    between atoms: O_2  and  C_3
REMARK    2  A    between atoms: C_8  and  O_9
REMARK    3  A    between atoms: C_13  and  O_14
REMARK    4  A    between atoms: O_14  and  C_15
REMARK    5  A    between atoms: C_15  and  C_17
REMARK    6  A    between atoms: C_17  and  C_19
REMARK    7  A    between atoms: C_22  and  C_23
REMARK    8  A    between atoms: C_23  and  C_24
REMARK                            x       y       z     vdW  Elec       q    Type
REMARK                         _______ _______ _______ _____ _____    ______ ____
ROOT
ATOM      1  C   UNL     1     -12.778  13.946  70.901  0.00  0.00    +0.172 A 
ATOM      2  C   UNL     1     -12.613  15.307  71.129  0.00  0.00    +0.172 A 
ATOM      3  C   UNL     1     -11.799  16.070  70.298  0.00  0.00    +0.037 A 
ATOM      4  C   UNL     1     -11.006  15.392  69.370  0.00  0.00    -0.008 A 
ATOM      5  C   UNL     1     -10.726  16.285  68.030  0.00  0.00    +0.084 C 
ATOM      6  N   UNL     1      -9.502  15.369  67.609  0.00  0.00    -0.270 NA
ATOM      7  C   UNL     1     -10.091  14.238  67.027  0.00  0.00    +0.077 C 
ATOM      8  C   UNL     1     -11.471  13.885  67.437  0.00  0.00    +0.043 C 
ATOM      9  C   UNL     1      -8.633  15.178  68.657  0.00  0.00    +0.076 C 
ATOM     10  C   UNL     1      -7.623  16.432  68.862  0.00  0.00    +0.056 C 
ATOM     11  C   UNL     1      -8.510  17.436  67.776  0.00  0.00    +0.172 C 
ATOM     12  C   UNL     1      -9.778  17.381  68.836  0.00  0.00    +0.064 C 
ATOM     13  C   UNL     1     -11.630  14.243  68.881  0.00  0.00    -0.020 A 
ATOM     14  C   UNL     1     -12.476  13.465  69.659  0.00  0.00    +0.036 A 
ENDROOT
BRANCH   1  16
ATOM     15  C   UNL     1     -13.389  12.581  72.158  0.00  0.00    +0.253 C 
ATOM     16  O   UNL     1     -13.154  13.055  71.895  0.00  0.00    -0.468 OA
ENDBRANCH   1  16
BRANCH   2  17
ATOM     17  O   UNL     1     -13.224  15.809  72.260  0.00  0.00    -0.468 OA
ATOM     18  C   UNL     1     -12.545  16.039  73.465  0.00  0.00    +0.253 C 
ENDBRANCH   2  17
BRANCH  10  19
ATOM     19  C   UNL     1      -6.511  16.021  67.753  0.00  0.00    +0.005 C 
BRANCH  19  20
ATOM     20  C   UNL     1      -5.197  15.819  68.329  0.00  0.00    +0.000 C 
ATOM     21  C   UNL     1      -4.861  14.331  68.317  0.00  0.00    +0.000 C 
ATOM     22  C   UNL     1      -5.172  16.232  69.792  0.00  0.00    +0.000 C 
ENDBRANCH  19  20
ENDBRANCH  10  19
BRANCH  11  23
ATOM     23  O   UNL     1      -7.855  18.700  68.343  0.00  0.00    -0.451 OA
BRANCH  23  24
ATOM     24  C   UNL     1      -7.721  19.813  67.634  0.00  0.00    +0.334 C 
ATOM     25  O   UNL     1      -8.709  20.407  67.213  0.00  0.00    -0.249 OA
BRANCH  24  26
ATOM     26  C   UNL     1      -6.349  20.035  66.790  0.00  0.00    +0.190 C 
ATOM     27  N   UNL     1      -6.318  21.589  67.129  0.00  0.00    -0.121 NA
BRANCH  26  28
ATOM     28  C   UNL     1      -5.376  19.680  68.082  0.00  0.00    +0.029 C 
ATOM     29  C   UNL     1      -5.372  20.894  68.942  0.00  0.00    +0.002 C 
ATOM     30  C   UNL     1      -4.070  19.220  67.574  0.00  0.00    +0.002 C 
ENDBRANCH  26  28
ENDBRANCH  24  26
ENDBRANCH  23  24
ENDBRANCH  11  23
TORSDOF 8
ENDMDL
MODEL 7
REMARK VINA RESULT:      -5.9      1.271      1.581
REMARK  Name = 
REMARK  8 active torsions:
REMARK  status: ('A' for Active; 'I' for Inactive)
REMARK    1  A    between atoms: O_2  and  C_3
REMARK    2  A    between atoms: C_8  and  O_9
REMARK    3  A    between atoms: C_13  and  O_14
REMARK    4  A    between atoms: O_14  and  C_15
REMARK    5  A    between atoms: C_15  and  C_17
REMARK    6  A    between atoms: C_17  and  C_19
REMARK    7  A    between atoms: C_22  and  C_23
REMARK    8  A    between atoms: C_23  and  C_24
REMARK                            x       y       z     vdW  Elec       q    Type
REMARK                         _______ _______ _______ _____ _____    ______ ____
ROOT
ATOM      1  C   UNL     1     -11.814  10.194  70.630  0.00  0.00    +0.172 A 
ATOM      2  C   UNL     1     -12.385  11.461  70.667  0.00  0.00    +0.172 A 
ATOM      3  C   UNL     1     -12.018  12.430  69.738  0.00  0.00    +0.037 A 
ATOM      4  C   UNL     1     -10.926  12.154  68.914  0.00  0.00    -0.008 A 
ATOM      5  C   UNL     1     -11.046  12.897  67.463  0.00  0.00    +0.084 C 
ATOM      6  N   UNL     1      -9.498  12.703  67.173  0.00  0.00    -0.270 NA
ATOM      7  C   UNL     1      -9.382  11.369  66.755  0.00  0.00    +0.077 C 
ATOM      8  C   UNL     1     -10.413  10.406  67.209  0.00  0.00    +0.043 C 
ATOM      9  C   UNL     1      -8.733  13.114  68.239  0.00  0.00    +0.076 C 
ATOM     10  C   UNL     1      -8.524  14.723  68.268  0.00  0.00    +0.056 C 
ATOM     11  C   UNL     1      -9.719  14.987  67.053  0.00  0.00    +0.172 C 
ATOM     12  C   UNL     1     -10.853  14.412  68.109  0.00  0.00    +0.064 C 
ATOM     13  C   UNL     1     -10.836  10.799  68.589  0.00  0.00    -0.020 A 
ATOM     14  C   UNL     1     -11.219   9.795  69.467  0.00  0.00    +0.036 A 
ENDROOT
BRANCH   1  16
ATOM     15  C   UNL     1     -11.643   8.888  72.072  0.00  0.00    +0.253 C 
ATOM     16  O   UNL     1     -11.752   9.362  71.738  0.00  0.00    -0.468 OA
ENDBRANCH   1  16
BRANCH   2  17
ATOM     17  O   UNL     1     -13.247  11.705  71.716  0.00  0.00    -0.468 OA
ATOM     18  C   UNL     1     -13.498  12.987  72.225  0.00  0.00    +0.253 C 
ENDBRANCH   2  17
BRANCH  10  19
ATOM     19  C   UNL     1      -7.282  14.818  67.228  0.00  0.00    +0.005 C 
BRANCH  19  20
ATOM     20  C   UNL     1      -6.092  15.385  67.829  0.00  0.00    +0.000 C 
ATOM     21  C   UNL     1      -5.047  14.290  68.017  0.00  0.00    +0.000 C 
ATOM     22  C   UNL     1      -6.385  15.915  69.225  0.00  0.00    +0.000 C 
ENDBRANCH  19  20
ENDBRANCH  10  19
BRANCH  11  23
ATOM     23  O   UNL     1      -9.846  16.465  67.438  0.00  0.00    -0.451 OA
BRANCH  23  24
ATOM     24  C   UNL     1      -9.955  17.431  66.536  0.00  0.00    +0.334 C 
ATOM     25  O   UNL     1     -10.513  17.222  65.463  0.00  0.00    -0.249 OA
BRANCH  24  26
ATOM     26  C   UNL     1      -8.847  18.622  66.536  0.00  0.00    +0.190 C 
ATOM     27  N   UNL     1      -9.927  19.711  66.111  0.00  0.00    -0.121 NA
BRANCH  26  28
ATOM     28  C   UNL     1      -9.062  18.960  68.144  0.00  0.00    +0.029 C 
ATOM     29  C   UNL     1     -10.091  20.031  68.207  0.00  0.00    +0.002 C 
ATOM     30  C   UNL     1      -7.747  19.263  68.739  0.00  0.00    +0.002 C 
ENDBRANCH  26  28
ENDBRANCH  24  26
ENDBRANCH  23  24
ENDBRANCH  11  23
TORSDOF 8
ENDMDL
MODEL 8
REMARK VINA RESULT:      -5.9      3.176      4.945
REMARK  Name = 
REMARK  8 active torsions:
REMARK  status: ('A' for Active; 'I' for Inactive)
REMARK    1  A    between atoms: O_2  and  C_3
REMARK    2  A    between atoms: C_8  and  O_9
REMARK    3  A    between atoms: C_13  and  O_14
REMARK    4  A    between atoms: O_14  and  C_15
REMARK    5  A    between atoms: C_15  and  C_17
REMARK    6  A    between atoms: C_17  and  C_19
REMARK    7  A    between atoms: C_22  and  C_23
REMARK    8  A    between atoms: C_23  and  C_24
REMARK                            x       y       z     vdW  Elec       q    Type
REMARK                         _______ _______ _______ _____ _____    ______ ____
ROOT
ATOM      1  C   UNL     1     -11.500  12.410  65.210  0.00  0.00    +0.172 A 
ATOM      2  C   UNL     1     -10.124  12.270  65.345  0.00  0.00    +0.172 A 
ATOM      3  C   UNL     1      -9.419  13.050  66.258  0.00  0.00    +0.037 A 
ATOM      4  C   UNL     1     -10.102  14.101  66.871  0.00  0.00    -0.008 A 
ATOM      5  C   UNL     1      -9.521  14.424  68.365  0.00  0.00    +0.084 C 
ATOM      6  N   UNL     1     -10.206  15.854  68.382  0.00  0.00    -0.270 NA
ATOM      7  C   UNL     1     -11.550  15.599  68.694  0.00  0.00    +0.077 C 
ATOM      8  C   UNL     1     -12.099  14.264  68.359  0.00  0.00    +0.043 C 
ATOM      9  C   UNL     1      -9.933  16.556  67.232  0.00  0.00    +0.076 C 
ATOM     10  C   UNL     1      -8.470  17.258  67.267  0.00  0.00    +0.056 C 
ATOM     11  C   UNL     1      -7.990  16.388  68.677  0.00  0.00    +0.172 C 
ATOM     12  C   UNL     1      -8.075  14.995  67.789  0.00  0.00    +0.064 C 
ATOM     13  C   UNL     1     -11.447  13.801  67.094  0.00  0.00    -0.020 A 
ATOM     14  C   UNL     1     -12.185  13.002  66.232  0.00  0.00    +0.036 A 
ENDROOT
BRANCH   1  16
ATOM     15  C   UNL     1     -12.473  12.098  63.546  0.00  0.00    +0.253 C 
ATOM     16  O   UNL     1     -12.185  12.052  64.059  0.00  0.00    -0.468 OA
ENDBRANCH   1  16
BRANCH   2  17
ATOM     17  O   UNL     1      -9.516  11.394  64.470  0.00  0.00    -0.468 OA
ATOM     18  C   UNL     1      -9.444  10.010  64.689  0.00  0.00    +0.253 C 
ENDBRANCH   2  17
BRANCH  10  19
ATOM     19  C   UNL     1      -8.871  18.597  68.092  0.00  0.00    +0.005 C 
BRANCH  19  20
ATOM     20  C   UNL     1      -8.806  19.794  67.277  0.00  0.00    +0.000 C 
ATOM     21  C   UNL     1     -10.170  20.056  66.648  0.00  0.00    +0.000 C 
ATOM     22  C   UNL     1      -7.846  19.610  66.112  0.00  0.00    +0.000 C 
ENDBRANCH  19  20
ENDBRANCH  10  19
BRANCH  11  23
ATOM     23  O   UNL     1      -6.511  16.684  68.408  0.00  0.00    -0.451 OA
BRANCH  23  24
ATOM     24  C   UNL     1      -5.628  16.849  69.384  0.00  0.00    +0.334 C 
ATOM     25  O   UNL     1      -5.174  15.879  69.984  0.00  0.00    -0.249 OA
BRANCH  24  26
ATOM     26  C   UNL     1      -5.635  18.251  70.208  0.00  0.00    +0.190 C 
ATOM     27  N   UNL     1      -4.096  18.108  70.586  0.00  0.00    -0.121 NA
BRANCH  26  28
ATOM     28  C   UNL     1      -5.274  19.157  68.868  0.00  0.00    +0.029 C 
ATOM     29  C   UNL     1      -3.834  18.921  68.585  0.00  0.00    +0.002 C 
ATOM     30  C   UNL     1      -5.684  20.551  69.121  0.00  0.00    +0.002 C 
ENDBRANCH  26  28
ENDBRANCH  24  26
ENDBRANCH  23  24
ENDBRANCH  11  23
TORSDOF 8
ENDMDL
MODEL 9
REMARK VINA RESULT:      -5.7      2.532      8.073
REMARK  Name = 
REMARK  8 active torsions:
REMARK  status: ('A' for Active; 'I' for Inactive)
REMARK    1  A    between atoms: O_2  and  C_3
REMARK    2  A    between atoms: C_8  and  O_9
REMARK    3  A    between atoms: C_13  and  O_14
REMARK    4  A    between atoms: O_14  and  C_15
REMARK    5  A    between atoms: C_15  and  C_17
REMARK    6  A    between atoms: C_17  and  C_19
REMARK    7  A    between atoms: C_22  and  C_23
REMARK    8  A    between atoms: C_23  and  C_24
REMARK                            x       y       z     vdW  Elec       q    Type
REMARK                         _______ _______ _______ _____ _____    ______ ____
ROOT
ATOM      1  C   UNL     1     -10.024  16.948  65.744  0.00  0.00    +0.172 A 
ATOM      2  C   UNL     1      -8.875  16.308  66.192  0.00  0.00    +0.172 A 
ATOM      3  C   UNL     1      -8.898  14.953  66.508  0.00  0.00    +0.037 A 
ATOM      4  C   UNL     1     -10.142  14.322  66.555  0.00  0.00    -0.008 A 
ATOM      5  C   UNL     1     -10.042  12.737  66.168  0.00  0.00    +0.084 C 
ATOM      6  N   UNL     1     -11.457  12.433  66.817  0.00  0.00    -0.270 NA
ATOM      7  C   UNL     1     -12.385  12.859  65.855  0.00  0.00    +0.077 C 
ATOM      8  C   UNL     1     -11.961  13.908  64.898  0.00  0.00    +0.043 C 
ATOM      9  C   UNL     1     -11.552  12.958  68.084  0.00  0.00    +0.076 C 
ATOM     10  C   UNL     1     -10.841  12.019  69.199  0.00  0.00    +0.056 C 
ATOM     11  C   UNL     1     -10.080  11.030  68.008  0.00  0.00    +0.172 C 
ATOM     12  C   UNL     1      -9.199  12.350  67.543  0.00  0.00    +0.064 C 
ATOM     13  C   UNL     1     -11.034  14.839  65.614  0.00  0.00    -0.020 A 
ATOM     14  C   UNL     1     -11.032  16.176  65.241  0.00  0.00    +0.036 A 
ENDROOT
BRANCH   1  16
ATOM     15  C   UNL     1     -10.479  18.834  65.979  0.00  0.00    +0.253 C 
ATOM     16  O   UNL     1     -10.220  18.317  65.861  0.00  0.00    -0.468 OA
ENDBRANCH   1  16
BRANCH   2  17
ATOM     17  O   UNL     1      -7.770  17.112  66.383  0.00  0.00    -0.468 OA
ATOM     18  C   UNL     1      -7.353  17.564  67.643  0.00  0.00    +0.253 C 
ENDBRANCH   2  17
BRANCH  10  19
ATOM     19  C   UNL     1     -12.063  10.979  69.445  0.00  0.00    +0.005 C 
BRANCH  19  20
ATOM     20  C   UNL     1     -12.327  10.751  70.852  0.00  0.00    +0.000 C 
ATOM     21  C   UNL     1     -13.350   9.630  71.001  0.00  0.00    +0.000 C 
ATOM     22  C   UNL     1     -12.965  11.975  71.493  0.00  0.00    +0.000 C 
ENDBRANCH  19  20
ENDBRANCH  10  19
BRANCH  11  23
ATOM     23  O   UNL     1      -9.075  10.494  69.033  0.00  0.00    -0.451 OA
BRANCH  23  24
ATOM     24  C   UNL     1      -8.320   9.428  68.802  0.00  0.00    +0.334 C 
ATOM     25  O   UNL     1      -8.238   8.956  67.673  0.00  0.00    -0.249 OA
BRANCH  24  26
ATOM     26  C   UNL     1      -8.048   8.391  70.025  0.00  0.00    +0.190 C 
ATOM     27  N   UNL     1      -7.592   9.563  71.000  0.00  0.00    -0.121 NA
BRANCH  26  28
ATOM     28  C   UNL     1      -9.609   8.470  70.575  0.00  0.00    +0.029 C 
ATOM     29  C   UNL     1      -9.526   8.438  72.059  0.00  0.00    +0.002 C 
ATOM     30  C   UNL     1     -10.389   7.398  69.928  0.00  0.00    +0.002 C 
ENDBRANCH  26  28
ENDBRANCH  24  26
ENDBRANCH  23  24
ENDBRANCH  11  23
TORSDOF 8
ENDMDL
