MODEL 1
REMARK VINA RESULT:      -5.6      0.000      0.000
REMARK  Name = 
REMARK  4 active torsions:
REMARK  status: ('A' for Active; 'I' for Inactive)
REMARK    1  A    between atoms: P_2  and  C_5
REMARK    2  A    between atoms: C_5  and  C_7
REMARK    3  A    between atoms: C_5  and  P_14
REMARK    4  A    between atoms: C_7  and  C_8
REMARK                            x       y       z     vdW  Elec       q    Type
REMARK                         _______ _______ _______ _____ _____    ______ ____
ROOT
ATOM      1  C   UNL     1     -10.875  14.518  67.051  0.00  0.00    +0.220 C 
ATOM      2  O   UNL     1      -9.837  13.850  67.672  0.00  0.00    -0.210 OA
ENDROOT
BRANCH   1   4
ATOM      3  O   UNL     1      -8.680  15.661  66.004  0.00  0.00    -0.457 OA
ATOM      4  P   UNL     1     -10.165  15.951  66.174  0.00  0.00    +0.151 P 
ATOM      5  O   UNL     1     -10.384  17.290  67.174  0.00  0.00    -0.355 OA
ATOM      6  O   UNL     1     -10.927  16.172  64.693  0.00  0.00    -0.355 OA
ENDBRANCH   1   4
BRANCH   1   7
ATOM      7  P   UNL     1     -11.660  13.413  65.860  0.00  0.00    +0.151 P 
ATOM      8  O   UNL     1     -10.569  13.107  64.591  0.00  0.00    -0.355 OA
ATOM      9  O   UNL     1     -13.083  14.099  65.246  0.00  0.00    -0.355 OA
ATOM     10  O   UNL     1     -11.963  12.115  66.595  0.00  0.00    -0.457 OA
ENDBRANCH   1   7
BRANCH   1  11
ATOM     11  C   UNL     1     -11.928  15.021  67.984  0.00  0.00    +0.073 C 
BRANCH  11  12
ATOM     12  C   UNL     1     -11.577  14.810  69.424  0.00  0.00    +0.000 A 
ATOM     13  C   UNL     1     -12.150  13.730  70.083  0.00  0.00    +0.095 A 
ATOM     14  N   UNL     1     -12.743  13.854  71.296  0.00  0.00    -0.243 NA
ATOM     15  C   UNL     1     -12.279  14.825  72.110  0.00  0.00    +0.099 A 
ATOM     16  C   UNL     1     -11.794  15.989  71.524  0.00  0.00    +0.020 A 
ATOM     17  C   UNL     1     -11.228  15.862  70.262  0.00  0.00    -0.001 A 
ENDBRANCH  11  12
ENDBRANCH   1  11
TORSDOF 4
ENDMDL
MODEL 2
REMARK VINA RESULT:      -5.4      0.081      1.145
REMARK  Name = 
REMARK  4 active torsions:
REMARK  status: ('A' for Active; 'I' for Inactive)
REMARK    1  A    between atoms: P_2  and  C_5
REMARK    2  A    between atoms: C_5  and  C_7
REMARK    3  A    between atoms: C_5  and  P_14
REMARK    4  A    between atoms: C_7  and  C_8
REMARK                            x       y       z     vdW  Elec       q    Type
REMARK                         _______ _______ _______ _____ _____    ______ ____
ROOT
ATOM      1  C   UNL     1     -10.876  14.544  67.057  0.00  0.00    +0.220 C 
ATOM      2  O   UNL     1      -9.841  13.868  67.675  0.00  0.00    -0.210 OA
ENDROOT
BRANCH   1   4
ATOM      3  O   UNL     1     -10.497  17.204  67.085  0.00  0.00    -0.457 OA
ATOM      4  P   UNL     1     -10.165  15.998  66.216  0.00  0.00    +0.151 P 
ATOM      5  O   UNL     1     -10.942  16.125  64.726  0.00  0.00    -0.355 OA
ATOM      6  O   UNL     1      -8.507  15.812  66.019  0.00  0.00    -0.355 OA
ENDBRANCH   1   4
BRANCH   1   7
ATOM      7  P   UNL     1     -11.644  13.459  65.836  0.00  0.00    +0.151 P 
ATOM      8  O   UNL     1     -10.544  13.198  64.564  0.00  0.00    -0.355 OA
ATOM      9  O   UNL     1     -13.072  14.143  65.234  0.00  0.00    -0.355 OA
ATOM     10  O   UNL     1     -11.934  12.140  66.538  0.00  0.00    -0.457 OA
ENDBRANCH   1   7
BRANCH   1  11
ATOM     11  C   UNL     1     -11.941  15.022  67.990  0.00  0.00    +0.073 C 
BRANCH  11  12
ATOM     12  C   UNL     1     -11.587  14.817  69.430  0.00  0.00    +0.000 A 
ATOM     13  C   UNL     1     -12.156  13.737  70.093  0.00  0.00    +0.095 A 
ATOM     14  N   UNL     1     -12.747  13.863  71.306  0.00  0.00    -0.243 NA
ATOM     15  C   UNL     1     -12.285  14.838  72.117  0.00  0.00    +0.099 A 
ATOM     16  C   UNL     1     -11.804  16.002  71.527  0.00  0.00    +0.020 A 
ATOM     17  C   UNL     1     -11.240  15.873  70.264  0.00  0.00    -0.001 A 
ENDBRANCH  11  12
ENDBRANCH   1  11
TORSDOF 4
ENDMDL
MODEL 3
REMARK VINA RESULT:      -5.4      3.743      5.003
REMARK  Name = 
REMARK  4 active torsions:
REMARK  status: ('A' for Active; 'I' for Inactive)
REMARK    1  A    between atoms: P_2  and  C_5
REMARK    2  A    between atoms: C_5  and  C_7
REMARK    3  A    between atoms: C_5  and  P_14
REMARK    4  A    between atoms: C_7  and  C_8
REMARK                            x       y       z     vdW  Elec       q    Type
REMARK                         _______ _______ _______ _____ _____    ______ ____
ROOT
ATOM      1  C   UNL     1      -9.760  16.415  66.821  0.00  0.00    +0.220 C 
ATOM      2  O   UNL     1      -8.779  15.885  66.007  0.00  0.00    -0.210 OA
ENDROOT
BRANCH   1   4
ATOM      3  O   UNL     1      -8.397  15.112  68.736  0.00  0.00    -0.457 OA
ATOM      4  P   UNL     1      -9.113  16.440  68.527  0.00  0.00    +0.151 P 
ATOM      5  O   UNL     1     -10.447  16.549  69.551  0.00  0.00    -0.355 OA
ATOM      6  O   UNL     1      -8.077  17.745  68.744  0.00  0.00    -0.355 OA
ENDBRANCH   1   4
BRANCH   1   7
ATOM      7  P   UNL     1     -10.120  18.103  66.290  0.00  0.00    +0.151 P 
ATOM      8  O   UNL     1      -8.654  18.895  65.946  0.00  0.00    -0.355 OA
ATOM      9  O   UNL     1     -10.965  18.947  67.492  0.00  0.00    -0.355 OA
ATOM     10  O   UNL     1     -10.952  17.998  65.020  0.00  0.00    -0.457 OA
ENDBRANCH   1   7
BRANCH   1  11
ATOM     11  C   UNL     1     -11.040  15.645  66.823  0.00  0.00    +0.073 C 
BRANCH  11  12
ATOM     12  C   UNL     1     -11.042  14.518  65.838  0.00  0.00    +0.000 A 
ATOM     13  C   UNL     1     -11.788  14.669  64.676  0.00  0.00    +0.095 A 
ATOM     14  N   UNL     1     -12.643  13.713  64.236  0.00  0.00    -0.243 NA
ATOM     15  C   UNL     1     -12.348  12.433  64.551  0.00  0.00    +0.099 A 
ATOM     16  C   UNL     1     -11.701  12.193  65.758  0.00  0.00    +0.020 A 
ATOM     17  C   UNL     1     -10.861  13.196  66.226  0.00  0.00    -0.001 A 
ENDBRANCH  11  12
ENDBRANCH   1  11
TORSDOF 4
ENDMDL
MODEL 4
REMARK VINA RESULT:      -5.3      3.425      4.261
REMARK  Name = 
REMARK  4 active torsions:
REMARK  status: ('A' for Active; 'I' for Inactive)
REMARK    1  A    between atoms: P_2  and  C_5
REMARK    2  A    between atoms: C_5  and  C_7
REMARK    3  A    between atoms: C_5  and  P_14
REMARK    4  A    between atoms: C_7  and  C_8
REMARK                            x       y       z     vdW  Elec       q    Type
REMARK                         _______ _______ _______ _____ _____    ______ ____
ROOT
ATOM      1  C   UNL     1     -11.274  13.497  66.205  0.00  0.00    +0.220 C 
ATOM      2  O   UNL     1     -12.195  14.099  67.040  0.00  0.00    -0.210 OA
ENDROOT
BRANCH   1   4
ATOM      3  O   UNL     1     -12.109  11.411  67.678  0.00  0.00    -0.457 OA
ATOM      4  P   UNL     1     -10.876  11.860  66.906  0.00  0.00    +0.151 P 
ATOM      5  O   UNL     1      -9.581  12.087  67.962  0.00  0.00    -0.355 OA
ATOM      6  O   UNL     1     -10.478  10.777  65.685  0.00  0.00    -0.355 OA
ENDBRANCH   1   4
BRANCH   1   7
ATOM      7  P   UNL     1     -12.008  13.287  64.569  0.00  0.00    +0.151 P 
ATOM      8  O   UNL     1     -10.841  12.623  63.523  0.00  0.00    -0.355 OA
ATOM      9  O   UNL     1     -12.554  14.770  63.958  0.00  0.00    -0.355 OA
ATOM     10  O   UNL     1     -13.165  12.311  64.726  0.00  0.00    -0.457 OA
ENDBRANCH   1   7
BRANCH   1  11
ATOM     11  C   UNL     1      -9.997  14.257  66.049  0.00  0.00    +0.073 C 
BRANCH  11  12
ATOM     12  C   UNL     1     -10.032  15.595  66.719  0.00  0.00    +0.000 A 
ATOM     13  C   UNL     1     -10.204  16.719  65.922  0.00  0.00    +0.095 A 
ATOM     14  N   UNL     1      -9.412  17.814  66.033  0.00  0.00    -0.243 NA
ATOM     15  C   UNL     1      -8.878  18.065  67.247  0.00  0.00    +0.099 A 
ATOM     16  C   UNL     1      -8.570  16.979  68.059  0.00  0.00    +0.020 A 
ATOM     17  C   UNL     1      -9.357  15.844  67.908  0.00  0.00    -0.001 A 
ENDBRANCH  11  12
ENDBRANCH   1  11
TORSDOF 4
ENDMDL
MODEL 5
REMARK VINA RESULT:      -5.2      2.782      3.825
REMARK  Name = 
REMARK  4 active torsions:
REMARK  status: ('A' for Active; 'I' for Inactive)
REMARK    1  A    between atoms: P_2  and  C_5
REMARK    2  A    between atoms: C_5  and  C_7
REMARK    3  A    between atoms: C_5  and  P_14
REMARK    4  A    between atoms: C_7  and  C_8
REMARK                            x       y       z     vdW  Elec       q    Type
REMARK                         _______ _______ _______ _____ _____    ______ ____
ROOT
ATOM      1  C   UNL     1     -10.742  14.620  66.039  0.00  0.00    +0.220 C 
ATOM      2  O   UNL     1      -9.560  14.967  65.413  0.00  0.00    -0.210 OA
ENDROOT
BRANCH   1   4
ATOM      3  O   UNL     1     -11.590  13.328  63.841  0.00  0.00    -0.457 OA
ATOM      4  P   UNL     1     -12.026  14.468  64.752  0.00  0.00    +0.151 P 
ATOM      5  O   UNL     1     -12.033  15.922  63.899  0.00  0.00    -0.355 OA
ATOM      6  O   UNL     1     -13.525  14.169  65.448  0.00  0.00    -0.355 OA
ENDBRANCH   1   4
BRANCH   1   7
ATOM      7  P   UNL     1     -10.528  13.029  66.865  0.00  0.00    +0.151 P 
ATOM      8  O   UNL     1      -9.355  12.127  66.025  0.00  0.00    -0.355 OA
ATOM      9  O   UNL     1     -11.989  12.174  66.916  0.00  0.00    -0.355 OA
ATOM     10  O   UNL     1     -10.030  13.327  68.273  0.00  0.00    -0.457 OA
ENDBRANCH   1   7
BRANCH   1  11
ATOM     11  C   UNL     1     -11.215  15.611  67.051  0.00  0.00    +0.073 C 
BRANCH  11  12
ATOM     12  C   UNL     1     -10.340  16.822  67.133  0.00  0.00    +0.000 A 
ATOM     13  C   UNL     1      -9.766  17.130  68.360  0.00  0.00    +0.095 A 
ATOM     14  N   UNL     1      -9.815  18.377  68.889  0.00  0.00    -0.243 NA
ATOM     15  C   UNL     1      -9.871  19.410  68.022  0.00  0.00    +0.099 A 
ATOM     16  C   UNL     1     -10.532  19.212  66.816  0.00  0.00    +0.020 A 
ATOM     17  C   UNL     1     -10.518  17.921  66.301  0.00  0.00    -0.001 A 
ENDBRANCH  11  12
ENDBRANCH   1  11
TORSDOF 4
ENDMDL
MODEL 6
REMARK VINA RESULT:      -5.1      1.890      3.035
REMARK  Name = 
REMARK  4 active torsions:
REMARK  status: ('A' for Active; 'I' for Inactive)
REMARK    1  A    between atoms: P_2  and  C_5
REMARK    2  A    between atoms: C_5  and  C_7
REMARK    3  A    between atoms: C_5  and  P_14
REMARK    4  A    between atoms: C_7  and  C_8
REMARK                            x       y       z     vdW  Elec       q    Type
REMARK                         _______ _______ _______ _____ _____    ______ ____
ROOT
ATOM      1  C   UNL     1     -11.154  13.302  66.025  0.00  0.00    +0.220 C 
ATOM      2  O   UNL     1      -9.959  13.963  65.817  0.00  0.00    -0.210 OA
ENDROOT
BRANCH   1   4
ATOM      3  O   UNL     1     -13.186  12.241  64.624  0.00  0.00    -0.457 OA
ATOM      4  P   UNL     1     -12.011  13.187  64.419  0.00  0.00    +0.151 P 
ATOM      5  O   UNL     1     -10.912  12.521  63.329  0.00  0.00    -0.355 OA
ATOM      6  O   UNL     1     -12.519  14.706  63.912  0.00  0.00    -0.355 OA
ENDBRANCH   1   4
BRANCH   1   7
ATOM      7  P   UNL     1     -10.809  11.641  66.643  0.00  0.00    +0.151 P 
ATOM      8  O   UNL     1      -9.458  11.707  67.675  0.00  0.00    -0.355 OA
ATOM      9  O   UNL     1     -10.508  10.572  65.363  0.00  0.00    -0.355 OA
ATOM     10  O   UNL     1     -12.034  11.201  67.433  0.00  0.00    -0.457 OA
ENDBRANCH   1   7
BRANCH   1  11
ATOM     11  C   UNL     1     -12.069  13.978  66.992  0.00  0.00    +0.073 C 
BRANCH  11  12
ATOM     12  C   UNL     1     -11.361  14.474  68.214  0.00  0.00    +0.000 A 
ATOM     13  C   UNL     1     -11.805  14.026  69.451  0.00  0.00    +0.095 A 
ATOM     14  N   UNL     1     -12.044  14.871  70.484  0.00  0.00    -0.243 NA
ATOM     15  C   UNL     1     -11.317  16.008  70.528  0.00  0.00    +0.099 A 
ATOM     16  C   UNL     1     -10.933  16.581  69.321  0.00  0.00    +0.020 A 
ATOM     17  C   UNL     1     -10.734  15.713  68.254  0.00  0.00    -0.001 A 
ENDBRANCH  11  12
ENDBRANCH   1  11
TORSDOF 4
ENDMDL
MODEL 7
REMARK VINA RESULT:      -5.1      1.444      3.385
REMARK  Name = 
REMARK  4 active torsions:
REMARK  status: ('A' for Active; 'I' for Inactive)
REMARK    1  A    between atoms: P_2  and  C_5
REMARK    2  A    between atoms: C_5  and  C_7
REMARK    3  A    between atoms: C_5  and  P_14
REMARK    4  A    between atoms: C_7  and  C_8
REMARK                            x       y       z     vdW  Elec       q    Type
REMARK                         _______ _______ _______ _____ _____    ______ ____
ROOT
ATOM      1  C   UNL     1     -11.212  13.860  67.420  0.00  0.00    +0.220 C 
ATOM      2  O   UNL     1     -12.420  14.475  67.158  0.00  0.00    -0.210 OA
ENDROOT
BRANCH   1   4
ATOM      3  O   UNL     1     -12.253  12.119  65.658  0.00  0.00    -0.457 OA
ATOM      4  P   UNL     1     -11.346  12.122  66.881  0.00  0.00    +0.151 P 
ATOM      5  O   UNL     1     -12.073  11.277  68.146  0.00  0.00    -0.355 OA
ATOM      6  O   UNL     1      -9.828  11.495  66.530  0.00  0.00    -0.355 OA
ENDBRANCH   1   4
BRANCH   1   7
ATOM      7  P   UNL     1      -9.913  14.684  66.474  0.00  0.00    +0.151 P 
ATOM      8  O   UNL     1     -10.109  14.307  64.827  0.00  0.00    -0.355 OA
ATOM      9  O   UNL     1      -8.379  14.193  67.001  0.00  0.00    -0.355 OA
ATOM     10  O   UNL     1     -10.098  16.180  66.681  0.00  0.00    -0.457 OA
ENDBRANCH   1   7
BRANCH   1  11
ATOM     11  C   UNL     1     -10.816  13.870  68.861  0.00  0.00    +0.073 C 
BRANCH  11  12
ATOM     12  C   UNL     1     -11.824  14.548  69.735  0.00  0.00    +0.000 A 
ATOM     13  C   UNL     1     -11.575  15.860  70.119  0.00  0.00    +0.095 A 
ATOM     14  N   UNL     1     -11.682  16.269  71.407  0.00  0.00    -0.243 NA
ATOM     15  C   UNL     1     -12.567  15.615  72.189  0.00  0.00    +0.099 A 
ATOM     16  C   UNL     1     -12.783  14.265  71.937  0.00  0.00    +0.020 A 
ATOM     17  C   UNL     1     -12.628  13.843  70.622  0.00  0.00    -0.001 A 
ENDBRANCH  11  12
ENDBRANCH   1  11
TORSDOF 4
ENDMDL
MODEL 8
REMARK VINA RESULT:      -5.0      3.282      5.072
REMARK  Name = 
REMARK  4 active torsions:
REMARK  status: ('A' for Active; 'I' for Inactive)
REMARK    1  A    between atoms: P_2  and  C_5
REMARK    2  A    between atoms: C_5  and  C_7
REMARK    3  A    between atoms: C_5  and  P_14
REMARK    4  A    between atoms: C_7  and  C_8
REMARK                            x       y       z     vdW  Elec       q    Type
REMARK                         _______ _______ _______ _____ _____    ______ ____
ROOT
ATOM      1  C   UNL     1     -10.750  15.093  66.742  0.00  0.00    +0.220 C 
ATOM      2  O   UNL     1     -12.055  14.852  66.358  0.00  0.00    -0.210 OA
ENDROOT
BRANCH   1   4
ATOM      3  O   UNL     1     -10.889  16.694  64.589  0.00  0.00    -0.457 OA
ATOM      4  P   UNL     1     -10.219  16.651  65.956  0.00  0.00    +0.151 P 
ATOM      5  O   UNL     1      -8.545  16.560  65.780  0.00  0.00    -0.355 OA
ATOM      6  O   UNL     1     -10.656  17.968  66.903  0.00  0.00    -0.355 OA
ENDBRANCH   1   4
BRANCH   1   7
ATOM      7  P   UNL     1     -10.686  15.273  68.538  0.00  0.00    +0.151 P 
ATOM      8  O   UNL     1     -12.008  16.218  69.043  0.00  0.00    -0.355 OA
ATOM      9  O   UNL     1      -9.235  16.004  69.020  0.00  0.00    -0.355 OA
ATOM     10  O   UNL     1     -10.805  13.875  69.126  0.00  0.00    -0.457 OA
ENDBRANCH   1   7
BRANCH   1  11
ATOM     11  C   UNL     1      -9.785  14.022  66.347  0.00  0.00    +0.073 C 
BRANCH  11  12
ATOM     12  C   UNL     1     -10.432  12.911  65.581  0.00  0.00    +0.000 A 
ATOM     13  C   UNL     1     -10.456  11.649  66.158  0.00  0.00    +0.095 A 
ATOM     14  N   UNL     1     -10.079  10.536  65.481  0.00  0.00    -0.243 NA
ATOM     15  C   UNL     1     -10.254  10.543  64.143  0.00  0.00    +0.099 A 
ATOM     16  C   UNL     1     -10.131  11.757  63.477  0.00  0.00    +0.020 A 
ATOM     17  C   UNL     1     -10.475  12.898  64.192  0.00  0.00    -0.001 A 
ENDBRANCH  11  12
ENDBRANCH   1  11
TORSDOF 4
ENDMDL
MODEL 9
REMARK VINA RESULT:      -5.0      2.328      3.473
REMARK  Name = 
REMARK  4 active torsions:
REMARK  status: ('A' for Active; 'I' for Inactive)
REMARK    1  A    between atoms: P_2  and  C_5
REMARK    2  A    between atoms: C_5  and  C_7
REMARK    3  A    between atoms: C_5  and  P_14
REMARK    4  A    between atoms: C_7  and  C_8
REMARK                            x       y       z     vdW  Elec       q    Type
REMARK                         _______ _______ _______ _____ _____    ______ ____
ROOT
ATOM      1  C   UNL     1      -9.303  17.252  67.956  0.00  0.00    +0.220 C 
ATOM      2  O   UNL     1      -8.420  16.740  68.887  0.00  0.00    -0.210 OA
ENDROOT
BRANCH   1   4
ATOM      3  O   UNL     1      -9.886  19.593  69.140  0.00  0.00    -0.457 OA
ATOM      4  P   UNL     1      -9.104  19.066  67.944  0.00  0.00    +0.151 P 
ATOM      5  O   UNL     1      -9.794  19.620  66.509  0.00  0.00    -0.355 OA
ATOM      6  O   UNL     1      -7.479  19.481  68.032  0.00  0.00    -0.355 OA
ENDBRANCH   1   4
BRANCH   1   7
ATOM      7  P   UNL     1      -8.893  16.592  66.327  0.00  0.00    +0.151 P 
ATOM      8  O   UNL     1      -7.608  17.497  65.674  0.00  0.00    -0.355 OA
ATOM      9  O   UNL     1     -10.233  16.662  65.292  0.00  0.00    -0.355 OA
ATOM     10  O   UNL     1      -8.448  15.151  66.533  0.00  0.00    -0.457 OA
ENDBRANCH   1   7
BRANCH   1  11
ATOM     11  C   UNL     1     -10.737  16.945  68.236  0.00  0.00    +0.073 C 
BRANCH  11  12
ATOM     12  C   UNL     1     -10.912  15.899  69.292  0.00  0.00    +0.000 A 
ATOM     13  C   UNL     1     -11.116  14.587  68.882  0.00  0.00    +0.095 A 
ATOM     14  N   UNL     1     -12.112  13.818  69.387  0.00  0.00    -0.243 NA
ATOM     15  C   UNL     1     -12.510  14.079  70.651  0.00  0.00    +0.099 A 
ATOM     16  C   UNL     1     -12.443  15.394  71.095  0.00  0.00    +0.020 A 
ATOM     17  C   UNL     1     -11.448  16.190  70.540  0.00  0.00    -0.001 A 
ENDBRANCH  11  12
ENDBRANCH   1  11
TORSDOF 4
ENDMDL
