MODEL 1
REMARK VINA RESULT:      -5.3      0.000      0.000
REMARK  Name = 
REMARK  10 active torsions:
REMARK  status: ('A' for Active; 'I' for Inactive)
REMARK    1  A    between atoms: N_2  and  C_3
REMARK    2  A    between atoms: C_3  and  N_8
REMARK    3  A    between atoms: C_4  and  N_5
REMARK    4  A    between atoms: N_8  and  C_9
REMARK    5  A    between atoms: C_9  and  C_10
REMARK    6  A    between atoms: C_10  and  S_11
REMARK    7  A    between atoms: S_11  and  C_12
REMARK    8  A    between atoms: C_12  and  C_13
REMARK    9  A    between atoms: C_16  and  C_17
REMARK   10  A    between atoms: C_17  and  N_18
REMARK                            x       y       z     vdW  Elec       q    Type
REMARK                         _______ _______ _______ _____ _____    ______ ____
ROOT
ATOM      1  S   UNL     1      -9.249  14.768  67.479  0.00  0.00    -0.128 S 
ENDROOT
BRANCH   1   2
ATOM      2  C   UNL     1     -10.150  15.686  66.187  0.00  0.00    +0.122 C 
BRANCH   2   3
ATOM      3  C   UNL     1     -11.006  14.713  65.441  0.00  0.00    +0.133 A 
ATOM      4  O   UNL     1     -10.552  13.817  64.614  0.00  0.00    -0.460 OA
ATOM      5  C   UNL     1     -11.477  12.925  64.316  0.00  0.00    +0.139 A 
ATOM      6  C   UNL     1     -12.341  12.923  65.404  0.00  0.00    +0.037 A 
ATOM      7  C   UNL     1     -12.132  14.148  66.026  0.00  0.00    +0.037 A 
BRANCH   5   8
ATOM      8  C   UNL     1     -11.145  11.722  63.489  0.00  0.00    +0.138 C 
BRANCH   8   9
ATOM      9  N   UNL     1      -9.771  11.322  63.704  0.00  0.00    -0.264 NA
ATOM     10  C   UNL     1      -9.722  10.161  64.590  0.00  0.00    +0.090 C 
ATOM     11  C   UNL     1      -9.094  10.947  62.489  0.00  0.00    +0.090 C 
ENDBRANCH   8   9
ENDBRANCH   5   8
ENDBRANCH   2   3
ENDBRANCH   1   2
BRANCH   1  12
ATOM     12  C   UNL     1      -9.707  15.472  69.092  0.00  0.00    +0.113 C 
BRANCH  12  13
ATOM     13  C   UNL     1     -10.677  16.598  68.820  0.00  0.00    +0.263 C 
BRANCH  13  14
ATOM     14  N   UNL     1     -11.965  16.175  69.317  0.00  0.00    -0.027 NA
BRANCH  14  15
ATOM     15  C   UNL     1     -12.169  15.488  70.533  0.00  0.00    +0.424 C 
ATOM     16  C   UNL     1     -12.030  16.013  71.730  0.00  0.00    +0.447 C 
BRANCH  16  17
ATOM     17  N   UNL     1     -12.990  15.838  72.779  0.00  0.00    +0.096 N 
ATOM     18  O   UNL     1     -12.683  14.848  73.697  0.00  0.00    -0.576 OA
ATOM     19  O   UNL     1     -14.195  16.069  72.567  0.00  0.00    +0.042 OA
ENDBRANCH  16  17
BRANCH  15  21
ATOM     20  C   UNL     1     -12.106  13.044  70.392  0.00  0.00    +0.306 C 
ATOM     21  N   UNL     1     -12.899  14.257  70.464  0.00  0.00    -0.023 NA
ENDBRANCH  15  21
ENDBRANCH  14  15
ENDBRANCH  13  14
ENDBRANCH  12  13
ENDBRANCH   1  12
TORSDOF 10
ENDMDL
MODEL 2
REMARK VINA RESULT:      -5.3      2.863      7.464
REMARK  Name = 
REMARK  10 active torsions:
REMARK  status: ('A' for Active; 'I' for Inactive)
REMARK    1  A    between atoms: N_2  and  C_3
REMARK    2  A    between atoms: C_3  and  N_8
REMARK    3  A    between atoms: C_4  and  N_5
REMARK    4  A    between atoms: N_8  and  C_9
REMARK    5  A    between atoms: C_9  and  C_10
REMARK    6  A    between atoms: C_10  and  S_11
REMARK    7  A    between atoms: S_11  and  C_12
REMARK    8  A    between atoms: C_12  and  C_13
REMARK    9  A    between atoms: C_16  and  C_17
REMARK   10  A    between atoms: C_17  and  N_18
REMARK                            x       y       z     vdW  Elec       q    Type
REMARK                         _______ _______ _______ _____ _____    ______ ____
ROOT
ATOM      1  S   UNL     1      -9.955  10.448  68.566  0.00  0.00    -0.128 S 
ENDROOT
BRANCH   1   2
ATOM      2  C   UNL     1     -10.723   9.416  69.859  0.00  0.00    +0.122 C 
BRANCH   2   3
ATOM      3  C   UNL     1     -11.461  10.319  70.794  0.00  0.00    +0.133 A 
ATOM      4  O   UNL     1     -11.826  11.535  70.509  0.00  0.00    -0.460 OA
ATOM      5  C   UNL     1     -12.688  11.998  71.392  0.00  0.00    +0.139 A 
ATOM      6  C   UNL     1     -13.314  10.871  71.911  0.00  0.00    +0.037 A 
ATOM      7  C   UNL     1     -12.436   9.826  71.652  0.00  0.00    +0.037 A 
BRANCH   5   8
ATOM      8  C   UNL     1     -13.351  13.325  71.194  0.00  0.00    +0.138 C 
BRANCH   8   9
ATOM      9  N   UNL     1     -12.540  14.386  71.751  0.00  0.00    -0.264 NA
ATOM     10  C   UNL     1     -12.631  15.579  70.912  0.00  0.00    +0.090 C 
ATOM     11  C   UNL     1     -12.951  14.777  73.075  0.00  0.00    +0.090 C 
ENDBRANCH   8   9
ENDBRANCH   5   8
ENDBRANCH   2   3
ENDBRANCH   1   2
BRANCH   1  12
ATOM     12  C   UNL     1     -11.168  10.670  67.230  0.00  0.00    +0.113 C 
BRANCH  12  13
ATOM     13  C   UNL     1     -10.903  12.025  66.617  0.00  0.00    +0.263 C 
BRANCH  13  14
ATOM     14  N   UNL     1     -12.115  12.428  65.943  0.00  0.00    -0.027 NA
BRANCH  14  15
ATOM     15  C   UNL     1     -12.215  13.525  65.061  0.00  0.00    +0.424 C 
ATOM     16  C   UNL     1     -12.008  14.781  65.391  0.00  0.00    +0.447 C 
BRANCH  16  17
ATOM     17  N   UNL     1     -11.208  15.675  64.608  0.00  0.00    +0.096 N 
ATOM     18  O   UNL     1      -9.916  15.863  65.067  0.00  0.00    -0.576 OA
ATOM     19  O   UNL     1     -11.744  16.622  64.002  0.00  0.00    +0.042 OA
ENDBRANCH  16  17
BRANCH  15  21
ATOM     20  C   UNL     1     -12.664  11.908  63.278  0.00  0.00    +0.306 C 
ATOM     21  N   UNL     1     -12.203  13.230  63.659  0.00  0.00    -0.023 NA
ENDBRANCH  15  21
ENDBRANCH  14  15
ENDBRANCH  13  14
ENDBRANCH  12  13
ENDBRANCH   1  12
TORSDOF 10
ENDMDL
MODEL 3
REMARK VINA RESULT:      -5.3      5.601      7.932
REMARK  Name = 
REMARK  10 active torsions:
REMARK  status: ('A' for Active; 'I' for Inactive)
REMARK    1  A    between atoms: N_2  and  C_3
REMARK    2  A    between atoms: C_3  and  N_8
REMARK    3  A    between atoms: C_4  and  N_5
REMARK    4  A    between atoms: N_8  and  C_9
REMARK    5  A    between atoms: C_9  and  C_10
REMARK    6  A    between atoms: C_10  and  S_11
REMARK    7  A    between atoms: S_11  and  C_12
REMARK    8  A    between atoms: C_12  and  C_13
REMARK    9  A    between atoms: C_16  and  C_17
REMARK   10  A    between atoms: C_17  and  N_18
REMARK                            x       y       z     vdW  Elec       q    Type
REMARK                         _______ _______ _______ _____ _____    ______ ____
ROOT
ATOM      1  S   UNL     1      -9.983  19.594  68.041  0.00  0.00    -0.128 S 
ENDROOT
BRANCH   1   2
ATOM      2  C   UNL     1     -10.510  18.025  67.275  0.00  0.00    +0.122 C 
BRANCH   2   3
ATOM      3  C   UNL     1     -10.511  16.971  68.335  0.00  0.00    +0.133 A 
ATOM      4  O   UNL     1     -11.555  16.628  69.031  0.00  0.00    -0.460 OA
ATOM      5  C   UNL     1     -11.349  15.502  69.686  0.00  0.00    +0.139 A 
ATOM      6  C   UNL     1     -10.383  14.828  68.949  0.00  0.00    +0.037 A 
ATOM      7  C   UNL     1      -9.754  15.815  68.201  0.00  0.00    +0.037 A 
BRANCH   5   8
ATOM      8  C   UNL     1     -12.456  14.842  70.446  0.00  0.00    +0.138 C 
BRANCH   8   9
ATOM      9  N   UNL     1     -13.077  15.780  71.356  0.00  0.00    -0.264 NA
ATOM     10  C   UNL     1     -14.317  15.217  71.886  0.00  0.00    +0.090 C 
ATOM     11  C   UNL     1     -12.249  16.102  72.491  0.00  0.00    +0.090 C 
ENDBRANCH   8   9
ENDBRANCH   5   8
ENDBRANCH   2   3
ENDBRANCH   1   2
BRANCH   1  12
ATOM     12  C   UNL     1      -8.293  19.954  67.478  0.00  0.00    +0.113 C 
BRANCH  12  13
ATOM     13  C   UNL     1      -7.365  19.604  68.618  0.00  0.00    +0.263 C 
BRANCH  13  14
ATOM     14  N   UNL     1      -6.239  20.505  68.538  0.00  0.00    -0.027 NA
BRANCH  14  15
ATOM     15  C   UNL     1      -5.133  20.485  69.415  0.00  0.00    +0.424 C 
ATOM     16  C   UNL     1      -5.201  20.629  70.720  0.00  0.00    +0.447 C 
BRANCH  16  17
ATOM     17  N   UNL     1      -4.505  19.778  71.639  0.00  0.00    +0.096 N 
ATOM     18  O   UNL     1      -5.195  18.642  72.024  0.00  0.00    -0.576 OA
ATOM     19  O   UNL     1      -3.704  20.268  72.457  0.00  0.00    +0.042 OA
ENDBRANCH  16  17
BRANCH  15  21
ATOM     20  C   UNL     1      -3.104  20.823  68.086  0.00  0.00    +0.306 C 
ATOM     21  N   UNL     1      -3.913  19.937  68.902  0.00  0.00    -0.023 NA
ENDBRANCH  15  21
ENDBRANCH  14  15
ENDBRANCH  13  14
ENDBRANCH  12  13
ENDBRANCH   1  12
TORSDOF 10
ENDMDL
MODEL 4
REMARK VINA RESULT:      -5.3      2.867      7.244
REMARK  Name = 
REMARK  10 active torsions:
REMARK  status: ('A' for Active; 'I' for Inactive)
REMARK    1  A    between atoms: N_2  and  C_3
REMARK    2  A    between atoms: C_3  and  N_8
REMARK    3  A    between atoms: C_4  and  N_5
REMARK    4  A    between atoms: N_8  and  C_9
REMARK    5  A    between atoms: C_9  and  C_10
REMARK    6  A    between atoms: C_10  and  S_11
REMARK    7  A    between atoms: S_11  and  C_12
REMARK    8  A    between atoms: C_12  and  C_13
REMARK    9  A    between atoms: C_16  and  C_17
REMARK   10  A    between atoms: C_17  and  N_18
REMARK                            x       y       z     vdW  Elec       q    Type
REMARK                         _______ _______ _______ _____ _____    ______ ____
ROOT
ATOM      1  S   UNL     1      -9.461  10.697  68.875  0.00  0.00    -0.128 S 
ENDROOT
BRANCH   1   2
ATOM      2  C   UNL     1     -11.263  10.425  68.927  0.00  0.00    +0.122 C 
BRANCH   2   3
ATOM      3  C   UNL     1     -11.754  10.836  70.278  0.00  0.00    +0.133 A 
ATOM      4  O   UNL     1     -12.233  12.013  70.560  0.00  0.00    -0.460 OA
ATOM      5  C   UNL     1     -12.840  12.017  71.731  0.00  0.00    +0.139 A 
ATOM      6  C   UNL     1     -13.253  10.705  71.928  0.00  0.00    +0.037 A 
ATOM      7  C   UNL     1     -12.437   9.947  71.098  0.00  0.00    +0.037 A 
BRANCH   5   8
ATOM      8  C   UNL     1     -13.585  13.226  72.204  0.00  0.00    +0.138 C 
BRANCH   8   9
ATOM      9  N   UNL     1     -12.753  14.405  72.108  0.00  0.00    -0.264 NA
ATOM     10  C   UNL     1     -13.339  15.355  71.164  0.00  0.00    +0.090 C 
ATOM     11  C   UNL     1     -12.609  15.101  73.361  0.00  0.00    +0.090 C 
ENDBRANCH   8   9
ENDBRANCH   5   8
ENDBRANCH   2   3
ENDBRANCH   1   2
BRANCH   1  12
ATOM     12  C   UNL     1      -9.070  11.574  67.331  0.00  0.00    +0.113 C 
BRANCH  12  13
ATOM     13  C   UNL     1     -10.113  12.654  67.163  0.00  0.00    +0.263 C 
BRANCH  13  14
ATOM     14  N   UNL     1      -9.411  13.868  66.819  0.00  0.00    -0.027 NA
BRANCH  14  15
ATOM     15  C   UNL     1     -10.007  14.993  66.207  0.00  0.00    +0.424 C 
ATOM     16  C   UNL     1     -10.314  15.084  64.932  0.00  0.00    +0.447 C 
BRANCH  16  17
ATOM     17  N   UNL     1     -11.574  15.577  64.463  0.00  0.00    +0.096 N 
ATOM     18  O   UNL     1     -12.470  14.604  64.054  0.00  0.00    -0.576 OA
ATOM     19  O   UNL     1     -11.640  16.688  63.905  0.00  0.00    +0.042 OA
ENDBRANCH  16  17
BRANCH  15  21
ATOM     20  C   UNL     1     -10.006  16.130  68.376  0.00  0.00    +0.306 C 
ATOM     21  N   UNL     1     -10.625  15.949  67.077  0.00  0.00    -0.023 NA
ENDBRANCH  15  21
ENDBRANCH  14  15
ENDBRANCH  13  14
ENDBRANCH  12  13
ENDBRANCH   1  12
TORSDOF 10
ENDMDL
MODEL 5
REMARK VINA RESULT:      -5.2      2.216      7.133
REMARK  Name = 
REMARK  10 active torsions:
REMARK  status: ('A' for Active; 'I' for Inactive)
REMARK    1  A    between atoms: N_2  and  C_3
REMARK    2  A    between atoms: C_3  and  N_8
REMARK    3  A    between atoms: C_4  and  N_5
REMARK    4  A    between atoms: N_8  and  C_9
REMARK    5  A    between atoms: C_9  and  C_10
REMARK    6  A    between atoms: C_10  and  S_11
REMARK    7  A    between atoms: S_11  and  C_12
REMARK    8  A    between atoms: C_12  and  C_13
REMARK    9  A    between atoms: C_16  and  C_17
REMARK   10  A    between atoms: C_17  and  N_18
REMARK                            x       y       z     vdW  Elec       q    Type
REMARK                         _______ _______ _______ _____ _____    ______ ____
ROOT
ATOM      1  S   UNL     1     -10.363  16.028  66.142  0.00  0.00    -0.128 S 
ENDROOT
BRANCH   1   2
ATOM      2  C   UNL     1     -10.460  17.427  67.307  0.00  0.00    +0.122 C 
BRANCH   2   3
ATOM      3  C   UNL     1     -10.803  16.882  68.657  0.00  0.00    +0.133 A 
ATOM      4  O   UNL     1     -11.936  16.317  68.956  0.00  0.00    -0.460 OA
ATOM      5  C   UNL     1     -11.870  15.689  70.113  0.00  0.00    +0.139 A 
ATOM      6  C   UNL     1     -10.527  15.365  70.271  0.00  0.00    +0.037 A 
ATOM      7  C   UNL     1      -9.849  16.248  69.441  0.00  0.00    +0.037 A 
BRANCH   5   8
ATOM      8  C   UNL     1     -13.011  14.852  70.599  0.00  0.00    +0.138 C 
BRANCH   8   9
ATOM      9  N   UNL     1     -13.873  15.623  71.468  0.00  0.00    -0.264 NA
ATOM     10  C   UNL     1     -15.206  15.026  71.509  0.00  0.00    +0.090 C 
ATOM     11  C   UNL     1     -13.401  15.681  72.828  0.00  0.00    +0.090 C 
ENDBRANCH   8   9
ENDBRANCH   5   8
ENDBRANCH   2   3
ENDBRANCH   1   2
BRANCH   1  12
ATOM     12  C   UNL     1      -8.757  15.209  66.380  0.00  0.00    +0.113 C 
BRANCH  12  13
ATOM     13  C   UNL     1      -9.045  13.824  66.913  0.00  0.00    +0.263 C 
BRANCH  13  14
ATOM     14  N   UNL     1     -10.448  13.569  66.690  0.00  0.00    -0.027 NA
BRANCH  14  15
ATOM     15  C   UNL     1     -10.958  12.702  65.698  0.00  0.00    +0.424 C 
ATOM     16  C   UNL     1     -12.182  12.739  65.221  0.00  0.00    +0.447 C 
BRANCH  16  17
ATOM     17  N   UNL     1     -12.480  12.678  63.821  0.00  0.00    +0.096 N 
ATOM     18  O   UNL     1     -12.579  13.906  63.188  0.00  0.00    -0.576 OA
ATOM     19  O   UNL     1     -13.167  11.744  63.370  0.00  0.00    +0.042 OA
ENDBRANCH  16  17
BRANCH  15  21
ATOM     20  C   UNL     1      -9.947  10.540  65.150  0.00  0.00    +0.306 C 
ATOM     21  N   UNL     1      -9.999  11.973  64.924  0.00  0.00    -0.023 NA
ENDBRANCH  15  21
ENDBRANCH  14  15
ENDBRANCH  13  14
ENDBRANCH  12  13
ENDBRANCH   1  12
TORSDOF 10
ENDMDL
MODEL 6
REMARK VINA RESULT:      -5.2      4.097      6.946
REMARK  Name = 
REMARK  10 active torsions:
REMARK  status: ('A' for Active; 'I' for Inactive)
REMARK    1  A    between atoms: N_2  and  C_3
REMARK    2  A    between atoms: C_3  and  N_8
REMARK    3  A    between atoms: C_4  and  N_5
REMARK    4  A    between atoms: N_8  and  C_9
REMARK    5  A    between atoms: C_9  and  C_10
REMARK    6  A    between atoms: C_10  and  S_11
REMARK    7  A    between atoms: S_11  and  C_12
REMARK    8  A    between atoms: C_12  and  C_13
REMARK    9  A    between atoms: C_16  and  C_17
REMARK   10  A    between atoms: C_17  and  N_18
REMARK                            x       y       z     vdW  Elec       q    Type
REMARK                         _______ _______ _______ _____ _____    ______ ____
ROOT
ATOM      1  S   UNL     1     -12.505  14.574  72.244  0.00  0.00    -0.128 S 
ENDROOT
BRANCH   1   2
ATOM      2  C   UNL     1     -13.689  13.191  72.165  0.00  0.00    +0.122 C 
BRANCH   2   3
ATOM      3  C   UNL     1     -12.935  11.957  71.784  0.00  0.00    +0.133 A 
ATOM      4  O   UNL     1     -13.316  10.745  72.065  0.00  0.00    -0.460 OA
ATOM      5  C   UNL     1     -12.625   9.853  71.382  0.00  0.00    +0.139 A 
ATOM      6  C   UNL     1     -12.205  10.521  70.238  0.00  0.00    +0.037 A 
ATOM      7  C   UNL     1     -12.266  11.868  70.571  0.00  0.00    +0.037 A 
BRANCH   5   8
ATOM      8  C   UNL     1     -12.980   8.400  71.439  0.00  0.00    +0.138 C 
BRANCH   8   9
ATOM      9  N   UNL     1     -11.950   7.653  72.128  0.00  0.00    -0.264 NA
ATOM     10  C   UNL     1     -11.595   6.464  71.356  0.00  0.00    +0.090 C 
ATOM     11  C   UNL     1     -10.735   8.404  72.316  0.00  0.00    +0.090 C 
ENDBRANCH   8   9
ENDBRANCH   5   8
ENDBRANCH   2   3
ENDBRANCH   1   2
BRANCH   1  12
ATOM     12  C   UNL     1     -12.809  15.657  70.815  0.00  0.00    +0.113 C 
BRANCH  12  13
ATOM     13  C   UNL     1     -11.627  15.501  69.887  0.00  0.00    +0.263 C 
BRANCH  13  14
ATOM     14  N   UNL     1     -11.757  16.512  68.864  0.00  0.00    -0.027 NA
BRANCH  14  15
ATOM     15  C   UNL     1     -10.683  17.039  68.114  0.00  0.00    +0.424 C 
ATOM     16  C   UNL     1      -9.901  16.339  67.323  0.00  0.00    +0.447 C 
BRANCH  16  17
ATOM     17  N   UNL     1      -9.547  16.758  65.999  0.00  0.00    +0.096 N 
ATOM     18  O   UNL     1     -10.368  16.278  64.993  0.00  0.00    -0.576 OA
ATOM     19  O   UNL     1      -8.356  16.977  65.712  0.00  0.00    +0.042 OA
ENDBRANCH  16  17
BRANCH  15  21
ATOM     20  C   UNL     1      -9.667  19.186  68.708  0.00  0.00    +0.306 C 
ATOM     21  N   UNL     1     -10.657  18.459  67.934  0.00  0.00    -0.023 NA
ENDBRANCH  15  21
ENDBRANCH  14  15
ENDBRANCH  13  14
ENDBRANCH  12  13
ENDBRANCH   1  12
TORSDOF 10
ENDMDL
MODEL 7
REMARK VINA RESULT:      -5.2      3.308      6.533
REMARK  Name = 
REMARK  10 active torsions:
REMARK  status: ('A' for Active; 'I' for Inactive)
REMARK    1  A    between atoms: N_2  and  C_3
REMARK    2  A    between atoms: C_3  and  N_8
REMARK    3  A    between atoms: C_4  and  N_5
REMARK    4  A    between atoms: N_8  and  C_9
REMARK    5  A    between atoms: C_9  and  C_10
REMARK    6  A    between atoms: C_10  and  S_11
REMARK    7  A    between atoms: S_11  and  C_12
REMARK    8  A    between atoms: C_12  and  C_13
REMARK    9  A    between atoms: C_16  and  C_17
REMARK   10  A    between atoms: C_17  and  N_18
REMARK                            x       y       z     vdW  Elec       q    Type
REMARK                         _______ _______ _______ _____ _____    ______ ____
ROOT
ATOM      1  S   UNL     1     -12.168  13.907  65.865  0.00  0.00    -0.128 S 
ENDROOT
BRANCH   1   2
ATOM      2  C   UNL     1     -11.716  12.522  66.962  0.00  0.00    +0.122 C 
BRANCH   2   3
ATOM      3  C   UNL     1     -11.610  13.052  68.356  0.00  0.00    +0.133 A 
ATOM      4  O   UNL     1     -12.108  14.186  68.752  0.00  0.00    -0.460 OA
ATOM      5  C   UNL     1     -12.113  14.277  70.068  0.00  0.00    +0.139 A 
ATOM      6  C   UNL     1     -12.155  12.963  70.519  0.00  0.00    +0.037 A 
ATOM      7  C   UNL     1     -11.682  12.206  69.455  0.00  0.00    +0.037 A 
BRANCH   5   8
ATOM      8  C   UNL     1     -12.764  15.436  70.755  0.00  0.00    +0.138 C 
BRANCH   8   9
ATOM      9  N   UNL     1     -13.609  14.975  71.836  0.00  0.00    -0.264 NA
ATOM     10  C   UNL     1     -13.404  15.807  73.020  0.00  0.00    +0.090 C 
ATOM     11  C   UNL     1     -15.014  15.038  71.523  0.00  0.00    +0.090 C 
ENDBRANCH   8   9
ENDBRANCH   5   8
ENDBRANCH   2   3
ENDBRANCH   1   2
BRANCH   1  12
ATOM     12  C   UNL     1     -10.642  14.553  65.118  0.00  0.00    +0.113 C 
BRANCH  12  13
ATOM     13  C   UNL     1     -10.632  16.044  65.357  0.00  0.00    +0.263 C 
BRANCH  13  14
ATOM     14  N   UNL     1      -9.278  16.408  65.704  0.00  0.00    -0.027 NA
BRANCH  14  15
ATOM     15  C   UNL     1      -8.889  16.964  66.942  0.00  0.00    +0.424 C 
ATOM     16  C   UNL     1      -8.248  18.103  67.090  0.00  0.00    +0.447 C 
BRANCH  16  17
ATOM     17  N   UNL     1      -8.628  19.097  68.049  0.00  0.00    +0.096 N 
ATOM     18  O   UNL     1      -9.447  20.101  67.561  0.00  0.00    -0.576 OA
ATOM     19  O   UNL     1      -7.858  19.388  68.983  0.00  0.00    +0.042 OA
ENDBRANCH  16  17
BRANCH  15  21
ATOM     20  C   UNL     1      -8.725  15.546  68.931  0.00  0.00    +0.306 C 
ATOM     21  N   UNL     1      -9.524  16.439  68.114  0.00  0.00    -0.023 NA
ENDBRANCH  15  21
ENDBRANCH  14  15
ENDBRANCH  13  14
ENDBRANCH  12  13
ENDBRANCH   1  12
TORSDOF 10
ENDMDL
MODEL 8
REMARK VINA RESULT:      -5.1      5.854      6.910
REMARK  Name = 
REMARK  10 active torsions:
REMARK  status: ('A' for Active; 'I' for Inactive)
REMARK    1  A    between atoms: N_2  and  C_3
REMARK    2  A    between atoms: C_3  and  N_8
REMARK    3  A    between atoms: C_4  and  N_5
REMARK    4  A    between atoms: N_8  and  C_9
REMARK    5  A    between atoms: C_9  and  C_10
REMARK    6  A    between atoms: C_10  and  S_11
REMARK    7  A    between atoms: S_11  and  C_12
REMARK    8  A    between atoms: C_12  and  C_13
REMARK    9  A    between atoms: C_16  and  C_17
REMARK   10  A    between atoms: C_17  and  N_18
REMARK                            x       y       z     vdW  Elec       q    Type
REMARK                         _______ _______ _______ _____ _____    ______ ____
ROOT
ATOM      1  S   UNL     1      -9.051  20.229  67.524  0.00  0.00    -0.128 S 
ENDROOT
BRANCH   1   2
ATOM      2  C   UNL     1      -9.944  19.665  66.038  0.00  0.00    +0.122 C 
BRANCH   2   3
ATOM      3  C   UNL     1     -10.426  18.272  66.290  0.00  0.00    +0.133 A 
ATOM      4  O   UNL     1     -10.066  17.232  65.596  0.00  0.00    -0.460 OA
ATOM      5  C   UNL     1     -10.415  16.110  66.195  0.00  0.00    +0.139 A 
ATOM      6  C   UNL     1     -10.478  16.427  67.546  0.00  0.00    +0.037 A 
ATOM      7  C   UNL     1     -10.640  17.806  67.581  0.00  0.00    +0.037 A 
BRANCH   5   8
ATOM      8  C   UNL     1      -9.985  14.784  65.650  0.00  0.00    +0.138 C 
BRANCH   8   9
ATOM      9  N   UNL     1     -11.064  14.165  64.911  0.00  0.00    -0.264 NA
ATOM     10  C   UNL     1     -10.581  12.965  64.231  0.00  0.00    +0.090 C 
ATOM     11  C   UNL     1     -12.162  13.754  65.749  0.00  0.00    +0.090 C 
ENDBRANCH   8   9
ENDBRANCH   5   8
ENDBRANCH   2   3
ENDBRANCH   1   2
BRANCH   1  12
ATOM     12  C   UNL     1      -7.387  19.497  67.492  0.00  0.00    +0.113 C 
BRANCH  12  13
ATOM     13  C   UNL     1      -7.207  18.757  68.796  0.00  0.00    +0.263 C 
BRANCH  13  14
ATOM     14  N   UNL     1      -5.847  18.982  69.226  0.00  0.00    -0.027 NA
BRANCH  14  15
ATOM     15  C   UNL     1      -5.377  20.180  69.806  0.00  0.00    +0.424 C 
ATOM     16  C   UNL     1      -5.458  20.483  71.083  0.00  0.00    +0.447 C 
BRANCH  16  17
ATOM     17  N   UNL     1      -4.361  21.018  71.833  0.00  0.00    +0.096 N 
ATOM     18  O   UNL     1      -3.597  20.080  72.506  0.00  0.00    -0.576 OA
ATOM     19  O   UNL     1      -4.444  22.155  72.332  0.00  0.00    +0.042 OA
ENDBRANCH  16  17
BRANCH  15  21
ATOM     20  C   UNL     1      -3.385  20.221  68.383  0.00  0.00    +0.306 C 
ATOM     21  N   UNL     1      -4.456  20.955  69.030  0.00  0.00    -0.023 NA
ENDBRANCH  15  21
ENDBRANCH  14  15
ENDBRANCH  13  14
ENDBRANCH  12  13
ENDBRANCH   1  12
TORSDOF 10
ENDMDL
MODEL 9
REMARK VINA RESULT:      -5.1      3.404      6.814
REMARK  Name = 
REMARK  10 active torsions:
REMARK  status: ('A' for Active; 'I' for Inactive)
REMARK    1  A    between atoms: N_2  and  C_3
REMARK    2  A    between atoms: C_3  and  N_8
REMARK    3  A    between atoms: C_4  and  N_5
REMARK    4  A    between atoms: N_8  and  C_9
REMARK    5  A    between atoms: C_9  and  C_10
REMARK    6  A    between atoms: C_10  and  S_11
REMARK    7  A    between atoms: S_11  and  C_12
REMARK    8  A    between atoms: C_12  and  C_13
REMARK    9  A    between atoms: C_16  and  C_17
REMARK   10  A    between atoms: C_17  and  N_18
REMARK                            x       y       z     vdW  Elec       q    Type
REMARK                         _______ _______ _______ _____ _____    ______ ____
ROOT
ATOM      1  S   UNL     1     -12.082  15.245  71.793  0.00  0.00    -0.128 S 
ENDROOT
BRANCH   1   2
ATOM      2  C   UNL     1     -13.345  14.064  71.214  0.00  0.00    +0.122 C 
BRANCH   2   3
ATOM      3  C   UNL     1     -12.790  12.684  71.360  0.00  0.00    +0.133 A 
ATOM      4  O   UNL     1     -13.335  11.743  72.073  0.00  0.00    -0.460 OA
ATOM      5  C   UNL     1     -12.801  10.567  71.807  0.00  0.00    +0.139 A 
ATOM      6  C   UNL     1     -12.320  10.674  70.508  0.00  0.00    +0.037 A 
ATOM      7  C   UNL     1     -12.174  12.039  70.295  0.00  0.00    +0.037 A 
BRANCH   5   8
ATOM      8  C   UNL     1     -13.362   9.316  72.407  0.00  0.00    +0.138 C 
BRANCH   8   9
ATOM      9  N   UNL     1     -13.484   8.281  71.403  0.00  0.00    -0.264 NA
ATOM     10  C   UNL     1     -12.470   7.252  71.620  0.00  0.00    +0.090 C 
ATOM     11  C   UNL     1     -14.762   7.617  71.426  0.00  0.00    +0.090 C 
ENDBRANCH   8   9
ENDBRANCH   5   8
ENDBRANCH   2   3
ENDBRANCH   1   2
BRANCH   1  12
ATOM     12  C   UNL     1     -10.975  15.612  70.399  0.00  0.00    +0.113 C 
BRANCH  12  13
ATOM     13  C   UNL     1     -11.844  15.754  69.172  0.00  0.00    +0.263 C 
BRANCH  13  14
ATOM     14  N   UNL     1     -11.063  15.299  68.046  0.00  0.00    -0.027 NA
BRANCH  14  15
ATOM     15  C   UNL     1     -11.356  14.152  67.277  0.00  0.00    +0.424 C 
ATOM     16  C   UNL     1     -12.432  13.993  66.538  0.00  0.00    +0.447 C 
BRANCH  16  17
ATOM     17  N   UNL     1     -12.394  13.495  65.195  0.00  0.00    +0.096 N 
ATOM     18  O   UNL     1     -12.026  14.423  64.235  0.00  0.00    -0.576 OA
ATOM     19  O   UNL     1     -13.168  12.586  64.846  0.00  0.00    +0.042 OA
ENDBRANCH  16  17
BRANCH  15  21
ATOM     20  C   UNL     1      -8.950  13.858  66.933  0.00  0.00    +0.306 C 
ATOM     21  N   UNL     1     -10.269  13.258  67.011  0.00  0.00    -0.023 NA
ENDBRANCH  15  21
ENDBRANCH  14  15
ENDBRANCH  13  14
ENDBRANCH  12  13
ENDBRANCH   1  12
TORSDOF 10
ENDMDL
