MODEL 1
REMARK VINA RESULT:      -6.4      0.000      0.000
REMARK  Name = 
REMARK  2 active torsions:
REMARK  status: ('A' for Active; 'I' for Inactive)
REMARK    1  A    between atoms: N_5  and  C1*_6
REMARK    2  A    between atoms: C4*_8  and  C5*_9
REMARK                            x       y       z     vdW  Elec       q    Type
REMARK                         _______ _______ _______ _____ _____    ______ ____
ROOT
ATOM      1  C1* UNL     1     -12.373  14.592  69.983  0.00  0.00    +0.243 C 
ATOM      2  C2* UNL     1     -10.919  15.450  69.539  0.00  0.00    +0.234 C 
ATOM      3  O2* UNL     1     -11.732  16.303  68.588  0.00  0.00    -0.216 OA
ATOM      4  C3* UNL     1     -10.418  14.268  68.387  0.00  0.00    +0.216 C 
ATOM      5  O3* UNL     1     -10.714  15.072  67.135  0.00  0.00    -0.218 OA
ATOM      6  C4* UNL     1     -11.984  13.526  68.423  0.00  0.00    +0.183 C 
ATOM      7  O4* UNL     1     -11.664  13.228  69.900  0.00  0.00    -0.330 OA
ENDROOT
BRANCH   1  13
ATOM      8  N   UNL     1     -12.528  15.966  75.197  0.00  0.00    -0.086 NA
ATOM      9  C   UNL     1     -12.497  15.652  74.065  0.00  0.00    +0.262 A 
ATOM     10  N   UNL     1     -13.062  14.513  73.606  0.00  0.00    -0.156 NA
ATOM     11  C   UNL     1     -12.920  14.083  72.331  0.00  0.00    +0.356 A 
ATOM     12  O   UNL     1     -13.568  13.070  71.928  0.00  0.00    -0.244 OA
ATOM     13  N   UNL     1     -12.023  14.730  71.550  0.00  0.00    -0.237 N 
ATOM     14  C   UNL     1     -11.831  16.040  71.852  0.00  0.00    +0.187 A 
ATOM     15  N   UNL     1     -12.085  16.506  73.097  0.00  0.00    -0.190 NA
ENDBRANCH   1  13
BRANCH   6  16
ATOM     16  C5* UNL     1     -11.357  12.104  67.835  0.00  0.00    +0.214 C 
ATOM     17  O5* UNL     1     -12.145  11.081  68.179  0.00  0.00    -0.218 OA
ENDBRANCH   6  16
TORSDOF 2
ENDMDL
MODEL 2
REMARK VINA RESULT:      -6.3      5.160      7.067
REMARK  Name = 
REMARK  2 active torsions:
REMARK  status: ('A' for Active; 'I' for Inactive)
REMARK    1  A    between atoms: N_5  and  C1*_6
REMARK    2  A    between atoms: C4*_8  and  C5*_9
REMARK                            x       y       z     vdW  Elec       q    Type
REMARK                         _______ _______ _______ _____ _____    ______ ____
ROOT
ATOM      1  C1* UNL     1     -10.531  16.951  66.346  0.00  0.00    +0.243 C 
ATOM      2  C2* UNL     1      -9.960  16.221  67.827  0.00  0.00    +0.234 C 
ATOM      3  O2* UNL     1     -10.786  17.214  68.616  0.00  0.00    -0.216 OA
ATOM      4  C3* UNL     1      -8.483  17.112  67.848  0.00  0.00    +0.216 C 
ATOM      5  O3* UNL     1      -8.829  18.045  68.993  0.00  0.00    -0.218 OA
ATOM      6  C4* UNL     1      -9.081  18.191  66.630  0.00  0.00    +0.183 C 
ATOM      7  O4* UNL     1      -9.121  16.943  65.730  0.00  0.00    -0.330 OA
ENDROOT
BRANCH   1  13
ATOM      8  N   UNL     1     -13.129  12.509  64.731  0.00  0.00    -0.086 NA
ATOM      9  C   UNL     1     -12.560  13.480  65.067  0.00  0.00    +0.262 A 
ATOM     10  N   UNL     1     -12.365  14.536  64.246  0.00  0.00    -0.156 NA
ATOM     11  C   UNL     1     -11.604  15.601  64.586  0.00  0.00    +0.356 A 
ATOM     12  O   UNL     1     -11.552  16.612  63.822  0.00  0.00    -0.244 OA
ATOM     13  N   UNL     1     -10.865  15.506  65.717  0.00  0.00    -0.237 N 
ATOM     14  C   UNL     1     -11.385  14.706  66.683  0.00  0.00    +0.187 A 
ATOM     15  N   UNL     1     -12.245  13.709  66.366  0.00  0.00    -0.190 NA
ENDBRANCH   1  13
BRANCH   6  16
ATOM     16  C5* UNL     1      -7.534  18.635  66.220  0.00  0.00    +0.214 C 
ATOM     17  O5* UNL     1      -7.566  19.617  65.313  0.00  0.00    -0.218 OA
ENDBRANCH   6  16
TORSDOF 2
ENDMDL
MODEL 3
REMARK VINA RESULT:      -6.0      5.219      6.189
REMARK  Name = 
REMARK  2 active torsions:
REMARK  status: ('A' for Active; 'I' for Inactive)
REMARK    1  A    between atoms: N_5  and  C1*_6
REMARK    2  A    between atoms: C4*_8  and  C5*_9
REMARK                            x       y       z     vdW  Elec       q    Type
REMARK                         _______ _______ _______ _____ _____    ______ ____
ROOT
ATOM      1  C1* UNL     1      -9.957  14.814  65.516  0.00  0.00    +0.243 C 
ATOM      2  C2* UNL     1     -10.304  13.898  66.962  0.00  0.00    +0.234 C 
ATOM      3  O2* UNL     1      -8.988  13.169  66.797  0.00  0.00    -0.216 OA
ATOM      4  C3* UNL     1     -11.290  12.741  66.148  0.00  0.00    +0.216 C 
ATOM      5  O3* UNL     1     -10.321  11.576  66.208  0.00  0.00    -0.218 OA
ATOM      6  C4* UNL     1     -10.718  13.293  64.607  0.00  0.00    +0.183 C 
ATOM      7  O4* UNL     1     -11.388  14.627  64.983  0.00  0.00    -0.330 OA
ENDROOT
BRANCH   1  13
ATOM      8  N   UNL     1      -9.929  19.913  67.275  0.00  0.00    -0.086 NA
ATOM      9  C   UNL     1      -9.948  18.806  66.883  0.00  0.00    +0.262 A 
ATOM     10  N   UNL     1     -10.584  18.442  65.747  0.00  0.00    -0.156 NA
ATOM     11  C   UNL     1     -10.717  17.153  65.359  0.00  0.00    +0.356 A 
ATOM     12  O   UNL     1     -11.221  16.881  64.228  0.00  0.00    -0.244 OA
ATOM     13  N   UNL     1     -10.359  16.194  66.245  0.00  0.00    -0.237 N 
ATOM     14  C   UNL     1      -9.376  16.545  67.114  0.00  0.00    +0.187 A 
ATOM     15  N   UNL     1      -9.155  17.845  67.418  0.00  0.00    -0.190 NA
ENDBRANCH   1  13
BRANCH   6  16
ATOM     16  C5* UNL     1     -12.051  12.652  63.849  0.00  0.00    +0.214 C 
ATOM     17  O5* UNL     1     -12.684  13.606  63.158  0.00  0.00    -0.218 OA
ENDBRANCH   6  16
TORSDOF 2
ENDMDL
MODEL 4
REMARK VINA RESULT:      -5.8      2.020      3.575
REMARK  Name = 
REMARK  2 active torsions:
REMARK  status: ('A' for Active; 'I' for Inactive)
REMARK    1  A    between atoms: N_5  and  C1*_6
REMARK    2  A    between atoms: C4*_8  and  C5*_9
REMARK                            x       y       z     vdW  Elec       q    Type
REMARK                         _______ _______ _______ _____ _____    ______ ____
ROOT
ATOM      1  C1* UNL     1     -10.905  13.988  68.286  0.00  0.00    +0.243 C 
ATOM      2  C2* UNL     1     -11.685  12.489  67.844  0.00  0.00    +0.234 C 
ATOM      3  O2* UNL     1     -10.380  11.760  68.080  0.00  0.00    -0.216 OA
ATOM      4  C3* UNL     1     -11.487  12.736  66.149  0.00  0.00    +0.216 C 
ATOM      5  O3* UNL     1     -10.406  11.695  65.922  0.00  0.00    -0.218 OA
ATOM      6  C4* UNL     1     -10.357  14.019  66.437  0.00  0.00    +0.183 C 
ATOM      7  O4* UNL     1     -11.544  14.738  67.104  0.00  0.00    -0.330 OA
ENDROOT
BRANCH   1  13
ATOM      8  N   UNL     1     -13.797  15.439  72.602  0.00  0.00    -0.086 NA
ATOM      9  C   UNL     1     -13.171  15.137  71.655  0.00  0.00    +0.262 A 
ATOM     10  N   UNL     1     -12.707  16.042  70.764  0.00  0.00    -0.156 NA
ATOM     11  C   UNL     1     -12.097  15.692  69.609  0.00  0.00    +0.356 A 
ATOM     12  O   UNL     1     -11.581  16.583  68.869  0.00  0.00    -0.244 OA
ATOM     13  N   UNL     1     -12.128  14.384  69.258  0.00  0.00    -0.237 N 
ATOM     14  C   UNL     1     -12.179  13.507  70.294  0.00  0.00    +0.187 A 
ATOM     15  N   UNL     1     -12.678  13.884  71.494  0.00  0.00    -0.190 NA
ENDBRANCH   1  13
BRANCH   6  16
ATOM     16  C5* UNL     1     -10.627  14.638  64.919  0.00  0.00    +0.214 C 
ATOM     17  O5* UNL     1     -10.550  15.973  64.951  0.00  0.00    -0.218 OA
ENDBRANCH   6  16
TORSDOF 2
ENDMDL
MODEL 5
REMARK VINA RESULT:      -5.8      4.268      5.321
REMARK  Name = 
REMARK  2 active torsions:
REMARK  status: ('A' for Active; 'I' for Inactive)
REMARK    1  A    between atoms: N_5  and  C1*_6
REMARK    2  A    between atoms: C4*_8  and  C5*_9
REMARK                            x       y       z     vdW  Elec       q    Type
REMARK                         _______ _______ _______ _____ _____    ______ ____
ROOT
ATOM      1  C1* UNL     1     -11.697  14.854  66.562  0.00  0.00    +0.243 C 
ATOM      2  C2* UNL     1     -10.986  14.535  64.999  0.00  0.00    +0.234 C 
ATOM      3  O2* UNL     1     -12.373  14.483  64.396  0.00  0.00    -0.216 OA
ATOM      4  C3* UNL     1     -10.813  12.842  65.278  0.00  0.00    +0.216 C 
ATOM      5  O3* UNL     1     -11.917  12.374  64.349  0.00  0.00    -0.218 OA
ATOM      6  C4* UNL     1     -11.854  12.934  66.662  0.00  0.00    +0.183 C 
ATOM      7  O4* UNL     1     -10.765  13.845  67.257  0.00  0.00    -0.330 OA
ENDROOT
BRANCH   1  13
ATOM      8  N   UNL     1      -9.530  19.770  67.042  0.00  0.00    -0.086 NA
ATOM      9  C   UNL     1     -10.001  18.697  66.953  0.00  0.00    +0.262 A 
ATOM     10  N   UNL     1     -10.561  18.054  68.002  0.00  0.00    -0.156 NA
ATOM     11  C   UNL     1     -10.989  16.773  67.936  0.00  0.00    +0.356 A 
ATOM     12  O   UNL     1     -11.611  16.261  68.916  0.00  0.00    -0.244 OA
ATOM     13  N   UNL     1     -10.665  16.062  66.830  0.00  0.00    -0.237 N 
ATOM     14  C   UNL     1     -10.526  16.792  65.693  0.00  0.00    +0.187 A 
ATOM     15  N   UNL     1     -10.215  18.108  65.751  0.00  0.00    -0.190 NA
ENDBRANCH   1  13
BRANCH   6  16
ATOM     16  C5* UNL     1     -11.226  11.519  67.265  0.00  0.00    +0.214 C 
ATOM     17  O5* UNL     1     -12.063  10.998  68.169  0.00  0.00    -0.218 OA
ENDBRANCH   6  16
TORSDOF 2
ENDMDL
MODEL 6
REMARK VINA RESULT:      -5.8      5.880      6.460
REMARK  Name = 
REMARK  2 active torsions:
REMARK  status: ('A' for Active; 'I' for Inactive)
REMARK    1  A    between atoms: N_5  and  C1*_6
REMARK    2  A    between atoms: C4*_8  and  C5*_9
REMARK                            x       y       z     vdW  Elec       q    Type
REMARK                         _______ _______ _______ _____ _____    ______ ____
ROOT
ATOM      1  C1* UNL     1     -10.912  13.770  65.621  0.00  0.00    +0.243 C 
ATOM      2  C2* UNL     1     -11.958  14.198  64.290  0.00  0.00    +0.234 C 
ATOM      3  O2* UNL     1     -13.160  13.915  65.165  0.00  0.00    -0.216 OA
ATOM      4  C3* UNL     1     -11.866  12.644  63.548  0.00  0.00    +0.216 C 
ATOM      5  O3* UNL     1     -13.269  12.178  63.888  0.00  0.00    -0.218 OA
ATOM      6  C4* UNL     1     -11.166  11.967  64.982  0.00  0.00    +0.183 C 
ATOM      7  O4* UNL     1      -9.997  12.932  64.709  0.00  0.00    -0.330 OA
ENDROOT
BRANCH   1  13
ATOM      8  N   UNL     1      -8.636  18.625  66.209  0.00  0.00    -0.086 NA
ATOM      9  C   UNL     1      -9.117  17.561  66.083  0.00  0.00    +0.262 A 
ATOM     10  N   UNL     1      -8.540  16.435  66.560  0.00  0.00    -0.156 NA
ATOM     11  C   UNL     1      -9.024  15.197  66.309  0.00  0.00    +0.356 A 
ATOM     12  O   UNL     1      -8.508  14.187  66.877  0.00  0.00    -0.244 OA
ATOM     13  N   UNL     1     -10.013  15.087  65.390  0.00  0.00    -0.237 N 
ATOM     14  C   UNL     1     -10.825  16.170  65.281  0.00  0.00    +0.187 A 
ATOM     15  N   UNL     1     -10.390  17.399  65.644  0.00  0.00    -0.190 NA
ENDBRANCH   1  13
BRANCH   6  16
ATOM     16  C5* UNL     1     -10.534  10.701  64.113  0.00  0.00    +0.214 C 
ATOM     17  O5* UNL     1      -9.926   9.841  64.937  0.00  0.00    -0.218 OA
ENDBRANCH   6  16
TORSDOF 2
ENDMDL
MODEL 7
REMARK VINA RESULT:      -5.7      3.257      5.581
REMARK  Name = 
REMARK  2 active torsions:
REMARK  status: ('A' for Active; 'I' for Inactive)
REMARK    1  A    between atoms: N_5  and  C1*_6
REMARK    2  A    between atoms: C4*_8  and  C5*_9
REMARK                            x       y       z     vdW  Elec       q    Type
REMARK                         _______ _______ _______ _____ _____    ______ ____
ROOT
ATOM      1  C1* UNL     1     -11.429  14.013  69.283  0.00  0.00    +0.243 C 
ATOM      2  C2* UNL     1     -11.859  15.705  69.260  0.00  0.00    +0.234 C 
ATOM      3  O2* UNL     1     -10.511  16.040  69.861  0.00  0.00    -0.216 OA
ATOM      4  C3* UNL     1     -12.740  15.635  70.741  0.00  0.00    +0.216 C 
ATOM      5  O3* UNL     1     -11.740  16.384  71.602  0.00  0.00    -0.218 OA
ATOM      6  C4* UNL     1     -12.066  14.079  71.102  0.00  0.00    +0.183 C 
ATOM      7  O4* UNL     1     -12.807  13.610  69.837  0.00  0.00    -0.330 OA
ENDROOT
BRANCH   1  13
ATOM      8  N   UNL     1     -11.569  12.988  63.989  0.00  0.00    -0.086 NA
ATOM      9  C   UNL     1     -11.548  13.199  65.144  0.00  0.00    +0.262 A 
ATOM     10  N   UNL     1     -11.839  12.254  66.067  0.00  0.00    -0.156 NA
ATOM     11  C   UNL     1     -11.940  12.522  67.389  0.00  0.00    +0.356 A 
ATOM     12  O   UNL     1     -12.101  11.576  68.217  0.00  0.00    -0.244 OA
ATOM     13  N   UNL     1     -11.933  13.823  67.764  0.00  0.00    -0.237 N 
ATOM     14  C   UNL     1     -11.232  14.656  66.953  0.00  0.00    +0.187 A 
ATOM     15  N   UNL     1     -11.021  14.340  65.653  0.00  0.00    -0.190 NA
ENDBRANCH   1  13
BRANCH   6  16
ATOM     16  C5* UNL     1     -13.313  13.749  72.150  0.00  0.00    +0.214 C 
ATOM     17  O5* UNL     1     -13.508  12.428  72.225  0.00  0.00    -0.218 OA
ENDBRANCH   6  16
TORSDOF 2
ENDMDL
MODEL 8
REMARK VINA RESULT:      -5.7      3.082      4.444
REMARK  Name = 
REMARK  2 active torsions:
REMARK  status: ('A' for Active; 'I' for Inactive)
REMARK    1  A    between atoms: N_5  and  C1*_6
REMARK    2  A    between atoms: C4*_8  and  C5*_9
REMARK                            x       y       z     vdW  Elec       q    Type
REMARK                         _______ _______ _______ _____ _____    ______ ____
ROOT
ATOM      1  C1* UNL     1     -11.905  14.256  68.190  0.00  0.00    +0.243 C 
ATOM      2  C2* UNL     1     -11.021  15.217  69.350  0.00  0.00    +0.234 C 
ATOM      3  O2* UNL     1     -12.207  16.150  69.457  0.00  0.00    -0.216 OA
ATOM      4  C3* UNL     1     -10.159  16.107  68.150  0.00  0.00    +0.216 C 
ATOM      5  O3* UNL     1     -10.890  17.426  68.318  0.00  0.00    -0.218 OA
ATOM      6  C4* UNL     1     -11.231  15.535  66.913  0.00  0.00    +0.183 C 
ATOM      7  O4* UNL     1     -10.680  14.141  67.264  0.00  0.00    -0.330 OA
ENDROOT
BRANCH   1  13
ATOM      8  N   UNL     1     -12.186   9.572  70.850  0.00  0.00    -0.086 NA
ATOM      9  C   UNL     1     -12.118  10.585  70.259  0.00  0.00    +0.262 A 
ATOM     10  N   UNL     1     -12.028  10.640  68.911  0.00  0.00    -0.156 NA
ATOM     11  C   UNL     1     -11.822  11.793  68.234  0.00  0.00    +0.356 A 
ATOM     12  O   UNL     1     -11.862  11.800  66.967  0.00  0.00    -0.244 OA
ATOM     13  N   UNL     1     -11.510  12.895  68.958  0.00  0.00    -0.237 N 
ATOM     14  C   UNL     1     -12.021  12.926  70.215  0.00  0.00    +0.187 A 
ATOM     15  N   UNL     1     -12.344  11.779  70.858  0.00  0.00    -0.190 NA
ENDBRANCH   1  13
BRANCH   6  16
ATOM     16  C5* UNL     1     -10.100  15.862  65.740  0.00  0.00    +0.214 C 
ATOM     17  O5* UNL     1     -10.662  16.561  64.748  0.00  0.00    -0.218 OA
ENDBRANCH   6  16
TORSDOF 2
ENDMDL
MODEL 9
REMARK VINA RESULT:      -5.6      2.170      3.790
REMARK  Name = 
REMARK  2 active torsions:
REMARK  status: ('A' for Active; 'I' for Inactive)
REMARK    1  A    between atoms: N_5  and  C1*_6
REMARK    2  A    between atoms: C4*_8  and  C5*_9
REMARK                            x       y       z     vdW  Elec       q    Type
REMARK                         _______ _______ _______ _____ _____    ______ ____
ROOT
ATOM      1  C1* UNL     1     -11.108  14.157  67.492  0.00  0.00    +0.243 C 
ATOM      2  C2* UNL     1     -11.478  12.462  67.695  0.00  0.00    +0.234 C 
ATOM      3  O2* UNL     1     -10.002  12.144  67.582  0.00  0.00    -0.216 OA
ATOM      4  C3* UNL     1     -11.873  12.217  66.034  0.00  0.00    +0.216 C 
ATOM      5  O3* UNL     1     -10.640  11.421  65.651  0.00  0.00    -0.218 OA
ATOM      6  C4* UNL     1     -11.167  13.742  65.610  0.00  0.00    +0.183 C 
ATOM      7  O4* UNL     1     -12.267  14.351  66.498  0.00  0.00    -0.330 OA
ENDROOT
BRANCH   1  13
ATOM      8  N   UNL     1     -12.848  15.460  72.429  0.00  0.00    -0.086 NA
ATOM      9  C   UNL     1     -12.473  15.190  71.349  0.00  0.00    +0.262 A 
ATOM     10  N   UNL     1     -12.158  16.129  70.428  0.00  0.00    -0.156 NA
ATOM     11  C   UNL     1     -11.849  15.827  69.146  0.00  0.00    +0.356 A 
ATOM     12  O   UNL     1     -11.449  16.738  68.359  0.00  0.00    -0.244 OA
ATOM     13  N   UNL     1     -12.051  14.552  68.739  0.00  0.00    -0.237 N 
ATOM     14  C   UNL     1     -11.930  13.608  69.707  0.00  0.00    +0.187 A 
ATOM     15  N   UNL     1     -12.120  13.926  71.009  0.00  0.00    -0.190 NA
ENDBRANCH   1  13
BRANCH   6  16
ATOM     16  C5* UNL     1     -12.050  13.794  64.203  0.00  0.00    +0.214 C 
ATOM     17  O5* UNL     1     -12.556  15.019  64.028  0.00  0.00    -0.218 OA
ENDBRANCH   6  16
TORSDOF 2
ENDMDL
