MODEL 1
REMARK VINA RESULT:      -5.8      0.000      0.000
REMARK  Name = 
REMARK  4 active torsions:
REMARK  status: ('A' for Active; 'I' for Inactive)
REMARK    1  A    between atoms: N_2  and  C_4
REMARK    2  A    between atoms: C_4  and  C_5
REMARK    3  A    between atoms: C_5  and  C_6
REMARK    4  A    between atoms: C_5  and  C_13
REMARK                            x       y       z     vdW  Elec       q    Type
REMARK                         _______ _______ _______ _____ _____    ______ ____
ROOT
ATOM      1  C   UNL     1     -10.732  12.794  68.567  0.00  0.00    +0.066 C 
ENDROOT
BRANCH   1   2
ATOM      2  C   UNL     1     -11.721  11.740  69.359  0.00  0.00    +0.132 C 
ATOM      3  C   UNL     1     -10.678  10.756  69.902  0.00  0.00    +0.031 C 
ATOM      4  C   UNL     1     -11.496   9.541  70.331  0.00  0.00    +0.003 C 
ATOM      5  C   UNL     1     -12.902   9.959  70.749  0.00  0.00    +0.000 C 
ATOM      6  C   UNL     1     -12.733  11.289  71.476  0.00  0.00    +0.003 C 
ATOM      7  C   UNL     1     -12.350  12.366  70.505  0.00  0.00    +0.031 C 
ATOM      8  O   UNL     1     -12.449  11.036  68.475  0.00  0.00    -0.225 OA
ENDBRANCH   1   2
BRANCH   1   9
ATOM      9  C   UNL     1     -11.451  12.565  67.119  0.00  0.00    -0.019 A 
ATOM     10  C   UNL     1     -10.543  12.084  66.171  0.00  0.00    -0.001 A 
ATOM     11  C   UNL     1     -11.087  11.877  64.907  0.00  0.00    +0.042 A 
ATOM     12  C   UNL     1     -12.252  12.529  64.534  0.00  0.00    +0.196 A 
ATOM     13  O   UNL     1     -13.073  12.067  63.499  0.00  0.00    -0.287 OA
ATOM     14  C   UNL     1     -12.632  13.576  65.361  0.00  0.00    +0.042 A 
ATOM     15  C   UNL     1     -12.085  13.709  66.634  0.00  0.00    -0.001 A 
ENDBRANCH   1   9
BRANCH   1  16
ATOM     16  C   UNL     1     -11.667  14.133  68.887  0.00  0.00    +0.079 C 
BRANCH  16  18
ATOM     17  C   UNL     1     -11.283  15.961  70.371  0.00  0.00    +0.090 C 
ATOM     18  N   UNL     1     -10.673  14.915  69.618  0.00  0.00    -0.270 NA
ATOM     19  C   UNL     1      -9.723  15.500  68.680  0.00  0.00    +0.090 C 
ENDBRANCH  16  18
ENDBRANCH   1  16
TORSDOF 4
ENDMDL
MODEL 2
REMARK VINA RESULT:      -5.7      3.618      5.670
REMARK  Name = 
REMARK  4 active torsions:
REMARK  status: ('A' for Active; 'I' for Inactive)
REMARK    1  A    between atoms: N_2  and  C_4
REMARK    2  A    between atoms: C_4  and  C_5
REMARK    3  A    between atoms: C_5  and  C_6
REMARK    4  A    between atoms: C_5  and  C_13
REMARK                            x       y       z     vdW  Elec       q    Type
REMARK                         _______ _______ _______ _____ _____    ______ ____
ROOT
ATOM      1  C   UNL     1      -9.603  15.644  67.743  0.00  0.00    +0.066 C 
ENDROOT
BRANCH   1   2
ATOM      2  C   UNL     1     -10.106  17.208  67.618  0.00  0.00    +0.132 C 
ATOM      3  C   UNL     1      -8.945  17.918  68.324  0.00  0.00    +0.031 C 
ATOM      4  C   UNL     1      -9.475  19.322  68.600  0.00  0.00    +0.003 C 
ATOM      5  C   UNL     1     -10.503  19.725  67.547  0.00  0.00    +0.000 C 
ATOM      6  C   UNL     1      -9.987  19.151  66.232  0.00  0.00    +0.003 C 
ATOM      7  C   UNL     1     -10.101  17.655  66.239  0.00  0.00    +0.031 C 
ATOM      8  O   UNL     1     -11.179  17.413  68.402  0.00  0.00    -0.225 OA
ENDBRANCH   1   2
BRANCH   1   9
ATOM      9  C   UNL     1     -10.498  15.130  66.479  0.00  0.00    -0.019 A 
ATOM     10  C   UNL     1     -11.664  14.488  66.909  0.00  0.00    -0.001 A 
ATOM     11  C   UNL     1     -12.470  14.012  65.880  0.00  0.00    +0.042 A 
ATOM     12  C   UNL     1     -11.934  13.782  64.622  0.00  0.00    +0.196 A 
ATOM     13  O   UNL     1     -12.723  13.728  63.468  0.00  0.00    -0.287 OA
ATOM     14  C   UNL     1     -10.548  13.771  64.566  0.00  0.00    +0.042 A 
ATOM     15  C   UNL     1      -9.791  14.300  65.608  0.00  0.00    -0.001 A 
ENDBRANCH   1   9
BRANCH   1  16
ATOM     16  C   UNL     1      -8.258  15.849  66.785  0.00  0.00    +0.079 C 
BRANCH  16  18
ATOM     17  C   UNL     1      -7.881  14.576  68.767  0.00  0.00    +0.090 C 
ATOM     18  N   UNL     1      -7.350  14.957  67.500  0.00  0.00    -0.270 NA
ATOM     19  C   UNL     1      -6.069  15.622  67.704  0.00  0.00    +0.090 C 
ENDBRANCH  16  18
ENDBRANCH   1  16
TORSDOF 4
ENDMDL
MODEL 3
REMARK VINA RESULT:      -5.7      2.883      6.414
REMARK  Name = 
REMARK  4 active torsions:
REMARK  status: ('A' for Active; 'I' for Inactive)
REMARK    1  A    between atoms: N_2  and  C_4
REMARK    2  A    between atoms: C_4  and  C_5
REMARK    3  A    between atoms: C_5  and  C_6
REMARK    4  A    between atoms: C_5  and  C_13
REMARK                            x       y       z     vdW  Elec       q    Type
REMARK                         _______ _______ _______ _____ _____    ______ ____
ROOT
ATOM      1  C   UNL     1     -10.751  14.536  69.182  0.00  0.00    +0.066 C 
ENDROOT
BRANCH   1   2
ATOM      2  C   UNL     1     -10.742  15.928  68.300  0.00  0.00    +0.132 C 
ATOM      3  C   UNL     1      -9.465  16.579  68.846  0.00  0.00    +0.031 C 
ATOM      4  C   UNL     1      -9.556  18.030  68.381  0.00  0.00    +0.003 C 
ATOM      5  C   UNL     1     -10.342  18.129  67.078  0.00  0.00    +0.000 C 
ATOM      6  C   UNL     1      -9.946  16.899  66.267  0.00  0.00    +0.003 C 
ATOM      7  C   UNL     1     -10.514  15.660  66.894  0.00  0.00    +0.031 C 
ATOM      8  O   UNL     1     -11.747  16.730  68.692  0.00  0.00    -0.225 OA
ENDBRANCH   1   2
BRANCH   1   9
ATOM      9  C   UNL     1     -11.801  15.108  70.294  0.00  0.00    -0.019 A 
ATOM     10  C   UNL     1     -11.176  15.306  71.530  0.00  0.00    -0.001 A 
ATOM     11  C   UNL     1     -12.018  15.781  72.530  0.00  0.00    +0.042 A 
ATOM     12  C   UNL     1     -13.390  15.610  72.427  0.00  0.00    +0.196 A 
ATOM     13  O   UNL     1     -14.301  16.405  73.132  0.00  0.00    -0.287 OA
ATOM     14  C   UNL     1     -13.799  14.707  71.458  0.00  0.00    +0.042 A 
ATOM     15  C   UNL     1     -12.926  14.298  70.454  0.00  0.00    -0.001 A 
ENDBRANCH   1   9
BRANCH   1  16
ATOM     16  C   UNL     1     -11.973  13.821  68.308  0.00  0.00    +0.079 C 
BRANCH  16  18
ATOM     17  C   UNL     1     -11.575  12.223  66.582  0.00  0.00    +0.090 C 
ATOM     18  N   UNL     1     -11.271  12.599  67.923  0.00  0.00    -0.270 NA
ATOM     19  C   UNL     1     -11.652  11.513  68.817  0.00  0.00    +0.090 C 
ENDBRANCH  16  18
ENDBRANCH   1  16
TORSDOF 4
ENDMDL
MODEL 4
REMARK VINA RESULT:      -5.7      2.345      5.604
REMARK  Name = 
REMARK  4 active torsions:
REMARK  status: ('A' for Active; 'I' for Inactive)
REMARK    1  A    between atoms: N_2  and  C_4
REMARK    2  A    between atoms: C_4  and  C_5
REMARK    3  A    between atoms: C_5  and  C_6
REMARK    4  A    between atoms: C_5  and  C_13
REMARK                            x       y       z     vdW  Elec       q    Type
REMARK                         _______ _______ _______ _____ _____    ______ ____
ROOT
ATOM      1  C   UNL     1     -10.467  13.418  68.542  0.00  0.00    +0.066 C 
ENDROOT
BRANCH   1   2
ATOM      2  C   UNL     1     -11.231  13.852  67.148  0.00  0.00    +0.132 C 
ATOM      3  C   UNL     1     -10.025  13.963  66.208  0.00  0.00    +0.031 C 
ATOM      4  C   UNL     1     -10.562  14.717  64.995  0.00  0.00    +0.003 C 
ATOM      5  C   UNL     1     -12.051  14.443  64.808  0.00  0.00    +0.000 C 
ATOM      6  C   UNL     1     -12.245  12.975  65.170  0.00  0.00    +0.003 C 
ATOM      7  C   UNL     1     -12.063  12.776  66.646  0.00  0.00    +0.031 C 
ATOM      8  O   UNL     1     -11.716  15.101  67.256  0.00  0.00    -0.225 OA
ENDBRANCH   1   2
BRANCH   1   9
ATOM      9  C   UNL     1     -11.562  14.146  69.509  0.00  0.00    -0.019 A 
ATOM     10  C   UNL     1     -10.984  15.190  70.239  0.00  0.00    -0.001 A 
ATOM     11  C   UNL     1     -11.861  15.847  71.095  0.00  0.00    +0.042 A 
ATOM     12  C   UNL     1     -13.025  15.223  71.515  0.00  0.00    +0.196 A 
ATOM     13  O   UNL     1     -14.128  15.938  71.998  0.00  0.00    -0.287 OA
ATOM     14  C   UNL     1     -13.083  13.859  71.274  0.00  0.00    +0.042 A 
ATOM     15  C   UNL     1     -12.206  13.260  70.373  0.00  0.00    -0.001 A 
ENDBRANCH   1   9
BRANCH   1  16
ATOM     16  C   UNL     1     -11.236  11.949  68.676  0.00  0.00    +0.079 C 
BRANCH  16  18
ATOM     17  C   UNL     1      -9.359  10.694  67.905  0.00  0.00    +0.090 C 
ATOM     18  N   UNL     1     -10.080  11.138  69.051  0.00  0.00    -0.270 NA
ATOM     19  C   UNL     1     -10.523   9.976  69.811  0.00  0.00    +0.090 C 
ENDBRANCH  16  18
ENDBRANCH   1  16
TORSDOF 4
ENDMDL
MODEL 5
REMARK VINA RESULT:      -5.6      2.666      5.531
REMARK  Name = 
REMARK  4 active torsions:
REMARK  status: ('A' for Active; 'I' for Inactive)
REMARK    1  A    between atoms: N_2  and  C_4
REMARK    2  A    between atoms: C_4  and  C_5
REMARK    3  A    between atoms: C_5  and  C_6
REMARK    4  A    between atoms: C_5  and  C_13
REMARK                            x       y       z     vdW  Elec       q    Type
REMARK                         _______ _______ _______ _____ _____    ______ ____
ROOT
ATOM      1  C   UNL     1     -12.003  15.540  68.880  0.00  0.00    +0.066 C 
ENDROOT
BRANCH   1   2
ATOM      2  C   UNL     1     -11.350  14.052  68.603  0.00  0.00    +0.132 C 
ATOM      3  C   UNL     1     -11.826  13.817  67.165  0.00  0.00    +0.031 C 
ATOM      4  C   UNL     1     -11.603  12.325  66.934  0.00  0.00    +0.003 C 
ATOM      5  C   UNL     1     -10.438  11.819  67.779  0.00  0.00    +0.000 C 
ATOM      6  C   UNL     1      -9.406  12.942  67.767  0.00  0.00    +0.003 C 
ATOM      7  C   UNL     1      -9.902  14.110  68.566  0.00  0.00    +0.031 C 
ATOM      8  O   UNL     1     -11.981  13.125  69.344  0.00  0.00    -0.225 OA
ENDBRANCH   1   2
BRANCH   1   9
ATOM      9  C   UNL     1     -12.180  15.294  70.484  0.00  0.00    -0.019 A 
ATOM     10  C   UNL     1     -13.528  15.164  70.833  0.00  0.00    -0.001 A 
ATOM     11  C   UNL     1     -13.753  14.965  72.191  0.00  0.00    +0.042 A 
ATOM     12  C   UNL     1     -12.793  15.337  73.120  0.00  0.00    +0.196 A 
ATOM     13  O   UNL     1     -12.748  14.797  74.410  0.00  0.00    -0.287 OA
ATOM     14  C   UNL     1     -11.788  16.157  72.631  0.00  0.00    +0.042 A 
ATOM     15  C   UNL     1     -11.581  16.287  71.261  0.00  0.00    -0.001 A 
ENDBRANCH   1   9
BRANCH   1  16
ATOM     16  C   UNL     1     -10.539  16.300  69.097  0.00  0.00    +0.079 C 
BRANCH  16  18
ATOM     17  C   UNL     1     -10.457  17.184  66.882  0.00  0.00    +0.090 C 
ATOM     18  N   UNL     1     -10.775  17.462  68.244  0.00  0.00    -0.270 NA
ATOM     19  C   UNL     1      -9.959  18.579  68.702  0.00  0.00    +0.090 C 
ENDBRANCH  16  18
ENDBRANCH   1  16
TORSDOF 4
ENDMDL
MODEL 6
REMARK VINA RESULT:      -5.5      2.708      5.108
REMARK  Name = 
REMARK  4 active torsions:
REMARK  status: ('A' for Active; 'I' for Inactive)
REMARK    1  A    between atoms: N_2  and  C_4
REMARK    2  A    between atoms: C_4  and  C_5
REMARK    3  A    between atoms: C_5  and  C_6
REMARK    4  A    between atoms: C_5  and  C_13
REMARK                            x       y       z     vdW  Elec       q    Type
REMARK                         _______ _______ _______ _____ _____    ______ ____
ROOT
ATOM      1  C   UNL     1     -10.111  13.709  67.062  0.00  0.00    +0.066 C 
ENDROOT
BRANCH   1   2
ATOM      2  C   UNL     1     -10.826  13.392  65.611  0.00  0.00    +0.132 C 
ATOM      3  C   UNL     1     -10.388  11.936  65.412  0.00  0.00    +0.031 C 
ATOM      4  C   UNL     1     -10.672  11.657  63.939  0.00  0.00    +0.003 C 
ATOM      5  C   UNL     1     -11.838  12.507  63.446  0.00  0.00    +0.000 C 
ATOM      6  C   UNL     1     -12.827  12.558  64.606  0.00  0.00    +0.003 C 
ATOM      7  C   UNL     1     -12.271  13.388  65.724  0.00  0.00    +0.031 C 
ATOM      8  O   UNL     1     -10.216  14.085  64.634  0.00  0.00    -0.225 OA
ENDBRANCH   1   2
BRANCH   1   9
ATOM      9  C   UNL     1      -9.760  15.257  66.685  0.00  0.00    -0.019 A 
ATOM     10  C   UNL     1      -8.397  15.525  66.850  0.00  0.00    -0.001 A 
ATOM     11  C   UNL     1      -8.029  16.834  66.558  0.00  0.00    +0.042 A 
ATOM     12  C   UNL     1      -8.977  17.846  66.574  0.00  0.00    +0.196 A 
ATOM     13  O   UNL     1      -8.795  19.056  65.896  0.00  0.00    -0.287 OA
ATOM     14  C   UNL     1     -10.182  17.514  67.174  0.00  0.00    +0.042 A 
ATOM     15  C   UNL     1     -10.517  16.183  67.405  0.00  0.00    -0.001 A 
ENDBRANCH   1   9
BRANCH   1  16
ATOM     16  C   UNL     1     -11.523  14.150  67.823  0.00  0.00    +0.079 C 
BRANCH  16  18
ATOM     17  C   UNL     1     -11.615  12.099  69.038  0.00  0.00    +0.090 C 
ATOM     18  N   UNL     1     -11.291  13.486  69.103  0.00  0.00    -0.270 NA
ATOM     19  C   UNL     1     -12.105  14.114  70.136  0.00  0.00    +0.090 C 
ENDBRANCH  16  18
ENDBRANCH   1  16
TORSDOF 4
ENDMDL
MODEL 7
REMARK VINA RESULT:      -5.5      2.293      3.315
REMARK  Name = 
REMARK  4 active torsions:
REMARK  status: ('A' for Active; 'I' for Inactive)
REMARK    1  A    between atoms: N_2  and  C_4
REMARK    2  A    between atoms: C_4  and  C_5
REMARK    3  A    between atoms: C_5  and  C_6
REMARK    4  A    between atoms: C_5  and  C_13
REMARK                            x       y       z     vdW  Elec       q    Type
REMARK                         _______ _______ _______ _____ _____    ______ ____
ROOT
ATOM      1  C   UNL     1     -10.406  15.160  69.197  0.00  0.00    +0.066 C 
ENDROOT
BRANCH   1   2
ATOM      2  C   UNL     1     -11.740  15.418  70.130  0.00  0.00    +0.132 C 
ATOM      3  C   UNL     1     -12.027  13.982  70.585  0.00  0.00    +0.031 C 
ATOM      4  C   UNL     1     -13.446  14.042  71.143  0.00  0.00    +0.003 C 
ATOM      5  C   UNL     1     -13.747  15.429  71.702  0.00  0.00    +0.000 C 
ATOM      6  C   UNL     1     -12.452  15.893  72.361  0.00  0.00    +0.003 C 
ATOM      7  C   UNL     1     -11.414  16.182  71.318  0.00  0.00    +0.031 C 
ATOM      8  O   UNL     1     -12.785  15.763  69.357  0.00  0.00    -0.225 OA
ENDBRANCH   1   2
BRANCH   1   9
ATOM      9  C   UNL     1     -11.246  14.471  67.979  0.00  0.00    -0.019 A 
ATOM     10  C   UNL     1     -10.937  13.112  67.852  0.00  0.00    -0.001 A 
ATOM     11  C   UNL     1     -11.610  12.464  66.821  0.00  0.00    +0.042 A 
ATOM     12  C   UNL     1     -12.138  13.192  65.766  0.00  0.00    +0.196 A 
ATOM     13  O   UNL     1     -13.162  12.698  64.950  0.00  0.00    -0.287 OA
ATOM     14  C   UNL     1     -11.695  14.503  65.675  0.00  0.00    +0.042 A 
ATOM     15  C   UNL     1     -11.065  15.116  66.754  0.00  0.00    -0.001 A 
ENDBRANCH   1   9
BRANCH   1  16
ATOM     16  C   UNL     1     -10.452  16.653  68.466  0.00  0.00    +0.079 C 
BRANCH  16  18
ATOM     17  C   UNL     1      -8.555  17.964  67.854  0.00  0.00    +0.090 C 
ATOM     18  N   UNL     1      -9.123  17.120  68.852  0.00  0.00    -0.270 NA
ATOM     19  C   UNL     1      -8.244  15.977  69.061  0.00  0.00    +0.090 C 
ENDBRANCH  16  18
ENDBRANCH   1  16
TORSDOF 4
ENDMDL
MODEL 8
REMARK VINA RESULT:      -5.5      3.373      5.724
REMARK  Name = 
REMARK  4 active torsions:
REMARK  status: ('A' for Active; 'I' for Inactive)
REMARK    1  A    between atoms: N_2  and  C_4
REMARK    2  A    between atoms: C_4  and  C_5
REMARK    3  A    between atoms: C_5  and  C_6
REMARK    4  A    between atoms: C_5  and  C_13
REMARK                            x       y       z     vdW  Elec       q    Type
REMARK                         _______ _______ _______ _____ _____    ______ ____
ROOT
ATOM      1  C   UNL     1      -9.603  17.163  66.365  0.00  0.00    +0.066 C 
ENDROOT
BRANCH   1   2
ATOM      2  C   UNL     1      -8.225  16.619  67.087  0.00  0.00    +0.132 C 
ATOM      3  C   UNL     1      -7.208  17.596  66.486  0.00  0.00    +0.031 C 
ATOM      4  C   UNL     1      -5.854  16.959  66.787  0.00  0.00    +0.003 C 
ATOM      5  C   UNL     1      -5.923  16.126  68.063  0.00  0.00    +0.000 C 
ATOM      6  C   UNL     1      -6.834  16.901  69.009  0.00  0.00    +0.003 C 
ATOM      7  C   UNL     1      -8.250  16.858  68.517  0.00  0.00    +0.031 C 
ATOM      8  O   UNL     1      -7.892  15.412  66.599  0.00  0.00    -0.225 OA
ENDBRANCH   1   2
BRANCH   1   9
ATOM      9  C   UNL     1     -10.306  15.690  66.327  0.00  0.00    -0.019 A 
ATOM     10  C   UNL     1     -10.942  15.461  65.103  0.00  0.00    -0.001 A 
ATOM     11  C   UNL     1     -11.575  14.226  65.006  0.00  0.00    +0.042 A 
ATOM     12  C   UNL     1     -11.931  13.533  66.153  0.00  0.00    +0.196 A 
ATOM     13  O   UNL     1     -12.160  12.152  66.155  0.00  0.00    -0.287 OA
ATOM     14  C   UNL     1     -11.887  14.272  67.325  0.00  0.00    +0.042 A 
ATOM     15  C   UNL     1     -11.203  15.483  67.376  0.00  0.00    -0.001 A 
ENDBRANCH   1   9
BRANCH   1  16
ATOM     16  C   UNL     1     -10.366  17.557  67.790  0.00  0.00    +0.079 C 
BRANCH  16  18
ATOM     17  C   UNL     1     -10.572  19.180  66.053  0.00  0.00    +0.090 C 
ATOM     18  N   UNL     1     -10.795  18.907  67.435  0.00  0.00    -0.270 NA
ATOM     19  C   UNL     1     -10.061  19.880  68.233  0.00  0.00    +0.090 C 
ENDBRANCH  16  18
ENDBRANCH   1  16
TORSDOF 4
ENDMDL
MODEL 9
REMARK VINA RESULT:      -5.4      2.411      5.121
REMARK  Name = 
REMARK  4 active torsions:
REMARK  status: ('A' for Active; 'I' for Inactive)
REMARK    1  A    between atoms: N_2  and  C_4
REMARK    2  A    between atoms: C_4  and  C_5
REMARK    3  A    between atoms: C_5  and  C_6
REMARK    4  A    between atoms: C_5  and  C_13
REMARK                            x       y       z     vdW  Elec       q    Type
REMARK                         _______ _______ _______ _____ _____    ______ ____
ROOT
ATOM      1  C   UNL     1     -10.214  12.851  67.100  0.00  0.00    +0.066 C 
ENDROOT
BRANCH   1   2
ATOM      2  C   UNL     1     -10.861  12.882  65.584  0.00  0.00    +0.132 C 
ATOM      3  C   UNL     1     -10.434  11.496  65.086  0.00  0.00    +0.031 C 
ATOM      4  C   UNL     1     -10.650  11.558  63.576  0.00  0.00    +0.003 C 
ATOM      5  C   UNL     1     -11.778  12.526  63.233  0.00  0.00    +0.000 C 
ATOM      6  C   UNL     1     -12.822  12.342  64.330  0.00  0.00    +0.003 C 
ATOM      7  C   UNL     1     -12.310  12.889  65.629  0.00  0.00    +0.031 C 
ATOM      8  O   UNL     1     -10.194  13.759  64.815  0.00  0.00    -0.225 OA
ENDBRANCH   1   2
BRANCH   1   9
ATOM      9  C   UNL     1     -10.407  14.454  67.344  0.00  0.00    -0.019 A 
ATOM     10  C   UNL     1      -9.183  15.081  67.600  0.00  0.00    -0.001 A 
ATOM     11  C   UNL     1      -9.276  16.449  67.830  0.00  0.00    +0.042 A 
ATOM     12  C   UNL     1     -10.479  17.010  68.230  0.00  0.00    +0.196 A 
ATOM     13  O   UNL     1     -10.766  18.370  68.066  0.00  0.00    -0.287 OA
ATOM     14  C   UNL     1     -11.438  16.103  68.657  0.00  0.00    +0.042 A 
ATOM     15  C   UNL     1     -11.315  14.749  68.361  0.00  0.00    -0.001 A 
ENDBRANCH   1   9
BRANCH   1  16
ATOM     16  C   UNL     1     -11.651  12.501  67.862  0.00  0.00    +0.079 C 
BRANCH  16  18
ATOM     17  C   UNL     1     -11.934  11.028  69.717  0.00  0.00    +0.090 C 
ATOM     18  N   UNL     1     -11.263  11.234  68.476  0.00  0.00    -0.270 NA
ATOM     19  C   UNL     1      -9.824  11.224  68.710  0.00  0.00    +0.090 C 
ENDBRANCH  16  18
ENDBRANCH   1  16
TORSDOF 4
ENDMDL
