MODEL 1
REMARK VINA RESULT:      -5.7      0.000      0.000
REMARK  Name = 
REMARK  4 active torsions:
REMARK  status: ('A' for Active; 'I' for Inactive)
REMARK    1  A    between atoms: C_2  and  C_3
REMARK    2  A    between atoms: C_3  and  C_4
REMARK    3  A    between atoms: C_4  and  C_6
REMARK    4  A    between atoms: C_6  and  C_7
REMARK                            x       y       z     vdW  Elec       q    Type
REMARK                         _______ _______ _______ _____ _____    ______ ____
ROOT
ATOM      1  C   UNL     1     -11.432  13.194  66.274  0.00  0.00    +0.141 C 
ATOM      2  C   UNL     1     -10.292  14.123  66.124  0.00  0.00    +0.257 C 
ATOM      3  O   UNL     1      -9.113  13.719  66.363  0.00  0.00    -0.272 OA
ATOM      4  N   UNL     1     -10.360  15.275  65.275  0.00  0.00    -0.125 NA
ATOM      5  C   UNL     1     -11.451  15.447  64.364  0.00  0.00    +0.352 C 
ATOM      6  O   UNL     1     -11.626  16.636  63.954  0.00  0.00    -0.248 OA
ATOM      7  N   UNL     1     -12.616  14.663  64.652  0.00  0.00    -0.125 NA
ATOM      8  C   UNL     1     -12.535  13.420  65.357  0.00  0.00    +0.257 C 
ATOM      9  O   UNL     1     -13.137  12.443  64.815  0.00  0.00    -0.272 OA
ENDROOT
BRANCH   1  10
ATOM     10  C   UNL     1     -11.995  13.492  67.801  0.00  0.00    +0.017 C 
ATOM     11  C   UNL     1     -10.492  13.897  68.362  0.00  0.00    +0.001 C 
BRANCH  10  12
ATOM     12  C   UNL     1     -11.801  11.914  68.265  0.00  0.00    +0.001 C 
BRANCH  12  14
ATOM     13  C   UNL     1     -11.996  10.552  70.341  0.00  0.00    +0.000 C 
ATOM     14  C   UNL     1     -11.860  11.950  69.769  0.00  0.00    +0.000 C 
ENDBRANCH  12  14
ENDBRANCH  10  12
ENDBRANCH   1  10
BRANCH   1  15
ATOM     15  C   UNL     1     -10.903  11.794  66.311  0.00  0.00    +0.018 C 
ATOM     16  C   UNL     1     -10.362  11.291  65.011  0.00  0.00    +0.001 C 
ENDBRANCH   1  15
TORSDOF 4
ENDMDL
MODEL 2
REMARK VINA RESULT:      -5.7      1.364      3.861
REMARK  Name = 
REMARK  4 active torsions:
REMARK  status: ('A' for Active; 'I' for Inactive)
REMARK    1  A    between atoms: C_2  and  C_3
REMARK    2  A    between atoms: C_3  and  C_4
REMARK    3  A    between atoms: C_4  and  C_6
REMARK    4  A    between atoms: C_6  and  C_7
REMARK                            x       y       z     vdW  Elec       q    Type
REMARK                         _______ _______ _______ _____ _____    ______ ____
ROOT
ATOM      1  C   UNL     1     -10.890  13.040  65.114  0.00  0.00    +0.141 C 
ATOM      2  C   UNL     1     -12.154  13.544  64.538  0.00  0.00    +0.257 C 
ATOM      3  O   UNL     1     -13.225  12.880  64.688  0.00  0.00    -0.272 OA
ATOM      4  N   UNL     1     -12.356  14.934  64.252  0.00  0.00    -0.125 NA
ATOM      5  C   UNL     1     -11.431  15.918  64.726  0.00  0.00    +0.352 C 
ATOM      6  O   UNL     1     -11.474  17.031  64.118  0.00  0.00    -0.248 OA
ATOM      7  N   UNL     1     -10.143  15.413  65.103  0.00  0.00    -0.125 NA
ATOM      8  C   UNL     1      -9.961  14.067  65.552  0.00  0.00    +0.257 C 
ATOM      9  O   UNL     1      -9.312  13.934  66.634  0.00  0.00    -0.272 OA
ENDROOT
BRANCH   1  10
ATOM     10  C   UNL     1     -10.173  12.229  63.864  0.00  0.00    +0.017 C 
ATOM     11  C   UNL     1     -11.565  11.421  63.484  0.00  0.00    +0.001 C 
BRANCH  10  12
ATOM     12  C   UNL     1      -9.664  10.999  64.849  0.00  0.00    +0.001 C 
BRANCH  12  14
ATOM     13  C   UNL     1      -8.635   8.739  64.659  0.00  0.00    +0.000 C 
ATOM     14  C   UNL     1      -9.253   9.901  63.905  0.00  0.00    +0.000 C 
ENDBRANCH  12  14
ENDBRANCH  10  12
ENDBRANCH   1  10
BRANCH   1  15
ATOM     15  C   UNL     1     -11.216  11.992  66.133  0.00  0.00    +0.018 C 
ATOM     16  C   UNL     1     -11.759  12.516  67.424  0.00  0.00    +0.001 C 
ENDBRANCH   1  15
TORSDOF 4
ENDMDL
MODEL 3
REMARK VINA RESULT:      -5.5      1.935      2.350
REMARK  Name = 
REMARK  4 active torsions:
REMARK  status: ('A' for Active; 'I' for Inactive)
REMARK    1  A    between atoms: C_2  and  C_3
REMARK    2  A    between atoms: C_3  and  C_4
REMARK    3  A    between atoms: C_4  and  C_6
REMARK    4  A    between atoms: C_6  and  C_7
REMARK                            x       y       z     vdW  Elec       q    Type
REMARK                         _______ _______ _______ _____ _____    ______ ____
ROOT
ATOM      1  C   UNL     1     -10.827  13.996  67.300  0.00  0.00    +0.141 C 
ATOM      2  C   UNL     1     -10.273  14.821  66.206  0.00  0.00    +0.257 C 
ATOM      3  O   UNL     1      -9.048  15.154  66.225  0.00  0.00    -0.272 OA
ATOM      4  N   UNL     1     -10.875  14.859  64.906  0.00  0.00    -0.125 NA
ATOM      5  C   UNL     1     -11.901  13.927  64.549  0.00  0.00    +0.352 C 
ATOM      6  O   UNL     1     -12.619  14.273  63.562  0.00  0.00    -0.248 OA
ATOM      7  N   UNL     1     -12.549  13.281  65.652  0.00  0.00    -0.125 NA
ATOM      8  C   UNL     1     -11.890  13.087  66.907  0.00  0.00    +0.257 C 
ATOM      9  O   UNL     1     -11.939  11.908  67.376  0.00  0.00    -0.272 OA
ENDROOT
BRANCH   1  10
ATOM     10  C   UNL     1     -11.485  15.099  68.342  0.00  0.00    +0.017 C 
ATOM     11  C   UNL     1     -10.046  15.340  69.122  0.00  0.00    +0.001 C 
BRANCH  10  12
ATOM     12  C   UNL     1     -11.936  13.928  69.422  0.00  0.00    +0.001 C 
BRANCH  12  14
ATOM     13  C   UNL     1     -13.200  15.362  71.020  0.00  0.00    +0.000 C 
ATOM     14  C   UNL     1     -11.905  14.616  70.762  0.00  0.00    +0.000 C 
ENDBRANCH  12  14
ENDBRANCH  10  12
ENDBRANCH   1  10
BRANCH   1  15
ATOM     15  C   UNL     1      -9.691  13.371  68.048  0.00  0.00    +0.018 C 
ATOM     16  C   UNL     1      -8.965  12.294  67.307  0.00  0.00    +0.001 C 
ENDBRANCH   1  15
TORSDOF 4
ENDMDL
MODEL 4
REMARK VINA RESULT:      -5.5      2.506      3.908
REMARK  Name = 
REMARK  4 active torsions:
REMARK  status: ('A' for Active; 'I' for Inactive)
REMARK    1  A    between atoms: C_2  and  C_3
REMARK    2  A    between atoms: C_3  and  C_4
REMARK    3  A    between atoms: C_4  and  C_6
REMARK    4  A    between atoms: C_6  and  C_7
REMARK                            x       y       z     vdW  Elec       q    Type
REMARK                         _______ _______ _______ _____ _____    ______ ____
ROOT
ATOM      1  C   UNL     1     -10.644  15.050  67.109  0.00  0.00    +0.141 C 
ATOM      2  C   UNL     1     -10.789  15.683  68.437  0.00  0.00    +0.257 C 
ATOM      3  O   UNL     1     -10.428  15.054  69.478  0.00  0.00    -0.272 OA
ATOM      4  N   UNL     1     -10.846  17.106  68.596  0.00  0.00    -0.125 NA
ATOM      5  C   UNL     1     -10.534  17.976  67.502  0.00  0.00    +0.352 C 
ATOM      6  O   UNL     1     -10.975  19.160  67.617  0.00  0.00    -0.248 OA
ATOM      7  N   UNL     1     -10.587  17.367  66.205  0.00  0.00    -0.125 NA
ATOM      8  C   UNL     1     -10.363  15.966  66.018  0.00  0.00    +0.257 C 
ATOM      9  O   UNL     1      -9.524  15.661  65.116  0.00  0.00    -0.272 OA
ENDROOT
BRANCH   1  10
ATOM     10  C   UNL     1     -12.129  14.380  66.818  0.00  0.00    +0.017 C 
ATOM     11  C   UNL     1     -11.637  12.880  67.314  0.00  0.00    +0.001 C 
BRANCH  10  12
ATOM     12  C   UNL     1     -11.754  14.040  65.241  0.00  0.00    +0.001 C 
BRANCH  12  14
ATOM     13  C   UNL     1     -12.152  12.254  63.552  0.00  0.00    +0.000 C 
ATOM     14  C   UNL     1     -12.460  12.741  64.955  0.00  0.00    +0.000 C 
ENDBRANCH  12  14
ENDBRANCH  10  12
ENDBRANCH   1  10
BRANCH   1  15
ATOM     15  C   UNL     1      -9.703  13.892  67.234  0.00  0.00    +0.018 C 
ATOM     16  C   UNL     1      -8.261  14.264  67.361  0.00  0.00    +0.001 C 
ENDBRANCH   1  15
TORSDOF 4
ENDMDL
MODEL 5
REMARK VINA RESULT:      -5.4      2.608      4.035
REMARK  Name = 
REMARK  4 active torsions:
REMARK  status: ('A' for Active; 'I' for Inactive)
REMARK    1  A    between atoms: C_2  and  C_3
REMARK    2  A    between atoms: C_3  and  C_4
REMARK    3  A    between atoms: C_4  and  C_6
REMARK    4  A    between atoms: C_6  and  C_7
REMARK                            x       y       z     vdW  Elec       q    Type
REMARK                         _______ _______ _______ _____ _____    ______ ____
ROOT
ATOM      1  C   UNL     1     -10.346  15.633  67.724  0.00  0.00    +0.141 C 
ATOM      2  C   UNL     1     -10.916  16.827  68.383  0.00  0.00    +0.257 C 
ATOM      3  O   UNL     1     -10.992  16.872  69.649  0.00  0.00    -0.272 OA
ATOM      4  N   UNL     1     -10.936  18.109  67.744  0.00  0.00    -0.125 NA
ATOM      5  C   UNL     1     -10.199  18.335  66.537  0.00  0.00    +0.352 C 
ATOM      6  O   UNL     1     -10.576  19.339  65.860  0.00  0.00    -0.248 OA
ATOM      7  N   UNL     1      -9.823  17.150  65.822  0.00  0.00    -0.125 NA
ATOM      8  C   UNL     1      -9.636  15.896  66.484  0.00  0.00    +0.257 C 
ATOM      9  O   UNL     1      -8.550  15.293  66.220  0.00  0.00    -0.272 OA
ENDROOT
BRANCH   1  10
ATOM     10  C   UNL     1     -11.667  14.712  67.347  0.00  0.00    +0.017 C 
ATOM     11  C   UNL     1     -11.781  14.106  68.883  0.00  0.00    +0.001 C 
BRANCH  10  12
ATOM     12  C   UNL     1     -10.734  13.434  66.856  0.00  0.00    +0.001 C 
BRANCH  12  14
ATOM     13  C   UNL     1     -12.524  13.036  65.169  0.00  0.00    +0.000 C 
ATOM     14  C   UNL     1     -11.718  12.435  66.305  0.00  0.00    +0.000 C 
ENDBRANCH  12  14
ENDBRANCH  10  12
ENDBRANCH   1  10
BRANCH   1  15
ATOM     15  C   UNL     1      -9.587  14.843  68.744  0.00  0.00    +0.018 C 
ATOM     16  C   UNL     1      -8.308  15.467  69.200  0.00  0.00    +0.001 C 
ENDBRANCH   1  15
TORSDOF 4
ENDMDL
MODEL 6
REMARK VINA RESULT:      -5.1      4.174      6.154
REMARK  Name = 
REMARK  4 active torsions:
REMARK  status: ('A' for Active; 'I' for Inactive)
REMARK    1  A    between atoms: C_2  and  C_3
REMARK    2  A    between atoms: C_3  and  C_4
REMARK    3  A    between atoms: C_4  and  C_6
REMARK    4  A    between atoms: C_6  and  C_7
REMARK                            x       y       z     vdW  Elec       q    Type
REMARK                         _______ _______ _______ _____ _____    ______ ____
ROOT
ATOM      1  C   UNL     1      -8.780  17.109  66.855  0.00  0.00    +0.141 C 
ATOM      2  C   UNL     1      -8.977  15.820  66.158  0.00  0.00    +0.257 C 
ATOM      3  O   UNL     1      -8.585  14.743  66.702  0.00  0.00    -0.272 OA
ATOM      4  N   UNL     1      -9.993  15.643  65.163  0.00  0.00    -0.125 NA
ATOM      5  C   UNL     1     -11.005  16.638  64.968  0.00  0.00    +0.352 C 
ATOM      6  O   UNL     1     -11.601  16.583  63.850  0.00  0.00    -0.248 OA
ATOM      7  N   UNL     1     -10.696  17.934  65.498  0.00  0.00    -0.125 NA
ATOM      8  C   UNL     1      -9.808  18.105  66.606  0.00  0.00    +0.257 C 
ATOM      9  O   UNL     1     -10.243  18.835  67.549  0.00  0.00    -0.272 OA
ENDROOT
BRANCH   1  10
ATOM     10  C   UNL     1      -7.367  17.694  66.227  0.00  0.00    +0.017 C 
ATOM     11  C   UNL     1      -6.458  17.018  67.433  0.00  0.00    +0.001 C 
BRANCH  10  12
ATOM     12  C   UNL     1      -7.499  19.123  67.054  0.00  0.00    +0.001 C 
BRANCH  12  14
ATOM     13  C   UNL     1      -6.071  21.131  67.419  0.00  0.00    +0.000 C 
ATOM     14  C   UNL     1      -6.087  19.638  67.151  0.00  0.00    +0.000 C 
ENDBRANCH  12  14
ENDBRANCH  10  12
ENDBRANCH   1  10
BRANCH   1  15
ATOM     15  C   UNL     1      -8.490  16.830  68.296  0.00  0.00    +0.018 C 
ATOM     16  C   UNL     1      -9.638  16.269  69.073  0.00  0.00    +0.001 C 
ENDBRANCH   1  15
TORSDOF 4
ENDMDL
MODEL 7
REMARK VINA RESULT:      -5.1      8.070      9.805
REMARK  Name = 
REMARK  4 active torsions:
REMARK  status: ('A' for Active; 'I' for Inactive)
REMARK    1  A    between atoms: C_2  and  C_3
REMARK    2  A    between atoms: C_3  and  C_4
REMARK    3  A    between atoms: C_4  and  C_6
REMARK    4  A    between atoms: C_6  and  C_7
REMARK                            x       y       z     vdW  Elec       q    Type
REMARK                         _______ _______ _______ _____ _____    ______ ____
ROOT
ATOM      1  C   UNL     1      -5.510  19.185  69.549  0.00  0.00    +0.141 C 
ATOM      2  C   UNL     1      -5.251  18.809  70.955  0.00  0.00    +0.257 C 
ATOM      3  O   UNL     1      -5.004  17.600  71.249  0.00  0.00    -0.272 OA
ATOM      4  N   UNL     1      -4.782  19.759  71.920  0.00  0.00    -0.125 NA
ATOM      5  C   UNL     1      -4.327  21.053  71.508  0.00  0.00    +0.352 C 
ATOM      6  O   UNL     1      -4.303  21.929  72.426  0.00  0.00    -0.248 OA
ATOM      7  N   UNL     1      -4.757  21.465  70.204  0.00  0.00    -0.125 NA
ATOM      8  C   UNL     1      -5.067  20.517  69.177  0.00  0.00    +0.257 C 
ATOM      9  O   UNL     1      -4.512  20.724  68.054  0.00  0.00    -0.272 OA
ENDROOT
BRANCH   1  10
ATOM     10  C   UNL     1      -7.159  19.164  69.424  0.00  0.00    +0.017 C 
ATOM     11  C   UNL     1      -7.167  17.659  68.734  0.00  0.00    +0.001 C 
BRANCH  10  12
ATOM     12  C   UNL     1      -7.136  19.902  67.942  0.00  0.00    +0.001 C 
BRANCH  12  14
ATOM     13  C   UNL     1      -9.524  20.257  67.332  0.00  0.00    +0.000 C 
ATOM     14  C   UNL     1      -8.326  19.334  67.216  0.00  0.00    +0.000 C 
ENDBRANCH  12  14
ENDBRANCH  10  12
ENDBRANCH   1  10
BRANCH   1  15
ATOM     15  C   UNL     1      -5.030  18.077  68.664  0.00  0.00    +0.018 C 
ATOM     16  C   UNL     1      -3.543  17.950  68.565  0.00  0.00    +0.001 C 
ENDBRANCH   1  15
TORSDOF 4
ENDMDL
MODEL 8
REMARK VINA RESULT:      -5.1      2.116      3.838
REMARK  Name = 
REMARK  4 active torsions:
REMARK  status: ('A' for Active; 'I' for Inactive)
REMARK    1  A    between atoms: C_2  and  C_3
REMARK    2  A    between atoms: C_3  and  C_4
REMARK    3  A    between atoms: C_4  and  C_6
REMARK    4  A    between atoms: C_6  and  C_7
REMARK                            x       y       z     vdW  Elec       q    Type
REMARK                         _______ _______ _______ _____ _____    ______ ____
ROOT
ATOM      1  C   UNL     1     -10.674  13.405  67.246  0.00  0.00    +0.141 C 
ATOM      2  C   UNL     1     -11.555  12.367  66.669  0.00  0.00    +0.257 C 
ATOM      3  O   UNL     1     -12.036  11.461  67.416  0.00  0.00    -0.272 OA
ATOM      4  N   UNL     1     -12.288  12.584  65.457  0.00  0.00    -0.125 NA
ATOM      5  C   UNL     1     -12.376  13.892  64.881  0.00  0.00    +0.352 C 
ATOM      6  O   UNL     1     -12.698  13.916  63.654  0.00  0.00    -0.248 OA
ATOM      7  N   UNL     1     -11.382  14.823  65.328  0.00  0.00    -0.125 NA
ATOM      8  C   UNL     1     -10.764  14.709  66.614  0.00  0.00    +0.257 C 
ATOM      9  O   UNL     1     -10.752  15.769  67.312  0.00  0.00    -0.272 OA
ENDROOT
BRANCH   1  10
ATOM     10  C   UNL     1      -9.146  12.831  66.974  0.00  0.00    +0.017 C 
ATOM     11  C   UNL     1      -9.322  11.612  68.079  0.00  0.00    +0.001 C 
BRANCH  10  12
ATOM     12  C   UNL     1      -8.482  13.837  68.110  0.00  0.00    +0.001 C 
BRANCH  12  14
ATOM     13  C   UNL     1      -7.196  15.734  67.134  0.00  0.00    +0.000 C 
ATOM     14  C   UNL     1      -7.167  14.266  67.515  0.00  0.00    +0.000 C 
ENDBRANCH  12  14
ENDBRANCH  10  12
ENDBRANCH   1  10
BRANCH   1  15
ATOM     15  C   UNL     1     -10.843  13.399  68.733  0.00  0.00    +0.018 C 
ATOM     16  C   UNL     1     -12.129  13.981  69.224  0.00  0.00    +0.001 C 
ENDBRANCH   1  15
TORSDOF 4
ENDMDL
MODEL 9
REMARK VINA RESULT:      -5.1      2.161      3.906
REMARK  Name = 
REMARK  4 active torsions:
REMARK  status: ('A' for Active; 'I' for Inactive)
REMARK    1  A    between atoms: C_2  and  C_3
REMARK    2  A    between atoms: C_3  and  C_4
REMARK    3  A    between atoms: C_4  and  C_6
REMARK    4  A    between atoms: C_6  and  C_7
REMARK                            x       y       z     vdW  Elec       q    Type
REMARK                         _______ _______ _______ _____ _____    ______ ____
ROOT
ATOM      1  C   UNL     1     -10.491  13.719  66.382  0.00  0.00    +0.141 C 
ATOM      2  C   UNL     1     -10.137  12.627  65.450  0.00  0.00    +0.257 C 
ATOM      3  O   UNL     1      -9.187  11.836  65.739  0.00  0.00    -0.272 OA
ATOM      4  N   UNL     1     -11.077  12.103  64.505  0.00  0.00    -0.125 NA
ATOM      5  C   UNL     1     -12.462  12.457  64.580  0.00  0.00    +0.352 C 
ATOM      6  O   UNL     1     -13.122  12.268  63.512  0.00  0.00    -0.248 OA
ATOM      7  N   UNL     1     -12.750  13.636  65.342  0.00  0.00    -0.125 NA
ATOM      8  C   UNL     1     -11.899  14.075  66.406  0.00  0.00    +0.257 C 
ATOM      9  O   UNL     1     -12.482  14.335  67.502  0.00  0.00    -0.272 OA
ENDROOT
BRANCH   1  10
ATOM     10  C   UNL     1      -9.663  15.028  65.801  0.00  0.00    +0.017 C 
ATOM     11  C   UNL     1      -8.468  14.876  66.934  0.00  0.00    +0.001 C 
BRANCH  10  12
ATOM     12  C   UNL     1     -10.508  16.085  66.756  0.00  0.00    +0.001 C 
BRANCH  12  14
ATOM     13  C   UNL     1     -10.297  18.485  67.387  0.00  0.00    +0.000 C 
ATOM     14  C   UNL     1     -10.053  17.449  66.306  0.00  0.00    +0.000 C 
ENDBRANCH  12  14
ENDBRANCH  10  12
ENDBRANCH   1  10
BRANCH   1  15
ATOM     15  C   UNL     1      -9.880  13.423  67.716  0.00  0.00    +0.018 C 
ATOM     16  C   UNL     1     -10.503  12.281  68.454  0.00  0.00    +0.001 C 
ENDBRANCH   1  15
TORSDOF 4
ENDMDL
