MODEL 1
REMARK VINA RESULT:      -6.7      0.000      0.000
REMARK  Name = 
REMARK  4 active torsions:
REMARK  status: ('A' for Active; 'I' for Inactive)
REMARK    1  A    between atoms: C_9  and  O_10
REMARK    2  A    between atoms: O_10  and  C_11
REMARK    3  A    between atoms: C_11  and  C_13
REMARK    4  A    between atoms: C_13  and  C_15
REMARK                            x       y       z     vdW  Elec       q    Type
REMARK                         _______ _______ _______ _____ _____    ______ ____
ROOT
ATOM      1  O   UNL     1     -10.238  16.360  64.937  0.00  0.00    -0.450 OA
ENDROOT
BRANCH   1   6
ATOM      2  C   UNL     1     -10.293  17.415  68.469  0.00  0.00    +0.170 C 
ATOM      3  N   UNL     1      -9.716  18.267  68.233  0.00  0.00    +0.298 N 
ATOM      4  C   UNL     1      -9.027  18.298  66.818  0.00  0.00    +0.062 C 
ATOM      5  C   UNL     1      -8.764  16.689  66.842  0.00  0.00    +0.099 C 
ATOM      6  C   UNL     1     -10.159  16.933  66.184  0.00  0.00    +0.180 C 
ATOM      7  C   UNL     1     -10.462  18.397  65.881  0.00  0.00    +0.099 C 
ATOM      8  C   UNL     1      -7.720  19.028  67.396  0.00  0.00    +0.061 C 
ATOM      9  C   UNL     1      -8.801  20.053  66.888  0.00  0.00    +0.061 C 
ATOM     10  C   UNL     1     -10.291  19.363  67.213  0.00  0.00    +0.062 C 
ATOM     11  C   UNL     1      -9.793  19.272  69.105  0.00  0.00    +0.170 C 
ENDBRANCH   1   6
BRANCH   1  12
ATOM     12  C   UNL     1     -11.329  15.637  64.549  0.00  0.00    +0.352 C 
ATOM     13  O   UNL     1     -12.292  16.047  63.925  0.00  0.00    -0.247 OA
BRANCH  12  14
ATOM     14  C   UNL     1     -11.822  14.514  65.630  0.00  0.00    +0.272 C 
ATOM     15  O   UNL     1     -13.011  14.156  64.734  0.00  0.00    -0.206 OA
BRANCH  14  16
ATOM     16  C   UNL     1     -10.900  13.328  64.974  0.00  0.00    +0.019 A 
ATOM     17  C   UNL     1     -10.318  12.507  65.950  0.00  0.00    -0.001 A 
ATOM     18  C   UNL     1      -9.976  11.224  65.638  0.00  0.00    -0.000 A 
ATOM     19  C   UNL     1     -10.249  10.749  64.364  0.00  0.00    -0.000 A 
ATOM     20  C   UNL     1     -10.944  11.521  63.468  0.00  0.00    -0.000 A 
ATOM     21  C   UNL     1     -11.474  12.691  63.929  0.00  0.00    -0.001 A 
ENDBRANCH  14  16
ENDBRANCH  12  14
ENDBRANCH   1  12
TORSDOF 4
ENDMDL
MODEL 2
REMARK VINA RESULT:      -6.6      3.779      6.537
REMARK  Name = 
REMARK  4 active torsions:
REMARK  status: ('A' for Active; 'I' for Inactive)
REMARK    1  A    between atoms: C_9  and  O_10
REMARK    2  A    between atoms: O_10  and  C_11
REMARK    3  A    between atoms: C_11  and  C_13
REMARK    4  A    between atoms: C_13  and  C_15
REMARK                            x       y       z     vdW  Elec       q    Type
REMARK                         _______ _______ _______ _____ _____    ______ ____
ROOT
ATOM      1  O   UNL     1     -10.566  15.049  67.625  0.00  0.00    -0.450 OA
ENDROOT
BRANCH   1   6
ATOM      2  C   UNL     1     -12.226  14.530  64.374  0.00  0.00    +0.170 C 
ATOM      3  N   UNL     1     -11.823  13.556  64.313  0.00  0.00    +0.298 N 
ATOM      4  C   UNL     1     -10.672  13.192  65.322  0.00  0.00    +0.062 C 
ATOM      5  C   UNL     1     -10.063  14.704  65.272  0.00  0.00    +0.099 C 
ATOM      6  C   UNL     1     -11.112  14.652  66.427  0.00  0.00    +0.180 C 
ATOM      7  C   UNL     1     -11.614  13.249  66.756  0.00  0.00    +0.099 C 
ATOM      8  C   UNL     1      -9.902  12.306  64.228  0.00  0.00    +0.061 C 
ATOM      9  C   UNL     1     -10.915  11.454  65.081  0.00  0.00    +0.061 C 
ATOM     10  C   UNL     1     -12.204  12.465  65.424  0.00  0.00    +0.062 C 
ATOM     11  C   UNL     1     -12.467  12.719  63.500  0.00  0.00    +0.170 C 
ENDBRANCH   1   6
BRANCH   1  12
ATOM     12  C   UNL     1     -11.306  15.705  68.566  0.00  0.00    +0.352 C 
ATOM     13  O   UNL     1     -11.750  16.837  68.485  0.00  0.00    -0.247 OA
BRANCH  12  14
ATOM     14  C   UNL     1     -10.865  15.404  70.111  0.00  0.00    +0.272 C 
ATOM     15  O   UNL     1     -11.263  16.827  70.514  0.00  0.00    -0.206 OA
BRANCH  14  16
ATOM     16  C   UNL     1     -12.339  14.816  70.525  0.00  0.00    +0.019 A 
ATOM     17  C   UNL     1     -12.297  13.451  70.839  0.00  0.00    -0.001 A 
ATOM     18  C   UNL     1     -13.236  12.919  71.672  0.00  0.00    -0.000 A 
ATOM     19  C   UNL     1     -14.195  13.757  72.223  0.00  0.00    -0.000 A 
ATOM     20  C   UNL     1     -14.135  15.111  72.015  0.00  0.00    -0.000 A 
ATOM     21  C   UNL     1     -13.029  15.601  71.384  0.00  0.00    -0.001 A 
ENDBRANCH  14  16
ENDBRANCH  12  14
ENDBRANCH   1  12
TORSDOF 4
ENDMDL
MODEL 3
REMARK VINA RESULT:      -6.5      3.406      5.363
REMARK  Name = 
REMARK  4 active torsions:
REMARK  status: ('A' for Active; 'I' for Inactive)
REMARK    1  A    between atoms: C_9  and  O_10
REMARK    2  A    between atoms: O_10  and  C_11
REMARK    3  A    between atoms: C_11  and  C_13
REMARK    4  A    between atoms: C_13  and  C_15
REMARK                            x       y       z     vdW  Elec       q    Type
REMARK                         _______ _______ _______ _____ _____    ______ ____
ROOT
ATOM      1  O   UNL     1     -11.192  15.900  68.047  0.00  0.00    -0.450 OA
ENDROOT
BRANCH   1   6
ATOM      2  C   UNL     1      -8.090  17.453  66.800  0.00  0.00    +0.170 C 
ATOM      3  N   UNL     1      -8.528  18.410  66.874  0.00  0.00    +0.298 N 
ATOM      4  C   UNL     1     -10.086  18.471  67.083  0.00  0.00    +0.062 C 
ATOM      5  C   UNL     1     -10.326  17.154  66.152  0.00  0.00    +0.099 C 
ATOM      6  C   UNL     1     -10.133  16.668  67.623  0.00  0.00    +0.180 C 
ATOM      7  C   UNL     1     -10.120  17.789  68.658  0.00  0.00    +0.099 C 
ATOM      8  C   UNL     1     -10.228  19.773  66.155  0.00  0.00    +0.061 C 
ATOM      9  C   UNL     1     -10.013  20.140  67.671  0.00  0.00    +0.061 C 
ATOM     10  C   UNL     1      -9.008  18.961  68.301  0.00  0.00    +0.062 C 
ATOM     11  C   UNL     1      -7.672  19.430  66.948  0.00  0.00    +0.170 C 
ENDBRANCH   1   6
BRANCH   1  12
ATOM     12  C   UNL     1     -11.012  14.818  68.860  0.00  0.00    +0.352 C 
ATOM     13  O   UNL     1     -10.129  13.982  68.777  0.00  0.00    -0.247 OA
BRANCH  12  14
ATOM     14  C   UNL     1     -12.394  14.100  69.355  0.00  0.00    +0.272 C 
ATOM     15  O   UNL     1     -11.593  13.144  70.244  0.00  0.00    -0.206 OA
BRANCH  14  16
ATOM     16  C   UNL     1     -12.618  15.151  70.593  0.00  0.00    +0.019 A 
ATOM     17  C   UNL     1     -13.928  15.116  71.090  0.00  0.00    -0.001 A 
ATOM     18  C   UNL     1     -14.173  15.487  72.379  0.00  0.00    -0.000 A 
ATOM     19  C   UNL     1     -13.106  15.857  73.184  0.00  0.00    -0.000 A 
ATOM     20  C   UNL     1     -11.819  15.752  72.723  0.00  0.00    -0.000 A 
ATOM     21  C   UNL     1     -11.632  15.137  71.519  0.00  0.00    -0.001 A 
ENDBRANCH  14  16
ENDBRANCH  12  14
ENDBRANCH   1  12
TORSDOF 4
ENDMDL
MODEL 4
REMARK VINA RESULT:      -6.5      1.005      1.564
REMARK  Name = 
REMARK  4 active torsions:
REMARK  status: ('A' for Active; 'I' for Inactive)
REMARK    1  A    between atoms: C_9  and  O_10
REMARK    2  A    between atoms: O_10  and  C_11
REMARK    3  A    between atoms: C_11  and  C_13
REMARK    4  A    between atoms: C_13  and  C_15
REMARK                            x       y       z     vdW  Elec       q    Type
REMARK                         _______ _______ _______ _____ _____    ______ ____
ROOT
ATOM      1  O   UNL     1     -10.174  15.630  65.111  0.00  0.00    -0.450 OA
ENDROOT
BRANCH   1   6
ATOM      2  C   UNL     1     -10.428  18.398  67.533  0.00  0.00    +0.170 C 
ATOM      3  N   UNL     1      -9.544  18.074  68.010  0.00  0.00    +0.298 N 
ATOM      4  C   UNL     1      -9.013  16.640  67.640  0.00  0.00    +0.062 C 
ATOM      5  C   UNL     1     -10.526  16.052  67.479  0.00  0.00    +0.099 C 
ATOM      6  C   UNL     1     -10.076  16.594  66.086  0.00  0.00    +0.180 C 
ATOM      7  C   UNL     1      -8.600  16.976  66.008  0.00  0.00    +0.099 C 
ATOM      8  C   UNL     1      -8.524  16.360  69.142  0.00  0.00    +0.061 C 
ATOM      9  C   UNL     1      -7.393  17.004  68.257  0.00  0.00    +0.061 C 
ATOM     10  C   UNL     1      -8.164  18.043  67.195  0.00  0.00    +0.062 C 
ATOM     11  C   UNL     1      -8.911  18.998  68.733  0.00  0.00    +0.170 C 
ENDBRANCH   1   6
BRANCH   1  12
ATOM     12  C   UNL     1     -11.313  15.467  64.377  0.00  0.00    +0.352 C 
ATOM     13  O   UNL     1     -11.989  16.347  63.874  0.00  0.00    -0.247 OA
BRANCH  12  14
ATOM     14  C   UNL     1     -12.289  14.261  64.894  0.00  0.00    +0.272 C 
ATOM     15  O   UNL     1     -12.746  14.000  63.456  0.00  0.00    -0.206 OA
BRANCH  14  16
ATOM     16  C   UNL     1     -11.113  13.123  64.784  0.00  0.00    +0.019 A 
ATOM     17  C   UNL     1     -11.026  12.337  65.940  0.00  0.00    -0.001 A 
ATOM     18  C   UNL     1     -10.519  11.073  65.862  0.00  0.00    -0.000 A 
ATOM     19  C   UNL     1     -10.135  10.580  64.624  0.00  0.00    -0.000 A 
ATOM     20  C   UNL     1     -10.357  11.313  63.486  0.00  0.00    -0.000 A 
ATOM     21  C   UNL     1     -11.095  12.454  63.609  0.00  0.00    -0.001 A 
ENDBRANCH  14  16
ENDBRANCH  12  14
ENDBRANCH   1  12
TORSDOF 4
ENDMDL
MODEL 5
REMARK VINA RESULT:      -6.4      3.881      6.384
REMARK  Name = 
REMARK  4 active torsions:
REMARK  status: ('A' for Active; 'I' for Inactive)
REMARK    1  A    between atoms: C_9  and  O_10
REMARK    2  A    between atoms: O_10  and  C_11
REMARK    3  A    between atoms: C_11  and  C_13
REMARK    4  A    between atoms: C_13  and  C_15
REMARK                            x       y       z     vdW  Elec       q    Type
REMARK                         _______ _______ _______ _____ _____    ______ ____
ROOT
ATOM      1  O   UNL     1     -11.523  13.909  68.814  0.00  0.00    -0.450 OA
ENDROOT
BRANCH   1   6
ATOM      2  C   UNL     1     -11.473  15.493  72.143  0.00  0.00    +0.170 C 
ATOM      3  N   UNL     1     -12.460  15.164  72.324  0.00  0.00    +0.298 N 
ATOM      4  C   UNL     1     -13.274  14.624  71.091  0.00  0.00    +0.062 C 
ATOM      5  C   UNL     1     -12.576  15.697  70.080  0.00  0.00    +0.099 C 
ATOM      6  C   UNL     1     -11.698  14.406  70.084  0.00  0.00    +0.180 C 
ATOM      7  C   UNL     1     -12.329  13.220  70.805  0.00  0.00    +0.099 C 
ATOM      8  C   UNL     1     -14.644  15.262  71.630  0.00  0.00    +0.061 C 
ATOM      9  C   UNL     1     -14.434  13.786  72.134  0.00  0.00    +0.061 C 
ATOM     10  C   UNL     1     -12.786  13.595  72.351  0.00  0.00    +0.062 C 
ATOM     11  C   UNL     1     -12.816  15.096  73.607  0.00  0.00    +0.170 C 
ENDBRANCH   1   6
BRANCH   1  12
ATOM     12  C   UNL     1     -11.445  14.731  67.727  0.00  0.00    +0.352 C 
ATOM     13  O   UNL     1     -12.059  14.619  66.681  0.00  0.00    -0.247 OA
BRANCH  12  14
ATOM     14  C   UNL     1      -9.947  15.311  67.418  0.00  0.00    +0.272 C 
ATOM     15  O   UNL     1     -10.193  15.175  65.912  0.00  0.00    -0.206 OA
BRANCH  14  16
ATOM     16  C   UNL     1     -10.442  16.874  67.412  0.00  0.00    +0.019 A 
ATOM     17  C   UNL     1     -10.005  17.573  68.546  0.00  0.00    -0.001 A 
ATOM     18  C   UNL     1      -9.853  18.927  68.490  0.00  0.00    -0.000 A 
ATOM     19  C   UNL     1     -10.099  19.579  67.291  0.00  0.00    -0.000 A 
ATOM     20  C   UNL     1     -10.389  18.863  66.158  0.00  0.00    -0.000 A 
ATOM     21  C   UNL     1     -10.277  17.505  66.228  0.00  0.00    -0.001 A 
ENDBRANCH  14  16
ENDBRANCH  12  14
ENDBRANCH   1  12
TORSDOF 4
ENDMDL
MODEL 6
REMARK VINA RESULT:      -6.2      1.475      2.230
REMARK  Name = 
REMARK  4 active torsions:
REMARK  status: ('A' for Active; 'I' for Inactive)
REMARK    1  A    between atoms: C_9  and  O_10
REMARK    2  A    between atoms: O_10  and  C_11
REMARK    3  A    between atoms: C_11  and  C_13
REMARK    4  A    between atoms: C_13  and  C_15
REMARK                            x       y       z     vdW  Elec       q    Type
REMARK                         _______ _______ _______ _____ _____    ______ ____
ROOT
ATOM      1  O   UNL     1     -11.985  14.559  66.311  0.00  0.00    -0.450 OA
ENDROOT
BRANCH   1   6
ATOM      2  C   UNL     1      -8.527  15.106  67.469  0.00  0.00    +0.170 C 
ATOM      3  N   UNL     1      -8.750  16.115  67.686  0.00  0.00    +0.298 N 
ATOM      4  C   UNL     1     -10.094  16.693  67.108  0.00  0.00    +0.062 C 
ATOM      5  C   UNL     1      -9.970  15.798  65.750  0.00  0.00    +0.099 C 
ATOM      6  C   UNL     1     -10.764  14.960  66.801  0.00  0.00    +0.180 C 
ATOM      7  C   UNL     1     -11.164  15.737  68.052  0.00  0.00    +0.099 C 
ATOM      8  C   UNL     1      -9.434  18.128  66.825  0.00  0.00    +0.061 C 
ATOM      9  C   UNL     1     -10.088  18.043  68.254  0.00  0.00    +0.061 C 
ATOM     10  C   UNL     1      -9.869  16.469  68.777  0.00  0.00    +0.062 C 
ATOM     11  C   UNL     1      -7.937  16.706  68.561  0.00  0.00    +0.170 C 
ENDBRANCH   1   6
BRANCH   1  12
ATOM     12  C   UNL     1     -12.136  14.142  65.020  0.00  0.00    +0.352 C 
ATOM     13  O   UNL     1     -12.559  14.799  64.086  0.00  0.00    -0.247 OA
BRANCH  12  14
ATOM     14  C   UNL     1     -12.626  12.591  64.858  0.00  0.00    +0.272 C 
ATOM     15  O   UNL     1     -12.783  12.786  63.347  0.00  0.00    -0.206 OA
BRANCH  14  16
ATOM     16  C   UNL     1     -11.100  12.019  64.681  0.00  0.00    +0.019 A 
ATOM     17  C   UNL     1     -10.696  11.236  65.771  0.00  0.00    -0.001 A 
ATOM     18  C   UNL     1      -9.735  10.284  65.601  0.00  0.00    -0.000 A 
ATOM     19  C   UNL     1      -9.204  10.086  64.335  0.00  0.00    -0.000 A 
ATOM     20  C   UNL     1      -9.711  10.764  63.256  0.00  0.00    -0.000 A 
ATOM     21  C   UNL     1     -10.836  11.510  63.456  0.00  0.00    -0.001 A 
ENDBRANCH  14  16
ENDBRANCH  12  14
ENDBRANCH   1  12
TORSDOF 4
ENDMDL
MODEL 7
REMARK VINA RESULT:      -6.1      1.807      2.675
REMARK  Name = 
REMARK  4 active torsions:
REMARK  status: ('A' for Active; 'I' for Inactive)
REMARK    1  A    between atoms: C_9  and  O_10
REMARK    2  A    between atoms: O_10  and  C_11
REMARK    3  A    between atoms: C_11  and  C_13
REMARK    4  A    between atoms: C_13  and  C_15
REMARK                            x       y       z     vdW  Elec       q    Type
REMARK                         _______ _______ _______ _____ _____    ______ ____
ROOT
ATOM      1  O   UNL     1     -11.416  15.768  67.807  0.00  0.00    -0.450 OA
ENDROOT
BRANCH   1   6
ATOM      2  C   UNL     1      -8.317  17.246  66.464  0.00  0.00    +0.170 C 
ATOM      3  N   UNL     1      -8.702  18.217  66.619  0.00  0.00    +0.298 N 
ATOM      4  C   UNL     1     -10.240  18.338  66.925  0.00  0.00    +0.062 C 
ATOM      5  C   UNL     1     -10.599  17.090  65.937  0.00  0.00    +0.099 C 
ATOM      6  C   UNL     1     -10.346  16.510  67.364  0.00  0.00    +0.180 C 
ATOM      7  C   UNL     1     -10.217  17.566  68.458  0.00  0.00    +0.099 C 
ATOM      8  C   UNL     1     -10.371  19.697  66.082  0.00  0.00    +0.061 C 
ATOM      9  C   UNL     1     -10.050  19.964  67.600  0.00  0.00    +0.061 C 
ATOM     10  C   UNL     1      -9.070  18.703  68.101  0.00  0.00    +0.062 C 
ATOM     11  C   UNL     1      -7.793  19.189  66.698  0.00  0.00    +0.170 C 
ENDBRANCH   1   6
BRANCH   1  12
ATOM     12  C   UNL     1     -11.446  14.409  67.681  0.00  0.00    +0.352 C 
ATOM     13  O   UNL     1     -11.953  13.615  68.454  0.00  0.00    -0.247 OA
BRANCH  12  14
ATOM     14  C   UNL     1     -10.092  13.754  67.041  0.00  0.00    +0.272 C 
ATOM     15  O   UNL     1     -10.102  12.658  68.111  0.00  0.00    -0.206 OA
BRANCH  14  16
ATOM     16  C   UNL     1     -10.921  12.810  65.988  0.00  0.00    +0.019 A 
ATOM     17  C   UNL     1     -11.636  13.565  65.048  0.00  0.00    -0.001 A 
ATOM     18  C   UNL     1     -11.940  13.022  63.835  0.00  0.00    -0.000 A 
ATOM     19  C   UNL     1     -11.496  11.741  63.544  0.00  0.00    -0.000 A 
ATOM     20  C   UNL     1     -10.680  11.072  64.421  0.00  0.00    -0.000 A 
ATOM     21  C   UNL     1     -10.212  11.769  65.496  0.00  0.00    -0.001 A 
ENDBRANCH  14  16
ENDBRANCH  12  14
ENDBRANCH   1  12
TORSDOF 4
ENDMDL
MODEL 8
REMARK VINA RESULT:      -6.0      2.178      6.314
REMARK  Name = 
REMARK  4 active torsions:
REMARK  status: ('A' for Active; 'I' for Inactive)
REMARK    1  A    between atoms: C_9  and  O_10
REMARK    2  A    between atoms: O_10  and  C_11
REMARK    3  A    between atoms: C_11  and  C_13
REMARK    4  A    between atoms: C_13  and  C_15
REMARK                            x       y       z     vdW  Elec       q    Type
REMARK                         _______ _______ _______ _____ _____    ______ ____
ROOT
ATOM      1  O   UNL     1     -10.508  17.640  65.753  0.00  0.00    -0.450 OA
ENDROOT
BRANCH   1   6
ATOM      2  C   UNL     1      -8.996  14.358  66.488  0.00  0.00    +0.170 C 
ATOM      3  N   UNL     1      -9.943  13.896  66.418  0.00  0.00    +0.298 N 
ATOM      4  C   UNL     1     -11.203  14.839  66.413  0.00  0.00    +0.062 C 
ATOM      5  C   UNL     1     -10.498  15.891  67.442  0.00  0.00    +0.099 C 
ATOM      6  C   UNL     1     -10.142  16.336  65.988  0.00  0.00    +0.180 C 
ATOM      7  C   UNL     1     -10.906  15.590  64.898  0.00  0.00    +0.099 C 
ATOM      8  C   UNL     1     -12.068  13.799  67.276  0.00  0.00    +0.061 C 
ATOM      9  C   UNL     1     -12.234  13.574  65.727  0.00  0.00    +0.061 C 
ATOM     10  C   UNL     1     -10.756  13.948  65.038  0.00  0.00    +0.062 C 
ATOM     11  C   UNL     1      -9.925  12.586  66.173  0.00  0.00    +0.170 C 
ENDBRANCH   1   6
BRANCH   1  12
ATOM     12  C   UNL     1     -10.274  18.625  66.668  0.00  0.00    +0.352 C 
ATOM     13  O   UNL     1     -11.111  19.265  67.281  0.00  0.00    -0.247 OA
BRANCH  12  14
ATOM     14  C   UNL     1      -9.000  19.589  66.322  0.00  0.00    +0.272 C 
ATOM     15  O   UNL     1      -9.466  20.602  67.372  0.00  0.00    -0.206 OA
BRANCH  14  16
ATOM     16  C   UNL     1      -8.013  18.844  67.399  0.00  0.00    +0.019 A 
ATOM     17  C   UNL     1      -7.000  18.108  66.770  0.00  0.00    -0.001 A 
ATOM     18  C   UNL     1      -5.829  17.869  67.428  0.00  0.00    -0.000 A 
ATOM     19  C   UNL     1      -5.655  18.396  68.699  0.00  0.00    -0.000 A 
ATOM     20  C   UNL     1      -6.600  19.229  69.241  0.00  0.00    -0.000 A 
ATOM     21  C   UNL     1      -7.624  19.628  68.430  0.00  0.00    -0.001 A 
ENDBRANCH  14  16
ENDBRANCH  12  14
ENDBRANCH   1  12
TORSDOF 4
ENDMDL
MODEL 9
REMARK VINA RESULT:      -5.9      2.405      6.783
REMARK  Name = 
REMARK  4 active torsions:
REMARK  status: ('A' for Active; 'I' for Inactive)
REMARK    1  A    between atoms: C_9  and  O_10
REMARK    2  A    between atoms: O_10  and  C_11
REMARK    3  A    between atoms: C_11  and  C_13
REMARK    4  A    between atoms: C_13  and  C_15
REMARK                            x       y       z     vdW  Elec       q    Type
REMARK                         _______ _______ _______ _____ _____    ______ ____
ROOT
ATOM      1  O   UNL     1     -10.003  16.710  67.789  0.00  0.00    -0.450 OA
ENDROOT
BRANCH   1   6
ATOM      2  C   UNL     1     -11.436  14.910  64.908  0.00  0.00    +0.170 C 
ATOM      3  N   UNL     1     -11.398  14.002  65.444  0.00  0.00    +0.298 N 
ATOM      4  C   UNL     1     -10.546  13.985  66.767  0.00  0.00    +0.062 C 
ATOM      5  C   UNL     1      -9.442  15.011  66.143  0.00  0.00    +0.099 C 
ATOM      6  C   UNL     1     -10.542  15.866  66.846  0.00  0.00    +0.180 C 
ATOM      7  C   UNL     1     -11.534  15.055  67.675  0.00  0.00    +0.099 C 
ATOM      8  C   UNL     1     -10.041  12.485  66.502  0.00  0.00    +0.061 C 
ATOM      9  C   UNL     1     -11.361  12.528  67.358  0.00  0.00    +0.061 C 
ATOM     10  C   UNL     1     -12.238  13.840  66.800  0.00  0.00    +0.062 C 
ATOM     11  C   UNL     1     -12.219  13.045  65.011  0.00  0.00    +0.170 C 
ENDBRANCH   1   6
BRANCH   1  12
ATOM     12  C   UNL     1      -9.974  18.062  67.607  0.00  0.00    +0.352 C 
ATOM     13  O   UNL     1     -10.924  18.825  67.645  0.00  0.00    -0.247 OA
BRANCH  12  14
ATOM     14  C   UNL     1      -8.912  18.574  66.474  0.00  0.00    +0.272 C 
ATOM     15  O   UNL     1      -9.872  19.695  66.065  0.00  0.00    -0.206 OA
BRANCH  14  16
ATOM     16  C   UNL     1      -8.117  19.559  67.515  0.00  0.00    +0.019 A 
ATOM     17  C   UNL     1      -7.628  18.868  68.631  0.00  0.00    -0.001 A 
ATOM     18  C   UNL     1      -6.548  19.353  69.308  0.00  0.00    -0.000 A 
ATOM     19  C   UNL     1      -5.932  20.508  68.848  0.00  0.00    -0.000 A 
ATOM     20  C   UNL     1      -6.340  21.092  67.676  0.00  0.00    -0.000 A 
ATOM     21  C   UNL     1      -7.254  20.414  66.922  0.00  0.00    -0.001 A 
ENDBRANCH  14  16
ENDBRANCH  12  14
ENDBRANCH   1  12
TORSDOF 4
ENDMDL
