MODEL 1
REMARK VINA RESULT:      -3.5      0.000      0.000
REMARK  Name = 
REMARK  1 active torsions:
REMARK  status: ('A' for Active; 'I' for Inactive)
REMARK    1  A    between atoms: CA_2  and  C_4
REMARK                            x       y       z     vdW  Elec       q    Type
REMARK                         _______ _______ _______ _____ _____    ______ ____
ROOT
ATOM      1  CB  ALA A   1     -10.485  13.572  64.646  0.00  0.00    +0.033 C 
ATOM      2  CA  ALA A   1     -11.682  14.514  65.345  0.00  0.00    +0.194 C 
ATOM      3  N   ALA A   1     -12.575  14.448  64.012  0.00  0.00    -0.121 NA
ENDROOT
BRANCH   2   4
ATOM      4  C   ALA A   1     -10.968  15.914  64.873  0.00  0.00    +0.382 C 
ATOM      5  OXT ALA A   1     -11.589  16.635  63.918  0.00  0.00    -0.244 OA
ATOM      6  O   ALA A   1      -9.859  16.081  65.399  0.00  0.00    -0.244 OA
ENDBRANCH   2   4
TORSDOF 1
ENDMDL
MODEL 2
REMARK VINA RESULT:      -3.5      8.250      8.584
REMARK  Name = 
REMARK  1 active torsions:
REMARK  status: ('A' for Active; 'I' for Inactive)
REMARK    1  A    between atoms: CA_2  and  C_4
REMARK                            x       y       z     vdW  Elec       q    Type
REMARK                         _______ _______ _______ _____ _____    ______ ____
ROOT
ATOM      1  CB  ALA A   1     -11.938  16.001  72.087  0.00  0.00    +0.033 C 
ATOM      2  CA  ALA A   1     -13.148  15.971  73.247  0.00  0.00    +0.194 C 
ATOM      3  N   ALA A   1     -12.441  14.753  74.018  0.00  0.00    -0.121 NA
ENDROOT
BRANCH   2   4
ATOM      4  C   ALA A   1     -14.081  14.952  72.361  0.00  0.00    +0.382 C 
ATOM      5  OXT ALA A   1     -14.964  15.506  71.507  0.00  0.00    -0.244 OA
ATOM      6  O   ALA A   1     -13.919  13.765  72.678  0.00  0.00    -0.244 OA
ENDBRANCH   2   4
TORSDOF 1
ENDMDL
MODEL 3
REMARK VINA RESULT:      -3.4      7.938      8.414
REMARK  Name = 
REMARK  1 active torsions:
REMARK  status: ('A' for Active; 'I' for Inactive)
REMARK    1  A    between atoms: CA_2  and  C_4
REMARK                            x       y       z     vdW  Elec       q    Type
REMARK                         _______ _______ _______ _____ _____    ______ ____
ROOT
ATOM      1  CB  ALA A   1     -13.506  13.862  72.549  0.00  0.00    +0.033 C 
ATOM      2  CA  ALA A   1     -14.014  15.459  72.508  0.00  0.00    +0.194 C 
ATOM      3  N   ALA A   1     -13.357  15.678  71.059  0.00  0.00    -0.121 NA
ENDROOT
BRANCH   2   4
ATOM      4  C   ALA A   1     -12.662  15.990  73.271  0.00  0.00    +0.382 C 
ATOM      5  OXT ALA A   1     -12.668  15.983  74.619  0.00  0.00    -0.244 OA
ATOM      6  O   ALA A   1     -11.819  16.442  72.484  0.00  0.00    -0.244 OA
ENDBRANCH   2   4
TORSDOF 1
ENDMDL
MODEL 4
REMARK VINA RESULT:      -3.4      7.504      7.910
REMARK  Name = 
REMARK  1 active torsions:
REMARK  status: ('A' for Active; 'I' for Inactive)
REMARK    1  A    between atoms: CA_2  and  C_4
REMARK                            x       y       z     vdW  Elec       q    Type
REMARK                         _______ _______ _______ _____ _____    ______ ____
ROOT
ATOM      1  CB  ALA A   1     -12.134  16.097  72.799  0.00  0.00    +0.033 C 
ATOM      2  CA  ALA A   1     -12.357  14.868  71.682  0.00  0.00    +0.194 C 
ATOM      3  N   ALA A   1     -12.724  15.922  70.528  0.00  0.00    -0.121 NA
ENDROOT
BRANCH   2   4
ATOM      4  C   ALA A   1     -13.933  14.672  72.093  0.00  0.00    +0.382 C 
ATOM      5  OXT ALA A   1     -14.743  15.743  71.969  0.00  0.00    -0.244 OA
ATOM      6  O   ALA A   1     -14.161  13.555  72.578  0.00  0.00    -0.244 OA
ENDBRANCH   2   4
TORSDOF 1
ENDMDL
MODEL 5
REMARK VINA RESULT:      -3.4      8.219      8.623
REMARK  Name = 
REMARK  1 active torsions:
REMARK  status: ('A' for Active; 'I' for Inactive)
REMARK    1  A    between atoms: CA_2  and  C_4
REMARK                            x       y       z     vdW  Elec       q    Type
REMARK                         _______ _______ _______ _____ _____    ______ ____
ROOT
ATOM      1  CB  ALA A   1     -14.930  15.080  71.474  0.00  0.00    +0.033 C 
ATOM      2  CA  ALA A   1     -13.357  14.571  71.753  0.00  0.00    +0.194 C 
ATOM      3  N   ALA A   1     -13.870  13.283  72.564  0.00  0.00    -0.121 NA
ENDROOT
BRANCH   2   4
ATOM      4  C   ALA A   1     -13.228  15.462  73.125  0.00  0.00    +0.382 C 
ATOM      5  OXT ALA A   1     -12.328  15.057  74.043  0.00  0.00    -0.244 OA
ATOM      6  O   ALA A   1     -14.076  16.363  73.186  0.00  0.00    -0.244 OA
ENDBRANCH   2   4
TORSDOF 1
ENDMDL
MODEL 6
REMARK VINA RESULT:      -3.3      2.762      3.300
REMARK  Name = 
REMARK  1 active torsions:
REMARK  status: ('A' for Active; 'I' for Inactive)
REMARK    1  A    between atoms: CA_2  and  C_4
REMARK                            x       y       z     vdW  Elec       q    Type
REMARK                         _______ _______ _______ _____ _____    ______ ____
ROOT
ATOM      1  CB  ALA A   1     -10.591  12.493  63.872  0.00  0.00    +0.033 C 
ATOM      2  CA  ALA A   1     -12.242  12.208  63.817  0.00  0.00    +0.194 C 
ATOM      3  N   ALA A   1     -12.509  13.625  63.110  0.00  0.00    -0.121 NA
ENDROOT
BRANCH   2   4
ATOM      4  C   ALA A   1     -12.481  12.837  65.313  0.00  0.00    +0.382 C 
ATOM      5  OXT ALA A   1     -12.088  12.094  66.368  0.00  0.00    -0.244 OA
ATOM      6  O   ALA A   1     -13.106  13.906  65.284  0.00  0.00    -0.244 OA
ENDBRANCH   2   4
TORSDOF 1
ENDMDL
MODEL 7
REMARK VINA RESULT:      -3.3      7.795      8.281
REMARK  Name = 
REMARK  1 active torsions:
REMARK  status: ('A' for Active; 'I' for Inactive)
REMARK    1  A    between atoms: CA_2  and  C_4
REMARK                            x       y       z     vdW  Elec       q    Type
REMARK                         _______ _______ _______ _____ _____    ______ ____
ROOT
ATOM      1  CB  ALA A   1     -12.495  15.234  73.770  0.00  0.00    +0.033 C 
ATOM      2  CA  ALA A   1     -12.763  15.434  72.127  0.00  0.00    +0.194 C 
ATOM      3  N   ALA A   1     -14.290  15.861  72.382  0.00  0.00    -0.121 NA
ENDROOT
BRANCH   2   4
ATOM      4  C   ALA A   1     -13.171  13.858  71.921  0.00  0.00    +0.382 C 
ATOM      5  OXT ALA A   1     -12.492  13.160  70.989  0.00  0.00    -0.244 OA
ATOM      6  O   ALA A   1     -14.154  13.530  72.600  0.00  0.00    -0.244 OA
ENDBRANCH   2   4
TORSDOF 1
ENDMDL
MODEL 8
REMARK VINA RESULT:      -3.3      7.443      7.839
REMARK  Name = 
REMARK  1 active torsions:
REMARK  status: ('A' for Active; 'I' for Inactive)
REMARK    1  A    between atoms: CA_2  and  C_4
REMARK                            x       y       z     vdW  Elec       q    Type
REMARK                         _______ _______ _______ _____ _____    ______ ____
ROOT
ATOM      1  CB  ALA A   1     -12.629  15.743  73.956  0.00  0.00    +0.033 C 
ATOM      2  CA  ALA A   1     -13.662  15.657  72.639  0.00  0.00    +0.194 C 
ATOM      3  N   ALA A   1     -13.714  14.054  72.728  0.00  0.00    -0.121 NA
ENDROOT
BRANCH   2   4
ATOM      4  C   ALA A   1     -12.420  15.620  71.567  0.00  0.00    +0.382 C 
ATOM      5  OXT ALA A   1     -12.693  15.956  70.291  0.00  0.00    -0.244 OA
ATOM      6  O   ALA A   1     -11.377  15.173  72.065  0.00  0.00    -0.244 OA
ENDBRANCH   2   4
TORSDOF 1
ENDMDL
MODEL 9
REMARK VINA RESULT:      -3.2     10.359     10.924
REMARK  Name = 
REMARK  1 active torsions:
REMARK  status: ('A' for Active; 'I' for Inactive)
REMARK    1  A    between atoms: CA_2  and  C_4
REMARK                            x       y       z     vdW  Elec       q    Type
REMARK                         _______ _______ _______ _____ _____    ______ ____
ROOT
ATOM      1  CB  ALA A   1      -5.746  20.360  70.231  0.00  0.00    +0.033 C 
ATOM      2  CA  ALA A   1      -4.352  19.559  70.706  0.00  0.00    +0.194 C 
ATOM      3  N   ALA A   1      -5.155  18.730  71.823  0.00  0.00    -0.121 NA
ENDROOT
BRANCH   2   4
ATOM      4  C   ALA A   1      -3.948  20.733  71.779  0.00  0.00    +0.382 C 
ATOM      5  OXT ALA A   1      -4.382  21.983  71.521  0.00  0.00    -0.244 OA
ATOM      6  O   ALA A   1      -3.183  20.325  72.663  0.00  0.00    -0.244 OA
ENDBRANCH   2   4
TORSDOF 1
ENDMDL
