MODEL 1
REMARK VINA RESULT:      -7.3      0.000      0.000
REMARK  Name = 
REMARK  12 active torsions:
REMARK  status: ('A' for Active; 'I' for Inactive)
REMARK    1  A    between atoms: C_2  and  O_4
REMARK    2  A    between atoms: O_4  and  C_5
REMARK    3  A    between atoms: C_5  and  C_7
REMARK    4  A    between atoms: C_7  and  N_9
REMARK    5  A    between atoms: N_9  and  P_10
REMARK    6  A    between atoms: P_10  and  C_12
REMARK    7  A    between atoms: P_10  and  O_27
REMARK    8  A    between atoms: C_12  and  O_13
REMARK    9  A    between atoms: O_13  and  C_14
REMARK   10  A    between atoms: C_14  and  C_16
REMARK   11  A    between atoms: C_16  and  N_17
REMARK   12  A    between atoms: O_27  and  C_28
REMARK                            x       y       z     vdW  Elec       q    Type
REMARK                         _______ _______ _______ _____ _____    ______ ____
ROOT
ATOM      1  P   UNL     1     -11.296  12.443  68.328  0.00  0.00    +0.375 P 
ATOM      2  O   UNL     1      -9.792  12.689  68.364  0.00  0.00    -0.254 OA
ENDROOT
BRANCH   1   3
ATOM      3  C   UNL     1     -11.729  12.519  66.556  0.00  0.00    +0.259 C 
BRANCH   3   4
ATOM      4  O   UNL     1     -12.401  13.739  66.354  0.00  0.00    -0.343 OA
BRANCH   4   5
ATOM      5  C   UNL     1     -12.271  13.959  64.828  0.00  0.00    +0.139 C 
ATOM      6  C   UNL     1     -12.070  12.310  64.566  0.00  0.00    +0.034 C 
BRANCH   5   7
ATOM      7  C   UNL     1     -10.608  14.172  64.958  0.00  0.00    +0.138 C 
BRANCH   7   8
ATOM      8  N   UNL     1     -10.528  15.561  65.356  0.00  0.00    -0.292 N 
ATOM      9  C   UNL     1      -9.600  16.119  66.171  0.00  0.00    +0.167 A 
ATOM     10  N   UNL     1      -8.678  15.615  67.005  0.00  0.00    -0.205 NA
ATOM     11  C   UNL     1      -8.157  16.406  67.975  0.00  0.00    +0.202 A 
ATOM     12  N   UNL     1      -8.525  17.694  68.100  0.00  0.00    -0.204 NA
ATOM     13  C   UNL     1      -9.418  18.253  67.249  0.00  0.00    +0.192 A 
ATOM     14  N   UNL     1      -9.824  19.605  67.363  0.00  0.00    -0.105 NA
ATOM     15  C   UNL     1      -9.995  17.447  66.274  0.00  0.00    +0.152 A 
ATOM     16  N   UNL     1     -10.859  17.681  65.275  0.00  0.00    -0.219 NA
ATOM     17  C   UNL     1     -11.051  16.551  64.593  0.00  0.00    +0.180 A 
ENDBRANCH   7   8
ENDBRANCH   5   7
ENDBRANCH   4   5
ENDBRANCH   3   4
ENDBRANCH   1   3
BRANCH   1  18
ATOM     18  N   UNL     1     -12.186  13.719  69.103  0.00  0.00    -0.124 NA
BRANCH  18  19
ATOM     19  C   UNL     1     -11.080  14.668  69.773  0.00  0.00    +0.181 C 
ATOM     20  C   UNL     1     -11.817  16.040  69.157  0.00  0.00    +0.031 C 
BRANCH  19  21
ATOM     21  C   UNL     1     -11.953  14.778  71.160  0.00  0.00    +0.333 C 
ATOM     22  O   UNL     1     -11.288  15.306  72.086  0.00  0.00    -0.249 OA
BRANCH  21  23
ATOM     23  O   UNL     1     -13.205  15.350  70.898  0.00  0.00    -0.451 OA
BRANCH  23  25
ATOM     24  C   UNL     1     -14.887  15.101  71.517  0.00  0.00    +0.047 C 
ATOM     25  C   UNL     1     -14.304  15.004  71.733  0.00  0.00    +0.169 C 
ATOM     26  C   UNL     1     -13.990  13.637  72.325  0.00  0.00    +0.047 C 
ENDBRANCH  23  25
ENDBRANCH  21  23
ENDBRANCH  19  21
ENDBRANCH  18  19
ENDBRANCH   1  18
BRANCH   1  27
ATOM     27  O   UNL     1     -11.517  10.924  69.001  0.00  0.00    -0.428 OA
BRANCH  27  28
ATOM     28  C   UNL     1     -11.503  10.544  70.314  0.00  0.00    +0.146 A 
ATOM     29  C   UNL     1     -10.640   9.563  70.786  0.00  0.00    +0.037 A 
ATOM     30  C   UNL     1     -11.003   8.670  71.777  0.00  0.00    +0.003 A 
ATOM     31  C   UNL     1     -12.303   8.605  72.200  0.00  0.00    +0.000 A 
ATOM     32  C   UNL     1     -13.142   9.635  71.869  0.00  0.00    +0.003 A 
ATOM     33  C   UNL     1     -12.728  10.585  70.973  0.00  0.00    +0.037 A 
ENDBRANCH  27  28
ENDBRANCH   1  27
TORSDOF 12
ENDMDL
MODEL 2
REMARK VINA RESULT:      -7.1      2.931      6.023
REMARK  Name = 
REMARK  12 active torsions:
REMARK  status: ('A' for Active; 'I' for Inactive)
REMARK    1  A    between atoms: C_2  and  O_4
REMARK    2  A    between atoms: O_4  and  C_5
REMARK    3  A    between atoms: C_5  and  C_7
REMARK    4  A    between atoms: C_7  and  N_9
REMARK    5  A    between atoms: N_9  and  P_10
REMARK    6  A    between atoms: P_10  and  C_12
REMARK    7  A    between atoms: P_10  and  O_27
REMARK    8  A    between atoms: C_12  and  O_13
REMARK    9  A    between atoms: O_13  and  C_14
REMARK   10  A    between atoms: C_14  and  C_16
REMARK   11  A    between atoms: C_16  and  N_17
REMARK   12  A    between atoms: O_27  and  C_28
REMARK                            x       y       z     vdW  Elec       q    Type
REMARK                         _______ _______ _______ _____ _____    ______ ____
ROOT
ATOM      1  P   UNL     1     -10.738  15.647  68.511  0.00  0.00    +0.375 P 
ATOM      2  O   UNL     1     -11.921  16.571  68.245  0.00  0.00    -0.254 OA
ENDROOT
BRANCH   1   3
ATOM      3  C   UNL     1      -9.270  16.668  68.146  0.00  0.00    +0.259 C 
BRANCH   3   4
ATOM      4  O   UNL     1      -9.706  17.734  67.337  0.00  0.00    -0.343 OA
BRANCH   4   5
ATOM      5  C   UNL     1      -9.296  18.982  68.154  0.00  0.00    +0.139 C 
ATOM      6  C   UNL     1      -9.999  20.006  67.022  0.00  0.00    +0.034 C 
BRANCH   5   7
ATOM      7  C   UNL     1      -7.817  19.067  67.359  0.00  0.00    +0.138 C 
BRANCH   7   8
ATOM      8  N   UNL     1      -6.944  19.513  68.424  0.00  0.00    -0.292 N 
ATOM      9  C   UNL     1      -6.170  18.735  69.217  0.00  0.00    +0.167 A 
ATOM     10  N   UNL     1      -6.117  17.415  69.452  0.00  0.00    -0.205 NA
ATOM     11  C   UNL     1      -5.510  16.964  70.576  0.00  0.00    +0.202 A 
ATOM     12  N   UNL     1      -4.932  17.810  71.447  0.00  0.00    -0.204 NA
ATOM     13  C   UNL     1      -4.922  19.146  71.223  0.00  0.00    +0.192 A 
ATOM     14  N   UNL     1      -4.325  20.058  72.128  0.00  0.00    -0.105 NA
ATOM     15  C   UNL     1      -5.578  19.632  70.097  0.00  0.00    +0.152 A 
ATOM     16  N   UNL     1      -5.724  20.857  69.571  0.00  0.00    -0.219 NA
ATOM     17  C   UNL     1      -6.418  20.762  68.436  0.00  0.00    +0.180 A 
ENDBRANCH   7   8
ENDBRANCH   5   7
ENDBRANCH   4   5
ENDBRANCH   3   4
ENDBRANCH   1   3
BRANCH   1  18
ATOM     18  N   UNL     1     -10.691  14.310  67.401  0.00  0.00    -0.124 NA
BRANCH  18  19
ATOM     19  C   UNL     1     -11.939  14.525  66.417  0.00  0.00    +0.181 C 
ATOM     20  C   UNL     1     -10.925  14.909  65.140  0.00  0.00    +0.031 C 
BRANCH  19  21
ATOM     21  C   UNL     1     -11.931  12.938  65.991  0.00  0.00    +0.333 C 
ATOM     22  O   UNL     1     -12.042  12.189  66.995  0.00  0.00    -0.249 OA
BRANCH  21  23
ATOM     23  O   UNL     1     -12.841  12.712  64.951  0.00  0.00    -0.451 OA
BRANCH  23  25
ATOM     24  C   UNL     1     -12.594  12.061  63.281  0.00  0.00    +0.047 C 
ATOM     25  C   UNL     1     -12.446  11.880  63.866  0.00  0.00    +0.169 C 
ATOM     26  C   UNL     1     -11.006  11.465  64.133  0.00  0.00    +0.047 C 
ENDBRANCH  23  25
ENDBRANCH  21  23
ENDBRANCH  19  21
ENDBRANCH  18  19
ENDBRANCH   1  18
BRANCH   1  27
ATOM     27  O   UNL     1     -10.862  15.214  70.125  0.00  0.00    -0.428 OA
BRANCH  27  28
ATOM     28  C   UNL     1     -11.899  15.397  70.997  0.00  0.00    +0.146 A 
ATOM     29  C   UNL     1     -11.817  16.291  72.058  0.00  0.00    +0.037 A 
ATOM     30  C   UNL     1     -12.408  16.042  73.284  0.00  0.00    +0.003 A 
ATOM     31  C   UNL     1     -12.942  14.810  73.552  0.00  0.00    +0.000 A 
ATOM     32  C   UNL     1     -13.168  13.962  72.501  0.00  0.00    +0.003 A 
ATOM     33  C   UNL     1     -12.678  14.275  71.260  0.00  0.00    +0.037 A 
ENDBRANCH  27  28
ENDBRANCH   1  27
TORSDOF 12
ENDMDL
MODEL 3
REMARK VINA RESULT:      -7.0      3.077      6.569
REMARK  Name = 
REMARK  12 active torsions:
REMARK  status: ('A' for Active; 'I' for Inactive)
REMARK    1  A    between atoms: C_2  and  O_4
REMARK    2  A    between atoms: O_4  and  C_5
REMARK    3  A    between atoms: C_5  and  C_7
REMARK    4  A    between atoms: C_7  and  N_9
REMARK    5  A    between atoms: N_9  and  P_10
REMARK    6  A    between atoms: P_10  and  C_12
REMARK    7  A    between atoms: P_10  and  O_27
REMARK    8  A    between atoms: C_12  and  O_13
REMARK    9  A    between atoms: O_13  and  C_14
REMARK   10  A    between atoms: C_14  and  C_16
REMARK   11  A    between atoms: C_16  and  N_17
REMARK   12  A    between atoms: O_27  and  C_28
REMARK                            x       y       z     vdW  Elec       q    Type
REMARK                         _______ _______ _______ _____ _____    ______ ____
ROOT
ATOM      1  P   UNL     1     -10.733  16.514  68.454  0.00  0.00    +0.375 P 
ATOM      2  O   UNL     1      -9.452  15.931  69.041  0.00  0.00    -0.254 OA
ENDROOT
BRANCH   1   3
ATOM      3  C   UNL     1     -11.035  15.526  66.950  0.00  0.00    +0.259 C 
BRANCH   3   4
ATOM      4  O   UNL     1     -10.848  14.177  67.305  0.00  0.00    -0.343 OA
BRANCH   4   5
ATOM      5  C   UNL     1     -10.154  13.581  66.057  0.00  0.00    +0.139 C 
ATOM      6  C   UNL     1     -10.909  14.699  65.052  0.00  0.00    +0.034 C 
BRANCH   5   7
ATOM      7  C   UNL     1     -11.408  12.485  65.831  0.00  0.00    +0.138 C 
BRANCH   7   8
ATOM      8  N   UNL     1     -10.873  11.303  66.472  0.00  0.00    -0.292 N 
ATOM      9  C   UNL     1     -11.299  10.746  67.632  0.00  0.00    +0.167 A 
ATOM     10  N   UNL     1     -12.102  11.166  68.620  0.00  0.00    -0.205 NA
ATOM     11  C   UNL     1     -12.040  10.561  69.831  0.00  0.00    +0.202 A 
ATOM     12  N   UNL     1     -11.208   9.527  70.053  0.00  0.00    -0.204 NA
ATOM     13  C   UNL     1     -10.415   9.042  69.068  0.00  0.00    +0.192 A 
ATOM     14  N   UNL     1      -9.528   7.958  69.280  0.00  0.00    -0.105 NA
ATOM     15  C   UNL     1     -10.434   9.677  67.832  0.00  0.00    +0.152 A 
ATOM     16  N   UNL     1      -9.822   9.440  66.662  0.00  0.00    -0.219 NA
ATOM     17  C   UNL     1     -10.232  10.339  65.767  0.00  0.00    +0.180 A 
ENDBRANCH   7   8
ENDBRANCH   5   7
ENDBRANCH   4   5
ENDBRANCH   3   4
ENDBRANCH   1   3
BRANCH   1  18
ATOM     18  N   UNL     1     -10.521  18.156  67.925  0.00  0.00    -0.124 NA
BRANCH  18  19
ATOM     19  C   UNL     1     -10.239  18.067  66.348  0.00  0.00    +0.181 C 
ATOM     20  C   UNL     1     -10.534  19.705  66.157  0.00  0.00    +0.031 C 
BRANCH  19  21
ATOM     21  C   UNL     1      -8.637  18.347  66.576  0.00  0.00    +0.333 C 
ATOM     22  O   UNL     1      -7.937  17.759  65.713  0.00  0.00    -0.249 OA
BRANCH  21  23
ATOM     23  O   UNL     1      -8.402  19.720  66.727  0.00  0.00    -0.451 OA
BRANCH  23  25
ATOM     24  C   UNL     1      -7.065  20.750  67.377  0.00  0.00    +0.047 C 
ATOM     25  C   UNL     1      -7.226  20.142  67.407  0.00  0.00    +0.169 C 
ATOM     26  C   UNL     1      -7.253  19.485  68.780  0.00  0.00    +0.047 C 
ENDBRANCH  23  25
ENDBRANCH  21  23
ENDBRANCH  19  21
ENDBRANCH  18  19
ENDBRANCH   1  18
BRANCH   1  27
ATOM     27  O   UNL     1     -11.903  16.303  69.634  0.00  0.00    -0.428 OA
BRANCH  27  28
ATOM     28  C   UNL     1     -11.906  15.467  70.716  0.00  0.00    +0.146 A 
ATOM     29  C   UNL     1     -12.481  14.204  70.667  0.00  0.00    +0.037 A 
ATOM     30  C   UNL     1     -13.142  13.647  71.747  0.00  0.00    +0.003 A 
ATOM     31  C   UNL     1     -13.414  14.407  72.853  0.00  0.00    +0.000 A 
ATOM     32  C   UNL     1     -12.749  15.595  72.998  0.00  0.00    +0.003 A 
ATOM     33  C   UNL     1     -11.998  16.083  71.960  0.00  0.00    +0.037 A 
ENDBRANCH  27  28
ENDBRANCH   1  27
TORSDOF 12
ENDMDL
MODEL 4
REMARK VINA RESULT:      -7.0      2.969      5.469
REMARK  Name = 
REMARK  12 active torsions:
REMARK  status: ('A' for Active; 'I' for Inactive)
REMARK    1  A    between atoms: C_2  and  O_4
REMARK    2  A    between atoms: O_4  and  C_5
REMARK    3  A    between atoms: C_5  and  C_7
REMARK    4  A    between atoms: C_7  and  N_9
REMARK    5  A    between atoms: N_9  and  P_10
REMARK    6  A    between atoms: P_10  and  C_12
REMARK    7  A    between atoms: P_10  and  O_27
REMARK    8  A    between atoms: C_12  and  O_13
REMARK    9  A    between atoms: O_13  and  C_14
REMARK   10  A    between atoms: C_14  and  C_16
REMARK   11  A    between atoms: C_16  and  N_17
REMARK   12  A    between atoms: O_27  and  C_28
REMARK                            x       y       z     vdW  Elec       q    Type
REMARK                         _______ _______ _______ _____ _____    ______ ____
ROOT
ATOM      1  P   UNL     1     -10.079  15.943  66.954  0.00  0.00    +0.375 P 
ATOM      2  O   UNL     1      -8.628  15.755  66.521  0.00  0.00    -0.254 OA
ENDROOT
BRANCH   1   3
ATOM      3  C   UNL     1     -10.305  17.752  67.019  0.00  0.00    +0.259 C 
BRANCH   3   4
ATOM      4  O   UNL     1      -9.788  18.182  68.256  0.00  0.00    -0.343 OA
BRANCH   4   5
ATOM      5  C   UNL     1      -9.466  19.674  68.000  0.00  0.00    +0.139 C 
ATOM      6  C   UNL     1     -10.270  19.636  66.523  0.00  0.00    +0.034 C 
BRANCH   5   7
ATOM      7  C   UNL     1      -8.013  19.275  67.254  0.00  0.00    +0.138 C 
BRANCH   7   8
ATOM      8  N   UNL     1      -7.061  19.576  68.302  0.00  0.00    -0.292 N 
ATOM      9  C   UNL     1      -6.321  18.686  69.006  0.00  0.00    +0.167 A 
ATOM     10  N   UNL     1      -6.369  17.353  69.153  0.00  0.00    -0.205 NA
ATOM     11  C   UNL     1      -5.754  16.779  70.215  0.00  0.00    +0.202 A 
ATOM     12  N   UNL     1      -5.071  17.515  71.110  0.00  0.00    -0.204 NA
ATOM     13  C   UNL     1      -4.959  18.858  70.972  0.00  0.00    +0.192 A 
ATOM     14  N   UNL     1      -4.249  19.655  71.903  0.00  0.00    -0.105 NA
ATOM     15  C   UNL     1      -5.619  19.470  69.912  0.00  0.00    +0.152 A 
ATOM     16  N   UNL     1      -5.685  20.736  69.473  0.00  0.00    -0.219 NA
ATOM     17  C   UNL     1      -6.432  20.774  68.369  0.00  0.00    +0.180 A 
ENDBRANCH   7   8
ENDBRANCH   5   7
ENDBRANCH   4   5
ENDBRANCH   3   4
ENDBRANCH   1   3
BRANCH   1  18
ATOM     18  N   UNL     1     -10.360  15.356  68.565  0.00  0.00    -0.124 NA
BRANCH  18  19
ATOM     19  C   UNL     1     -11.953  15.229  68.704  0.00  0.00    +0.181 C 
ATOM     20  C   UNL     1     -11.836  13.600  69.077  0.00  0.00    +0.031 C 
BRANCH  19  21
ATOM     21  C   UNL     1     -11.889  15.634  70.295  0.00  0.00    +0.333 C 
ATOM     22  O   UNL     1     -10.971  16.461  70.526  0.00  0.00    -0.249 OA
BRANCH  21  23
ATOM     23  O   UNL     1     -13.165  15.985  70.756  0.00  0.00    -0.451 OA
BRANCH  23  25
ATOM     24  C   UNL     1     -13.612  15.578  72.461  0.00  0.00    +0.047 C 
ATOM     25  C   UNL     1     -13.689  15.312  71.895  0.00  0.00    +0.169 C 
ATOM     26  C   UNL     1     -15.087  14.841  71.522  0.00  0.00    +0.047 C 
ENDBRANCH  23  25
ENDBRANCH  21  23
ENDBRANCH  19  21
ENDBRANCH  18  19
ENDBRANCH   1  18
BRANCH   1  27
ATOM     27  O   UNL     1     -10.999  15.201  65.766  0.00  0.00    -0.428 OA
BRANCH  27  28
ATOM     28  C   UNL     1     -11.089  13.877  65.435  0.00  0.00    +0.146 A 
ATOM     29  C   UNL     1     -10.220  13.287  64.526  0.00  0.00    +0.037 A 
ATOM     30  C   UNL     1     -10.625  12.298  63.649  0.00  0.00    +0.003 A 
ATOM     31  C   UNL     1     -11.954  11.996  63.519  0.00  0.00    +0.000 A 
ATOM     32  C   UNL     1     -12.814  12.446  64.484  0.00  0.00    +0.003 A 
ATOM     33  C   UNL     1     -12.371  13.339  65.425  0.00  0.00    +0.037 A 
ENDBRANCH  27  28
ENDBRANCH   1  27
TORSDOF 12
ENDMDL
MODEL 5
REMARK VINA RESULT:      -6.9      2.731      5.510
REMARK  Name = 
REMARK  12 active torsions:
REMARK  status: ('A' for Active; 'I' for Inactive)
REMARK    1  A    between atoms: C_2  and  O_4
REMARK    2  A    between atoms: O_4  and  C_5
REMARK    3  A    between atoms: C_5  and  C_7
REMARK    4  A    between atoms: C_7  and  N_9
REMARK    5  A    between atoms: N_9  and  P_10
REMARK    6  A    between atoms: P_10  and  C_12
REMARK    7  A    between atoms: P_10  and  O_27
REMARK    8  A    between atoms: C_12  and  O_13
REMARK    9  A    between atoms: O_13  and  C_14
REMARK   10  A    between atoms: C_14  and  C_16
REMARK   11  A    between atoms: C_16  and  N_17
REMARK   12  A    between atoms: O_27  and  C_28
REMARK                            x       y       z     vdW  Elec       q    Type
REMARK                         _______ _______ _______ _____ _____    ______ ____
ROOT
ATOM      1  P   UNL     1     -10.878  15.288  68.343  0.00  0.00    +0.375 P 
ATOM      2  O   UNL     1     -11.689  15.179  67.056  0.00  0.00    -0.254 OA
ENDROOT
BRANCH   1   3
ATOM      3  C   UNL     1      -9.503  16.411  67.922  0.00  0.00    +0.259 C 
BRANCH   3   4
ATOM      4  O   UNL     1     -10.074  17.545  67.314  0.00  0.00    -0.343 OA
BRANCH   4   5
ATOM      5  C   UNL     1      -9.569  18.707  68.202  0.00  0.00    +0.139 C 
ATOM      6  C   UNL     1     -10.270  19.846  67.182  0.00  0.00    +0.034 C 
BRANCH   5   7
ATOM      7  C   UNL     1      -8.123  18.786  67.348  0.00  0.00    +0.138 C 
BRANCH   7   8
ATOM      8  N   UNL     1      -7.204  19.216  68.380  0.00  0.00    -0.292 N 
ATOM      9  C   UNL     1      -6.375  18.430  69.107  0.00  0.00    +0.167 A 
ATOM     10  N   UNL     1      -6.287  17.105  69.297  0.00  0.00    -0.205 NA
ATOM     11  C   UNL     1      -5.614  16.631  70.374  0.00  0.00    +0.202 A 
ATOM     12  N   UNL     1      -5.007  17.462  71.240  0.00  0.00    -0.204 NA
ATOM     13  C   UNL     1      -5.032  18.804  71.058  0.00  0.00    +0.192 A 
ATOM     14  N   UNL     1      -4.405  19.699  71.960  0.00  0.00    -0.105 NA
ATOM     15  C   UNL     1      -5.755  19.311  69.984  0.00  0.00    +0.152 A 
ATOM     16  N   UNL     1      -5.950  20.548  69.504  0.00  0.00    -0.219 NA
ATOM     17  C   UNL     1      -6.700  20.475  68.404  0.00  0.00    +0.180 A 
ENDBRANCH   7   8
ENDBRANCH   5   7
ENDBRANCH   4   5
ENDBRANCH   3   4
ENDBRANCH   1   3
BRANCH   1  18
ATOM     18  N   UNL     1     -10.154  13.773  68.790  0.00  0.00    -0.124 NA
BRANCH  18  19
ATOM     19  C   UNL     1     -10.246  12.851  67.481  0.00  0.00    +0.181 C 
ATOM     20  C   UNL     1      -8.979  11.892  68.012  0.00  0.00    +0.031 C 
BRANCH  19  21
ATOM     21  C   UNL     1     -11.342  11.863  68.202  0.00  0.00    +0.333 C 
ATOM     22  O   UNL     1     -11.941  11.145  67.363  0.00  0.00    -0.249 OA
BRANCH  21  23
ATOM     23  O   UNL     1     -10.751  11.189  69.279  0.00  0.00    -0.451 OA
BRANCH  23  25
ATOM     24  C   UNL     1     -11.337  10.126  70.620  0.00  0.00    +0.047 C 
ATOM     25  C   UNL     1     -11.593  10.551  70.232  0.00  0.00    +0.169 C 
ATOM     26  C   UNL     1     -12.458  11.640  70.851  0.00  0.00    +0.047 C 
ENDBRANCH  23  25
ENDBRANCH  21  23
ENDBRANCH  19  21
ENDBRANCH  18  19
ENDBRANCH   1  18
BRANCH   1  27
ATOM     27  O   UNL     1     -11.931  15.925  69.481  0.00  0.00    -0.428 OA
BRANCH  27  28
ATOM     28  C   UNL     1     -12.346  15.399  70.673  0.00  0.00    +0.146 A 
ATOM     29  C   UNL     1     -13.687  15.154  70.939  0.00  0.00    +0.037 A 
ATOM     30  C   UNL     1     -14.236  15.326  72.197  0.00  0.00    +0.003 A 
ATOM     31  C   UNL     1     -13.508  15.928  73.189  0.00  0.00    +0.000 A 
ATOM     32  C   UNL     1     -12.157  16.052  73.011  0.00  0.00    +0.003 A 
ATOM     33  C   UNL     1     -11.603  15.764  71.791  0.00  0.00    +0.037 A 
ENDBRANCH  27  28
ENDBRANCH   1  27
TORSDOF 12
ENDMDL
MODEL 6
REMARK VINA RESULT:      -6.8      2.851      6.361
REMARK  Name = 
REMARK  12 active torsions:
REMARK  status: ('A' for Active; 'I' for Inactive)
REMARK    1  A    between atoms: C_2  and  O_4
REMARK    2  A    between atoms: O_4  and  C_5
REMARK    3  A    between atoms: C_5  and  C_7
REMARK    4  A    between atoms: C_7  and  N_9
REMARK    5  A    between atoms: N_9  and  P_10
REMARK    6  A    between atoms: P_10  and  C_12
REMARK    7  A    between atoms: P_10  and  O_27
REMARK    8  A    between atoms: C_12  and  O_13
REMARK    9  A    between atoms: O_13  and  C_14
REMARK   10  A    between atoms: C_14  and  C_16
REMARK   11  A    between atoms: C_16  and  N_17
REMARK   12  A    between atoms: O_27  and  C_28
REMARK                            x       y       z     vdW  Elec       q    Type
REMARK                         _______ _______ _______ _____ _____    ______ ____
ROOT
ATOM      1  P   UNL     1     -11.161  14.234  64.834  0.00  0.00    +0.375 P 
ATOM      2  O   UNL     1     -12.485  14.034  64.103  0.00  0.00    -0.254 OA
ENDROOT
BRANCH   1   3
ATOM      3  C   UNL     1     -11.542  13.860  66.579  0.00  0.00    +0.259 C 
BRANCH   3   4
ATOM      4  O   UNL     1     -10.398  13.248  67.124  0.00  0.00    -0.343 OA
BRANCH   4   5
ATOM      5  C   UNL     1     -10.746  13.132  68.627  0.00  0.00    +0.139 C 
ATOM      6  C   UNL     1     -11.734  11.802  68.337  0.00  0.00    +0.034 C 
BRANCH   5   7
ATOM      7  C   UNL     1     -12.050  14.179  68.448  0.00  0.00    +0.138 C 
BRANCH   7   8
ATOM      8  N   UNL     1     -12.008  14.904  69.700  0.00  0.00    -0.292 N 
ATOM      9  C   UNL     1     -12.374  14.440  70.919  0.00  0.00    +0.167 A 
ATOM     10  N   UNL     1     -13.059  13.363  71.331  0.00  0.00    -0.205 NA
ATOM     11  C   UNL     1     -13.606  13.357  72.571  0.00  0.00    +0.202 A 
ATOM     12  N   UNL     1     -13.451  14.399  73.408  0.00  0.00    -0.204 NA
ATOM     13  C   UNL     1     -12.727  15.486  73.047  0.00  0.00    +0.192 A 
ATOM     14  N   UNL     1     -12.555  16.597  73.909  0.00  0.00    -0.105 NA
ATOM     15  C   UNL     1     -12.195  15.528  71.763  0.00  0.00    +0.152 A 
ATOM     16  N   UNL     1     -11.419  16.408  71.114  0.00  0.00    -0.219 NA
ATOM     17  C   UNL     1     -11.153  15.937  69.896  0.00  0.00    +0.180 A 
ENDBRANCH   7   8
ENDBRANCH   5   7
ENDBRANCH   4   5
ENDBRANCH   3   4
ENDBRANCH   1   3
BRANCH   1  18
ATOM     18  N   UNL     1     -10.636  15.891  64.793  0.00  0.00    -0.124 NA
BRANCH  18  19
ATOM     19  C   UNL     1     -10.357  16.291  66.321  0.00  0.00    +0.181 C 
ATOM     20  C   UNL     1      -8.701  16.195  66.092  0.00  0.00    +0.031 C 
BRANCH  19  21
ATOM     21  C   UNL     1     -10.351  17.890  65.946  0.00  0.00    +0.333 C 
ATOM     22  O   UNL     1     -11.017  18.124  64.905  0.00  0.00    -0.249 OA
BRANCH  21  23
ATOM     23  O   UNL     1     -10.682  18.653  67.073  0.00  0.00    -0.451 OA
BRANCH  23  25
ATOM     24  C   UNL     1     -10.018  20.254  67.592  0.00  0.00    +0.047 C 
ATOM     25  C   UNL     1      -9.787  19.676  67.493  0.00  0.00    +0.169 C 
ATOM     26  C   UNL     1      -8.909  19.071  68.580  0.00  0.00    +0.047 C 
ENDBRANCH  23  25
ENDBRANCH  21  23
ENDBRANCH  19  21
ENDBRANCH  18  19
ENDBRANCH   1  18
BRANCH   1  27
ATOM     27  O   UNL     1     -10.096  13.143  64.138  0.00  0.00    -0.428 OA
BRANCH  27  28
ATOM     28  C   UNL     1     -10.230  11.796  63.952  0.00  0.00    +0.146 A 
ATOM     29  C   UNL     1     -10.247  10.905  65.018  0.00  0.00    +0.037 A 
ATOM     30  C   UNL     1      -9.680   9.646  64.941  0.00  0.00    +0.003 A 
ATOM     31  C   UNL     1      -8.914   9.302  63.860  0.00  0.00    +0.000 A 
ATOM     32  C   UNL     1      -8.989  10.086  62.740  0.00  0.00    +0.003 A 
ATOM     33  C   UNL     1      -9.657  11.282  62.793  0.00  0.00    +0.037 A 
ENDBRANCH  27  28
ENDBRANCH   1  27
TORSDOF 12
ENDMDL
MODEL 7
REMARK VINA RESULT:      -6.6      2.804      5.706
REMARK  Name = 
REMARK  12 active torsions:
REMARK  status: ('A' for Active; 'I' for Inactive)
REMARK    1  A    between atoms: C_2  and  O_4
REMARK    2  A    between atoms: O_4  and  C_5
REMARK    3  A    between atoms: C_5  and  C_7
REMARK    4  A    between atoms: C_7  and  N_9
REMARK    5  A    between atoms: N_9  and  P_10
REMARK    6  A    between atoms: P_10  and  C_12
REMARK    7  A    between atoms: P_10  and  O_27
REMARK    8  A    between atoms: C_12  and  O_13
REMARK    9  A    between atoms: O_13  and  C_14
REMARK   10  A    between atoms: C_14  and  C_16
REMARK   11  A    between atoms: C_16  and  N_17
REMARK   12  A    between atoms: O_27  and  C_28
REMARK                            x       y       z     vdW  Elec       q    Type
REMARK                         _______ _______ _______ _____ _____    ______ ____
ROOT
ATOM      1  P   UNL     1     -11.186  15.212  68.657  0.00  0.00    +0.375 P 
ATOM      2  O   UNL     1     -11.697  16.625  68.924  0.00  0.00    -0.254 OA
ENDROOT
BRANCH   1   3
ATOM      3  C   UNL     1      -9.589  15.458  67.810  0.00  0.00    +0.259 C 
BRANCH   3   4
ATOM      4  O   UNL     1      -8.613  14.797  68.580  0.00  0.00    -0.343 OA
BRANCH   4   5
ATOM      5  C   UNL     1      -7.285  15.322  67.985  0.00  0.00    +0.139 C 
ATOM      6  C   UNL     1      -6.460  13.957  68.516  0.00  0.00    +0.034 C 
BRANCH   5   7
ATOM      7  C   UNL     1      -6.920  16.135  69.410  0.00  0.00    +0.138 C 
BRANCH   7   8
ATOM      8  N   UNL     1      -6.543  17.439  68.907  0.00  0.00    -0.292 N 
ATOM      9  C   UNL     1      -7.372  18.477  68.641  0.00  0.00    +0.167 A 
ATOM     10  N   UNL     1      -8.703  18.590  68.520  0.00  0.00    -0.205 NA
ATOM     11  C   UNL     1      -9.223  19.660  67.872  0.00  0.00    +0.202 A 
ATOM     12  N   UNL     1      -8.432  20.627  67.371  0.00  0.00    -0.204 NA
ATOM     13  C   UNL     1      -7.086  20.573  67.514  0.00  0.00    +0.192 A 
ATOM     14  N   UNL     1      -6.232  21.576  66.991  0.00  0.00    -0.105 NA
ATOM     15  C   UNL     1      -6.532  19.462  68.138  0.00  0.00    +0.152 A 
ATOM     16  N   UNL     1      -5.278  19.118  68.469  0.00  0.00    -0.219 NA
ATOM     17  C   UNL     1      -5.302  17.948  69.107  0.00  0.00    +0.180 A 
ENDBRANCH   7   8
ENDBRANCH   5   7
ENDBRANCH   4   5
ENDBRANCH   3   4
ENDBRANCH   1   3
BRANCH   1  18
ATOM     18  N   UNL     1     -12.203  14.350  67.543  0.00  0.00    -0.124 NA
BRANCH  18  19
ATOM     19  C   UNL     1     -11.202  13.608  66.534  0.00  0.00    +0.181 C 
ATOM     20  C   UNL     1     -11.506  12.124  67.250  0.00  0.00    +0.031 C 
BRANCH  19  21
ATOM     21  C   UNL     1     -12.409  13.369  65.445  0.00  0.00    +0.333 C 
ATOM     22  O   UNL     1     -13.289  14.262  65.527  0.00  0.00    -0.249 OA
BRANCH  21  23
ATOM     23  O   UNL     1     -11.873  13.147  64.170  0.00  0.00    -0.451 OA
BRANCH  23  25
ATOM     24  C   UNL     1     -12.387  11.762  63.126  0.00  0.00    +0.047 C 
ATOM     25  C   UNL     1     -11.981  11.848  63.599  0.00  0.00    +0.169 C 
ATOM     26  C   UNL     1     -10.561  11.331  63.414  0.00  0.00    +0.047 C 
ENDBRANCH  23  25
ENDBRANCH  21  23
ENDBRANCH  19  21
ENDBRANCH  18  19
ENDBRANCH   1  18
BRANCH   1  27
ATOM     27  O   UNL     1     -11.035  14.499  70.166  0.00  0.00    -0.428 OA
BRANCH  27  28
ATOM     28  C   UNL     1     -11.935  14.438  71.194  0.00  0.00    +0.146 A 
ATOM     29  C   UNL     1     -13.279  14.165  70.977  0.00  0.00    +0.037 A 
ATOM     30  C   UNL     1     -14.285  14.752  71.723  0.00  0.00    +0.003 A 
ATOM     31  C   UNL     1     -13.993  15.773  72.587  0.00  0.00    +0.000 A 
ATOM     32  C   UNL     1     -12.683  15.972  72.931  0.00  0.00    +0.003 A 
ATOM     33  C   UNL     1     -11.696  15.295  72.263  0.00  0.00    +0.037 A 
ENDBRANCH  27  28
ENDBRANCH   1  27
TORSDOF 12
ENDMDL
MODEL 8
REMARK VINA RESULT:      -6.6      3.240      5.829
REMARK  Name = 
REMARK  12 active torsions:
REMARK  status: ('A' for Active; 'I' for Inactive)
REMARK    1  A    between atoms: C_2  and  O_4
REMARK    2  A    between atoms: O_4  and  C_5
REMARK    3  A    between atoms: C_5  and  C_7
REMARK    4  A    between atoms: C_7  and  N_9
REMARK    5  A    between atoms: N_9  and  P_10
REMARK    6  A    between atoms: P_10  and  C_12
REMARK    7  A    between atoms: P_10  and  O_27
REMARK    8  A    between atoms: C_12  and  O_13
REMARK    9  A    between atoms: O_13  and  C_14
REMARK   10  A    between atoms: C_14  and  C_16
REMARK   11  A    between atoms: C_16  and  N_17
REMARK   12  A    between atoms: O_27  and  C_28
REMARK                            x       y       z     vdW  Elec       q    Type
REMARK                         _______ _______ _______ _____ _____    ______ ____
ROOT
ATOM      1  P   UNL     1     -10.674  15.404  68.437  0.00  0.00    +0.375 P 
ATOM      2  O   UNL     1     -11.627  16.579  68.243  0.00  0.00    -0.254 OA
ENDROOT
BRANCH   1   3
ATOM      3  C   UNL     1      -9.022  16.171  68.554  0.00  0.00    +0.259 C 
BRANCH   3   4
ATOM      4  O   UNL     1      -8.935  17.112  67.511  0.00  0.00    -0.343 OA
BRANCH   4   5
ATOM      5  C   UNL     1      -8.621  18.431  68.257  0.00  0.00    +0.139 C 
ATOM      6  C   UNL     1      -9.417  19.333  67.082  0.00  0.00    +0.034 C 
BRANCH   5   7
ATOM      7  C   UNL     1      -7.162  18.595  67.438  0.00  0.00    +0.138 C 
BRANCH   7   8
ATOM      8  N   UNL     1      -6.462  19.535  68.287  0.00  0.00    -0.292 N 
ATOM      9  C   UNL     1      -5.752  19.248  69.404  0.00  0.00    +0.167 A 
ATOM     10  N   UNL     1      -5.653  18.160  70.183  0.00  0.00    -0.205 NA
ATOM     11  C   UNL     1      -5.170  18.286  71.443  0.00  0.00    +0.202 A 
ATOM     12  N   UNL     1      -4.761  19.476  71.919  0.00  0.00    -0.204 NA
ATOM     13  C   UNL     1      -4.801  20.589  71.149  0.00  0.00    +0.192 A 
ATOM     14  N   UNL     1      -4.381  21.854  71.630  0.00  0.00    -0.105 NA
ATOM     15  C   UNL     1      -5.333  20.488  69.869  0.00  0.00    +0.152 A 
ATOM     16  N   UNL     1      -5.483  21.359  68.859  0.00  0.00    -0.219 NA
ATOM     17  C   UNL     1      -6.016  20.725  67.815  0.00  0.00    +0.180 A 
ENDBRANCH   7   8
ENDBRANCH   5   7
ENDBRANCH   4   5
ENDBRANCH   3   4
ENDBRANCH   1   3
BRANCH   1  18
ATOM     18  N   UNL     1     -10.631  14.362  67.046  0.00  0.00    -0.124 NA
BRANCH  18  19
ATOM     19  C   UNL     1     -12.116  14.394  66.440  0.00  0.00    +0.181 C 
ATOM     20  C   UNL     1     -11.527  14.632  64.890  0.00  0.00    +0.031 C 
BRANCH  19  21
ATOM     21  C   UNL     1     -12.110  12.765  66.229  0.00  0.00    +0.333 C 
ATOM     22  O   UNL     1     -12.344  12.452  65.035  0.00  0.00    -0.249 OA
BRANCH  21  23
ATOM     23  O   UNL     1     -10.957  12.208  66.797  0.00  0.00    -0.451 OA
BRANCH  23  25
ATOM     24  C   UNL     1     -10.559  10.614  67.555  0.00  0.00    +0.047 C 
ATOM     25  C   UNL     1     -11.069  10.981  67.508  0.00  0.00    +0.169 C 
ATOM     26  C   UNL     1     -11.843  11.281  68.784  0.00  0.00    +0.047 C 
ENDBRANCH  23  25
ENDBRANCH  21  23
ENDBRANCH  19  21
ENDBRANCH  18  19
ENDBRANCH   1  18
BRANCH   1  27
ATOM     27  O   UNL     1     -11.164  14.660  69.856  0.00  0.00    -0.428 OA
BRANCH  27  28
ATOM     28  C   UNL     1     -12.073  15.077  70.788  0.00  0.00    +0.146 A 
ATOM     29  C   UNL     1     -11.782  16.086  71.698  0.00  0.00    +0.037 A 
ATOM     30  C   UNL     1     -12.256  16.072  72.997  0.00  0.00    +0.003 A 
ATOM     31  C   UNL     1     -12.882  14.958  73.488  0.00  0.00    +0.000 A 
ATOM     32  C   UNL     1     -13.310  14.012  72.596  0.00  0.00    +0.003 A 
ATOM     33  C   UNL     1     -12.931  14.100  71.281  0.00  0.00    +0.037 A 
ENDBRANCH  27  28
ENDBRANCH   1  27
TORSDOF 12
ENDMDL
MODEL 9
REMARK VINA RESULT:      -6.6      3.462      6.390
REMARK  Name = 
REMARK  12 active torsions:
REMARK  status: ('A' for Active; 'I' for Inactive)
REMARK    1  A    between atoms: C_2  and  O_4
REMARK    2  A    between atoms: O_4  and  C_5
REMARK    3  A    between atoms: C_5  and  C_7
REMARK    4  A    between atoms: C_7  and  N_9
REMARK    5  A    between atoms: N_9  and  P_10
REMARK    6  A    between atoms: P_10  and  C_12
REMARK    7  A    between atoms: P_10  and  O_27
REMARK    8  A    between atoms: C_12  and  O_13
REMARK    9  A    between atoms: O_13  and  C_14
REMARK   10  A    between atoms: C_14  and  C_16
REMARK   11  A    between atoms: C_16  and  N_17
REMARK   12  A    between atoms: O_27  and  C_28
REMARK                            x       y       z     vdW  Elec       q    Type
REMARK                         _______ _______ _______ _____ _____    ______ ____
ROOT
ATOM      1  P   UNL     1     -10.725  16.477  68.574  0.00  0.00    +0.375 P 
ATOM      2  O   UNL     1      -9.400  16.063  69.204  0.00  0.00    -0.254 OA
ENDROOT
BRANCH   1   3
ATOM      3  C   UNL     1     -10.982  15.278  67.221  0.00  0.00    +0.259 C 
BRANCH   3   4
ATOM      4  O   UNL     1     -11.724  14.210  67.760  0.00  0.00    -0.343 OA
BRANCH   4   5
ATOM      5  C   UNL     1     -11.849  13.236  66.564  0.00  0.00    +0.139 C 
ATOM      6  C   UNL     1     -11.823  11.906  67.592  0.00  0.00    +0.034 C 
BRANCH   5   7
ATOM      7  C   UNL     1     -10.179  13.172  66.388  0.00  0.00    +0.138 C 
BRANCH   7   8
ATOM      8  N   UNL     1     -10.049  12.397  65.173  0.00  0.00    -0.292 N 
ATOM      9  C   UNL     1      -9.673  11.099  65.075  0.00  0.00    +0.167 A 
ATOM     10  N   UNL     1      -9.112  10.231  65.930  0.00  0.00    -0.205 NA
ATOM     11  C   UNL     1      -8.496   9.125  65.446  0.00  0.00    +0.202 A 
ATOM     12  N   UNL     1      -8.462   8.864  64.126  0.00  0.00    -0.204 NA
ATOM     13  C   UNL     1      -9.058   9.691  63.234  0.00  0.00    +0.192 A 
ATOM     14  N   UNL     1      -9.030   9.441  61.840  0.00  0.00    -0.105 NA
ATOM     15  C   UNL     1      -9.657  10.853  63.708  0.00  0.00    +0.152 A 
ATOM     16  N   UNL     1     -10.349  11.841  63.121  0.00  0.00    -0.219 NA
ATOM     17  C   UNL     1     -10.748  12.706  64.053  0.00  0.00    +0.180 A 
ENDBRANCH   7   8
ENDBRANCH   5   7
ENDBRANCH   4   5
ENDBRANCH   3   4
ENDBRANCH   1   3
BRANCH   1  18
ATOM     18  N   UNL     1     -10.632  18.043  67.827  0.00  0.00    -0.124 NA
BRANCH  18  19
ATOM     19  C   UNL     1     -10.273  17.765  66.288  0.00  0.00    +0.181 C 
ATOM     20  C   UNL     1     -10.604  19.355  65.876  0.00  0.00    +0.031 C 
BRANCH  19  21
ATOM     21  C   UNL     1      -8.691  18.125  66.549  0.00  0.00    +0.333 C 
ATOM     22  O   UNL     1      -7.943  17.550  65.720  0.00  0.00    -0.249 OA
BRANCH  21  23
ATOM     23  O   UNL     1      -8.525  19.511  66.670  0.00  0.00    -0.451 OA
BRANCH  23  25
ATOM     24  C   UNL     1      -7.243  20.616  67.311  0.00  0.00    +0.047 C 
ATOM     25  C   UNL     1      -7.385  20.005  67.364  0.00  0.00    +0.169 C 
ATOM     26  C   UNL     1      -7.435  19.412  68.766  0.00  0.00    +0.047 C 
ENDBRANCH  23  25
ENDBRANCH  21  23
ENDBRANCH  19  21
ENDBRANCH  18  19
ENDBRANCH   1  18
BRANCH   1  27
ATOM     27  O   UNL     1     -11.862  16.350  69.798  0.00  0.00    -0.428 OA
BRANCH  27  28
ATOM     28  C   UNL     1     -11.843  15.577  70.926  0.00  0.00    +0.146 A 
ATOM     29  C   UNL     1     -12.494  14.351  70.986  0.00  0.00    +0.037 A 
ATOM     30  C   UNL     1     -13.114  13.897  72.137  0.00  0.00    +0.003 A 
ATOM     31  C   UNL     1     -13.267  14.732  73.211  0.00  0.00    +0.000 A 
ATOM     32  C   UNL     1     -12.525  15.883  73.244  0.00  0.00    +0.003 A 
ATOM     33  C   UNL     1     -11.817  16.265  72.135  0.00  0.00    +0.037 A 
ENDBRANCH  27  28
ENDBRANCH   1  27
TORSDOF 12
ENDMDL
