MODEL 1
REMARK VINA RESULT:      -7.2      0.000      0.000
REMARK  Name = 
REMARK  6 active torsions:
REMARK  status: ('A' for Active; 'I' for Inactive)
REMARK    1  A    between atoms: C_2  and  C_4
REMARK    2  A    between atoms: C_7  and  C_8
REMARK    3  A    between atoms: N_10  and  CA_11
REMARK    4  A    between atoms: CA_11  and  CB_12
REMARK    5  A    between atoms: CA_11  and  C_19
REMARK    6  A    between atoms: CB_12  and  CG_13
REMARK                            x       y       z     vdW  Elec       q    Type
REMARK                         _______ _______ _______ _____ _____    ______ ____
ROOT
ATOM      1  C   UNK A   0     -10.526  14.476  67.991  0.00  0.00    +0.241 C 
ATOM      2  N   PHE A   1     -11.116  15.243  67.071  0.00  0.00    -0.195 NA
ATOM      3  O   UNK A   0     -10.784  13.335  67.622  0.00  0.00    -0.273 OA
ENDROOT
BRANCH   1   7
ATOM      4  C   UNK A   0     -11.860  14.702  71.722  0.00  0.00    +0.000 C 
ATOM      5  C   UNK A   0     -12.570  15.783  70.727  0.00  0.00    +0.000 C 
ATOM      6  C   UNK A   0     -11.861  15.686  69.432  0.00  0.00    +0.009 C 
ATOM      7  C   UNK A   0     -10.723  14.514  69.571  0.00  0.00    +0.078 C 
ATOM      8  C   UNK A   0     -11.844  13.321  69.617  0.00  0.00    +0.009 C 
ATOM      9  C   UNK A   0     -12.535  13.434  70.942  0.00  0.00    +0.000 C 
BRANCH   4  11
ATOM     10  C   UNK A   0     -14.235  15.258  72.141  0.00  0.00    +0.000 C 
ATOM     11  C   UNK A   0     -13.063  14.804  72.816  0.00  0.00    +0.000 C 
ATOM     12  C   UNK A   0     -12.594  15.583  73.977  0.00  0.00    +0.000 C 
ENDBRANCH   4  11
ENDBRANCH   1   7
BRANCH   2  13
ATOM     13  CA  PHE A   1     -10.150  15.784  65.946  0.00  0.00    +0.202 C 
BRANCH  13  14
ATOM     14  C   PHE A   1     -11.090  15.814  64.651  0.00  0.00    +0.385 C 
ATOM     15  OXT PHE A   1     -11.626  16.673  63.903  0.00  0.00    -0.244 OA
ATOM     16  O   PHE A   1     -11.866  14.798  64.761  0.00  0.00    -0.244 OA
ENDBRANCH  13  14
BRANCH  13  17
ATOM     17  CB  PHE A   1     -10.372  17.364  66.380  0.00  0.00    +0.060 C 
BRANCH  17  18
ATOM     18  CG  PHE A   1      -9.200  17.935  66.968  0.00  0.00    -0.020 A 
ATOM     19  CD2 PHE A   1      -8.673  17.666  68.230  0.00  0.00    -0.004 A 
ATOM     20  CE2 PHE A   1      -7.476  18.289  68.580  0.00  0.00    -0.000 A 
ATOM     21  CZ  PHE A   1      -7.473  19.654  68.370  0.00  0.00    -0.000 A 
ATOM     22  CE1 PHE A   1      -8.220  20.136  67.305  0.00  0.00    -0.000 A 
ATOM     23  CD1 PHE A   1      -8.911  19.229  66.528  0.00  0.00    -0.004 A 
ENDBRANCH  17  18
ENDBRANCH  13  17
ENDBRANCH   2  13
TORSDOF 6
ENDMDL
MODEL 2
REMARK VINA RESULT:      -7.2      1.432      2.045
REMARK  Name = 
REMARK  6 active torsions:
REMARK  status: ('A' for Active; 'I' for Inactive)
REMARK    1  A    between atoms: C_2  and  C_4
REMARK    2  A    between atoms: C_7  and  C_8
REMARK    3  A    between atoms: N_10  and  CA_11
REMARK    4  A    between atoms: CA_11  and  CB_12
REMARK    5  A    between atoms: CA_11  and  C_19
REMARK    6  A    between atoms: CB_12  and  CG_13
REMARK                            x       y       z     vdW  Elec       q    Type
REMARK                         _______ _______ _______ _____ _____    ______ ____
ROOT
ATOM      1  C   UNK A   0     -11.137  13.300  67.909  0.00  0.00    +0.241 C 
ATOM      2  N   PHE A   1     -11.771  13.821  66.856  0.00  0.00    -0.195 NA
ATOM      3  O   UNK A   0     -11.626  12.181  68.014  0.00  0.00    -0.273 OA
ENDROOT
BRANCH   1   7
ATOM      4  C   UNK A   0     -11.700  14.980  71.461  0.00  0.00    +0.000 C 
ATOM      5  C   UNK A   0     -12.488  15.754  70.259  0.00  0.00    +0.000 C 
ATOM      6  C   UNK A   0     -12.054  15.117  68.997  0.00  0.00    +0.009 C 
ATOM      7  C   UNK A   0     -11.021  13.902  69.379  0.00  0.00    +0.078 C 
ATOM      8  C   UNK A   0     -12.216  12.981  70.018  0.00  0.00    +0.009 C 
ATOM      9  C   UNK A   0     -12.624  13.642  71.300  0.00  0.00    +0.000 C 
BRANCH   4  11
ATOM     10  C   UNK A   0     -12.236  15.118  73.873  0.00  0.00    +0.000 C 
ATOM     11  C   UNK A   0     -12.655  15.630  72.609  0.00  0.00    +0.000 C 
ATOM     12  C   UNK A   0     -14.067  15.441  72.225  0.00  0.00    +0.000 C 
ENDBRANCH   4  11
ENDBRANCH   1   7
BRANCH   2  13
ATOM     13  CA  PHE A   1     -10.968  13.746  65.500  0.00  0.00    +0.202 C 
BRANCH  13  14
ATOM     14  C   PHE A   1     -12.104  13.385  64.431  0.00  0.00    +0.385 C 
ATOM     15  OXT PHE A   1     -12.589  13.876  63.378  0.00  0.00    -0.244 OA
ATOM     16  O   PHE A   1     -13.029  12.794  65.093  0.00  0.00    -0.244 OA
ENDBRANCH  13  14
BRANCH  13  17
ATOM     17  CB  PHE A   1     -11.007  15.384  65.273  0.00  0.00    +0.060 C 
BRANCH  17  18
ATOM     18  CG  PHE A   1      -9.906  16.045  65.903  0.00  0.00    -0.020 A 
ATOM     19  CD2 PHE A   1      -8.698  15.475  66.304  0.00  0.00    -0.004 A 
ATOM     20  CE2 PHE A   1      -7.730  16.321  66.842  0.00  0.00    -0.000 A 
ATOM     21  CZ  PHE A   1      -8.198  17.141  67.848  0.00  0.00    -0.000 A 
ATOM     22  CE1 PHE A   1      -9.517  17.564  67.762  0.00  0.00    -0.000 A 
ATOM     23  CD1 PHE A   1     -10.269  17.143  66.685  0.00  0.00    -0.004 A 
ENDBRANCH  17  18
ENDBRANCH  13  17
ENDBRANCH   2  13
TORSDOF 6
ENDMDL
MODEL 3
REMARK VINA RESULT:      -7.0      3.028      7.302
REMARK  Name = 
REMARK  6 active torsions:
REMARK  status: ('A' for Active; 'I' for Inactive)
REMARK    1  A    between atoms: C_2  and  C_4
REMARK    2  A    between atoms: C_7  and  C_8
REMARK    3  A    between atoms: N_10  and  CA_11
REMARK    4  A    between atoms: CA_11  and  CB_12
REMARK    5  A    between atoms: CA_11  and  C_19
REMARK    6  A    between atoms: CB_12  and  CG_13
REMARK                            x       y       z     vdW  Elec       q    Type
REMARK                         _______ _______ _______ _____ _____    ______ ____
ROOT
ATOM      1  C   UNK A   0     -10.846  15.605  68.494  0.00  0.00    +0.241 C 
ATOM      2  N   PHE A   1     -11.882  15.544  69.334  0.00  0.00    -0.195 NA
ATOM      3  O   UNK A   0     -10.484  16.774  68.569  0.00  0.00    -0.273 OA
ENDROOT
BRANCH   1   7
ATOM      4  C   UNK A   0     -10.769  13.779  64.970  0.00  0.00    +0.000 C 
ATOM      5  C   UNK A   0      -9.840  13.039  66.090  0.00  0.00    +0.000 C 
ATOM      6  C   UNK A   0      -9.845  13.916  67.281  0.00  0.00    +0.009 C 
ATOM      7  C   UNK A   0     -10.810  15.201  66.954  0.00  0.00    +0.078 C 
ATOM      8  C   UNK A   0     -12.170  14.290  66.999  0.00  0.00    +0.009 C 
ATOM      9  C   UNK A   0     -12.146  13.424  65.775  0.00  0.00    +0.000 C 
BRANCH   4  11
ATOM     10  C   UNK A   0     -12.136  12.400  63.437  0.00  0.00    +0.000 C 
ATOM     11  C   UNK A   0     -10.844  12.443  64.040  0.00  0.00    +0.000 C 
ATOM     12  C   UNK A   0     -10.417  11.277  64.836  0.00  0.00    +0.000 C 
ENDBRANCH   4  11
ENDBRANCH   1   7
BRANCH   2  13
ATOM     13  CA  PHE A   1     -11.539  14.960  70.760  0.00  0.00    +0.202 C 
BRANCH  13  14
ATOM     14  C   PHE A   1     -12.259  15.991  71.751  0.00  0.00    +0.385 C 
ATOM     15  OXT PHE A   1     -12.075  16.465  72.903  0.00  0.00    -0.244 OA
ATOM     16  O   PHE A   1     -13.517  15.856  71.539  0.00  0.00    -0.244 OA
ENDBRANCH  13  14
BRANCH  13  17
ATOM     17  CB  PHE A   1     -12.768  13.855  70.710  0.00  0.00    +0.060 C 
BRANCH  17  18
ATOM     18  CG  PHE A   1     -12.287  12.507  70.744  0.00  0.00    -0.020 A 
ATOM     19  CD2 PHE A   1     -11.768  11.771  69.680  0.00  0.00    -0.004 A 
ATOM     20  CE2 PHE A   1     -11.294  10.488  69.950  0.00  0.00    -0.000 A 
ATOM     21  CZ  PHE A   1     -12.179   9.700  70.657  0.00  0.00    -0.000 A 
ATOM     22  CE1 PHE A   1     -13.013  10.336  71.565  0.00  0.00    -0.000 A 
ATOM     23  CD1 PHE A   1     -12.903  11.704  71.706  0.00  0.00    -0.004 A 
ENDBRANCH  17  18
ENDBRANCH  13  17
ENDBRANCH   2  13
TORSDOF 6
ENDMDL
MODEL 4
REMARK VINA RESULT:      -6.9      2.029      5.878
REMARK  Name = 
REMARK  6 active torsions:
REMARK  status: ('A' for Active; 'I' for Inactive)
REMARK    1  A    between atoms: C_2  and  C_4
REMARK    2  A    between atoms: C_7  and  C_8
REMARK    3  A    between atoms: N_10  and  CA_11
REMARK    4  A    between atoms: CA_11  and  CB_12
REMARK    5  A    between atoms: CA_11  and  C_19
REMARK    6  A    between atoms: CB_12  and  CG_13
REMARK                            x       y       z     vdW  Elec       q    Type
REMARK                         _______ _______ _______ _____ _____    ______ ____
ROOT
ATOM      1  C   UNK A   0     -10.848  16.431  65.460  0.00  0.00    +0.241 C 
ATOM      2  N   PHE A   1     -10.669  15.123  65.268  0.00  0.00    -0.195 NA
ATOM      3  O   UNK A   0     -11.236  16.831  64.368  0.00  0.00    -0.273 OA
ENDROOT
BRANCH   1   7
ATOM      4  C   UNK A   0      -8.227  18.580  67.527  0.00  0.00    +0.000 C 
ATOM      5  C   UNK A   0      -9.457  18.025  68.443  0.00  0.00    +0.000 C 
ATOM      6  C   UNK A   0     -10.419  17.393  67.514  0.00  0.00    +0.009 C 
ATOM      7  C   UNK A   0      -9.794  17.496  66.001  0.00  0.00    +0.078 C 
ATOM      8  C   UNK A   0      -8.620  16.401  66.327  0.00  0.00    +0.009 C 
ATOM      9  C   UNK A   0      -7.655  17.073  67.257  0.00  0.00    +0.000 C 
BRANCH   4  11
ATOM     10  C   UNK A   0      -6.480  19.986  68.574  0.00  0.00    +0.000 C 
ATOM     11  C   UNK A   0      -7.271  18.824  68.822  0.00  0.00    +0.000 C 
ATOM     12  C   UNK A   0      -6.566  17.569  69.145  0.00  0.00    +0.000 C 
ENDBRANCH   4  11
ENDBRANCH   1   7
BRANCH   2  13
ATOM     13  CA  PHE A   1     -11.857  14.214  65.772  0.00  0.00    +0.202 C 
BRANCH  13  14
ATOM     14  C   PHE A   1     -12.303  13.440  64.443  0.00  0.00    +0.385 C 
ATOM     15  OXT PHE A   1     -12.515  13.707  63.231  0.00  0.00    -0.244 OA
ATOM     16  O   PHE A   1     -13.117  12.528  64.830  0.00  0.00    -0.244 OA
ENDBRANCH  13  14
BRANCH  13  17
ATOM     17  CB  PHE A   1     -10.844  13.039  66.345  0.00  0.00    +0.060 C 
BRANCH  17  18
ATOM     18  CG  PHE A   1     -11.053  12.774  67.735  0.00  0.00    -0.020 A 
ATOM     19  CD2 PHE A   1     -11.751  11.704  68.293  0.00  0.00    -0.004 A 
ATOM     20  CE2 PHE A   1     -11.777  11.601  69.683  0.00  0.00    -0.000 A 
ATOM     21  CZ  PHE A   1     -12.146  12.766  70.325  0.00  0.00    -0.000 A 
ATOM     22  CE1 PHE A   1     -11.787  13.965  69.726  0.00  0.00    -0.000 A 
ATOM     23  CD1 PHE A   1     -11.087  13.917  68.537  0.00  0.00    -0.004 A 
ENDBRANCH  17  18
ENDBRANCH  13  17
ENDBRANCH   2  13
TORSDOF 6
ENDMDL
MODEL 5
REMARK VINA RESULT:      -6.6      3.373      6.163
REMARK  Name = 
REMARK  6 active torsions:
REMARK  status: ('A' for Active; 'I' for Inactive)
REMARK    1  A    between atoms: C_2  and  C_4
REMARK    2  A    between atoms: C_7  and  C_8
REMARK    3  A    between atoms: N_10  and  CA_11
REMARK    4  A    between atoms: CA_11  and  CB_12
REMARK    5  A    between atoms: CA_11  and  C_19
REMARK    6  A    between atoms: CB_12  and  CG_13
REMARK                            x       y       z     vdW  Elec       q    Type
REMARK                         _______ _______ _______ _____ _____    ______ ____
ROOT
ATOM      1  C   UNK A   0      -9.889  18.778  66.540  0.00  0.00    +0.241 C 
ATOM      2  N   PHE A   1      -9.781  17.719  65.734  0.00  0.00    -0.195 NA
ATOM      3  O   UNK A   0     -10.874  19.367  66.109  0.00  0.00    -0.273 OA
ENDROOT
BRANCH   1   7
ATOM      4  C   UNK A   0      -6.704  20.851  67.686  0.00  0.00    +0.000 C 
ATOM      5  C   UNK A   0      -7.154  19.724  68.776  0.00  0.00    +0.000 C 
ATOM      6  C   UNK A   0      -8.430  19.157  68.287  0.00  0.00    +0.009 C 
ATOM      7  C   UNK A   0      -8.786  19.882  66.860  0.00  0.00    +0.078 C 
ATOM      8  C   UNK A   0      -7.567  19.117  66.078  0.00  0.00    +0.009 C 
ATOM      9  C   UNK A   0      -6.291  19.720  66.581  0.00  0.00    +0.000 C 
BRANCH   4  11
ATOM     10  C   UNK A   0      -4.363  20.058  67.566  0.00  0.00    +0.000 C 
ATOM     11  C   UNK A   0      -5.198  20.953  68.299  0.00  0.00    +0.000 C 
ATOM     12  C   UNK A   0      -5.262  20.790  69.764  0.00  0.00    +0.000 C 
ENDBRANCH   4  11
ENDBRANCH   1   7
BRANCH   2  13
ATOM     13  CA  PHE A   1     -10.378  16.381  66.320  0.00  0.00    +0.202 C 
BRANCH  13  14
ATOM     14  C   PHE A   1     -11.181  15.772  65.076  0.00  0.00    +0.385 C 
ATOM     15  OXT PHE A   1     -11.304  14.662  64.495  0.00  0.00    -0.244 OA
ATOM     16  O   PHE A   1     -11.255  16.718  64.214  0.00  0.00    -0.244 OA
ENDBRANCH  13  14
BRANCH  13  17
ATOM     17  CB  PHE A   1      -8.978  15.535  66.076  0.00  0.00    +0.060 C 
BRANCH  17  18
ATOM     18  CG  PHE A   1      -8.193  15.431  67.267  0.00  0.00    -0.020 A 
ATOM     19  CD2 PHE A   1      -8.634  15.571  68.582  0.00  0.00    -0.004 A 
ATOM     20  CE2 PHE A   1      -7.707  15.364  69.603  0.00  0.00    -0.000 A 
ATOM     21  CZ  PHE A   1      -6.530  16.068  69.443  0.00  0.00    -0.000 A 
ATOM     22  CE1 PHE A   1      -6.094  16.292  68.145  0.00  0.00    -0.000 A 
ATOM     23  CD1 PHE A   1      -6.856  15.799  67.105  0.00  0.00    -0.004 A 
ENDBRANCH  17  18
ENDBRANCH  13  17
ENDBRANCH   2  13
TORSDOF 6
ENDMDL
MODEL 6
REMARK VINA RESULT:      -6.5      1.410      5.721
REMARK  Name = 
REMARK  6 active torsions:
REMARK  status: ('A' for Active; 'I' for Inactive)
REMARK    1  A    between atoms: C_2  and  C_4
REMARK    2  A    between atoms: C_7  and  C_8
REMARK    3  A    between atoms: N_10  and  CA_11
REMARK    4  A    between atoms: CA_11  and  CB_12
REMARK    5  A    between atoms: CA_11  and  C_19
REMARK    6  A    between atoms: CB_12  and  CG_13
REMARK                            x       y       z     vdW  Elec       q    Type
REMARK                         _______ _______ _______ _____ _____    ______ ____
ROOT
ATOM      1  C   UNK A   0     -10.542  16.254  65.892  0.00  0.00    +0.241 C 
ATOM      2  N   PHE A   1     -10.576  14.932  66.074  0.00  0.00    -0.195 NA
ATOM      3  O   UNK A   0     -10.799  16.386  64.700  0.00  0.00    -0.273 OA
ENDROOT
BRANCH   1   7
ATOM      4  C   UNK A   0      -7.818  18.609  67.563  0.00  0.00    +0.000 C 
ATOM      5  C   UNK A   0      -9.273  18.699  68.297  0.00  0.00    +0.000 C 
ATOM      6  C   UNK A   0     -10.207  17.902  67.472  0.00  0.00    +0.009 C 
ATOM      7  C   UNK A   0      -9.352  17.258  66.229  0.00  0.00    +0.078 C 
ATOM      8  C   UNK A   0      -8.549  16.225  67.214  0.00  0.00    +0.009 C 
ATOM      9  C   UNK A   0      -7.602  17.056  68.025  0.00  0.00    +0.000 C 
BRANCH   4  11
ATOM     10  C   UNK A   0      -6.395  20.422  68.464  0.00  0.00    +0.000 C 
ATOM     11  C   UNK A   0      -7.040  19.213  68.861  0.00  0.00    +0.000 C 
ATOM     12  C   UNK A   0      -6.207  18.154  69.460  0.00  0.00    +0.000 C 
ENDBRANCH   4  11
ENDBRANCH   1   7
BRANCH   2  13
ATOM     13  CA  PHE A   1     -11.926  14.386  66.684  0.00  0.00    +0.202 C 
BRANCH  13  14
ATOM     14  C   PHE A   1     -12.110  12.979  65.944  0.00  0.00    +0.385 C 
ATOM     15  OXT PHE A   1     -11.408  11.972  65.660  0.00  0.00    -0.244 OA
ATOM     16  O   PHE A   1     -12.960  13.187  65.007  0.00  0.00    -0.244 OA
ENDBRANCH  13  14
BRANCH  13  17
ATOM     17  CB  PHE A   1     -11.187  13.794  68.040  0.00  0.00    +0.060 C 
BRANCH  17  18
ATOM     18  CG  PHE A   1     -11.606  14.475  69.227  0.00  0.00    -0.020 A 
ATOM     19  CD2 PHE A   1     -10.902  15.453  69.929  0.00  0.00    -0.004 A 
ATOM     20  CE2 PHE A   1     -11.528  16.036  71.030  0.00  0.00    -0.000 A 
ATOM     21  CZ  PHE A   1     -12.052  15.125  71.925  0.00  0.00    -0.000 A 
ATOM     22  CE1 PHE A   1     -12.530  13.929  71.409  0.00  0.00    -0.000 A 
ATOM     23  CD1 PHE A   1     -12.455  13.729  70.046  0.00  0.00    -0.004 A 
ENDBRANCH  17  18
ENDBRANCH  13  17
ENDBRANCH   2  13
TORSDOF 6
ENDMDL
MODEL 7
REMARK VINA RESULT:      -6.5      2.806      5.389
REMARK  Name = 
REMARK  6 active torsions:
REMARK  status: ('A' for Active; 'I' for Inactive)
REMARK    1  A    between atoms: C_2  and  C_4
REMARK    2  A    between atoms: C_7  and  C_8
REMARK    3  A    between atoms: N_10  and  CA_11
REMARK    4  A    between atoms: CA_11  and  CB_12
REMARK    5  A    between atoms: CA_11  and  C_19
REMARK    6  A    between atoms: CB_12  and  CG_13
REMARK                            x       y       z     vdW  Elec       q    Type
REMARK                         _______ _______ _______ _____ _____    ______ ____
ROOT
ATOM      1  C   UNK A   0     -10.970  12.565  68.681  0.00  0.00    +0.241 C 
ATOM      2  N   PHE A   1     -11.418  13.738  68.229  0.00  0.00    -0.195 NA
ATOM      3  O   UNK A   0     -10.201  12.193  67.801  0.00  0.00    -0.273 OA
ENDROOT
BRANCH   1   7
ATOM      4  C   UNK A   0     -12.583   9.423  70.494  0.00  0.00    +0.000 C 
ATOM      5  C   UNK A   0     -10.958   9.479  70.642  0.00  0.00    +0.000 C 
ATOM      6  C   UNK A   0     -10.499  10.597  69.790  0.00  0.00    +0.009 C 
ATOM      7  C   UNK A   0     -11.825  11.295  69.124  0.00  0.00    +0.078 C 
ATOM      8  C   UNK A   0     -12.309  11.926  70.556  0.00  0.00    +0.009 C 
ATOM      9  C   UNK A   0     -12.781  10.774  71.391  0.00  0.00    +0.000 C 
BRANCH   4  11
ATOM     10  C   UNK A   0     -12.678   7.082  71.292  0.00  0.00    +0.000 C 
ATOM     11  C   UNK A   0     -12.742   8.425  71.771  0.00  0.00    +0.000 C 
ATOM     12  C   UNK A   0     -13.931   8.822  72.548  0.00  0.00    +0.000 C 
ENDBRANCH   4  11
ENDBRANCH   1   7
BRANCH   2  13
ATOM     13  CA  PHE A   1     -10.695  15.000  68.842  0.00  0.00    +0.202 C 
BRANCH  13  14
ATOM     14  C   PHE A   1     -10.397  15.903  67.554  0.00  0.00    +0.385 C 
ATOM     15  OXT PHE A   1     -10.287  17.125  67.273  0.00  0.00    -0.244 OA
ATOM     16  O   PHE A   1     -10.926  15.282  66.564  0.00  0.00    -0.244 OA
ENDBRANCH  13  14
BRANCH  13  17
ATOM     17  CB  PHE A   1     -12.116  15.731  69.263  0.00  0.00    +0.060 C 
BRANCH  17  18
ATOM     18  CG  PHE A   1     -12.362  15.668  70.671  0.00  0.00    -0.020 A 
ATOM     19  CD2 PHE A   1     -11.441  15.369  71.674  0.00  0.00    -0.004 A 
ATOM     20  CE2 PHE A   1     -11.881  15.428  72.996  0.00  0.00    -0.000 A 
ATOM     21  CZ  PHE A   1     -13.049  14.730  73.230  0.00  0.00    -0.000 A 
ATOM     22  CE1 PHE A   1     -13.971  14.666  72.196  0.00  0.00    -0.000 A 
ATOM     23  CD1 PHE A   1     -13.666  15.301  71.009  0.00  0.00    -0.004 A 
ENDBRANCH  17  18
ENDBRANCH  13  17
ENDBRANCH   2  13
TORSDOF 6
ENDMDL
MODEL 8
REMARK VINA RESULT:      -6.4      3.146      4.487
REMARK  Name = 
REMARK  6 active torsions:
REMARK  status: ('A' for Active; 'I' for Inactive)
REMARK    1  A    between atoms: C_2  and  C_4
REMARK    2  A    between atoms: C_7  and  C_8
REMARK    3  A    between atoms: N_10  and  CA_11
REMARK    4  A    between atoms: CA_11  and  CB_12
REMARK    5  A    between atoms: CA_11  and  C_19
REMARK    6  A    between atoms: CB_12  and  CG_13
REMARK                            x       y       z     vdW  Elec       q    Type
REMARK                         _______ _______ _______ _____ _____    ______ ____
ROOT
ATOM      1  C   UNK A   0     -10.319  11.443  66.937  0.00  0.00    +0.241 C 
ATOM      2  N   PHE A   1     -11.412  11.945  66.359  0.00  0.00    -0.195 NA
ATOM      3  O   UNK A   0     -10.001  10.519  66.196  0.00  0.00    -0.273 OA
ENDROOT
BRANCH   1   7
ATOM      4  C   UNK A   0     -10.724   9.850  70.551  0.00  0.00    +0.000 C 
ATOM      5  C   UNK A   0     -12.077  10.600  70.031  0.00  0.00    +0.000 C 
ATOM      6  C   UNK A   0     -11.722  11.271  68.762  0.00  0.00    +0.009 C 
ATOM      7  C   UNK A   0     -10.153  10.922  68.434  0.00  0.00    +0.078 C 
ATOM      8  C   UNK A   0     -10.491   9.357  68.092  0.00  0.00    +0.009 C 
ATOM      9  C   UNK A   0     -10.833   8.700  69.395  0.00  0.00    +0.000 C 
BRANCH   4  11
ATOM     10  C   UNK A   0     -11.452   7.598  71.274  0.00  0.00    +0.000 C 
ATOM     11  C   UNK A   0     -11.542   8.971  71.652  0.00  0.00    +0.000 C 
ATOM     12  C   UNK A   0     -12.887   9.550  71.827  0.00  0.00    +0.000 C 
ENDBRANCH   4  11
ENDBRANCH   1   7
BRANCH   2  13
ATOM     13  CA  PHE A   1     -11.161  13.229  65.477  0.00  0.00    +0.202 C 
BRANCH  13  14
ATOM     14  C   PHE A   1     -12.182  13.032  64.259  0.00  0.00    +0.385 C 
ATOM     15  OXT PHE A   1     -12.523  13.648  63.215  0.00  0.00    -0.244 OA
ATOM     16  O   PHE A   1     -13.200  12.429  64.753  0.00  0.00    -0.244 OA
ENDBRANCH  13  14
BRANCH  13  17
ATOM     17  CB  PHE A   1     -12.149  14.178  66.402  0.00  0.00    +0.060 C 
BRANCH  17  18
ATOM     18  CG  PHE A   1     -11.440  14.829  67.461  0.00  0.00    -0.020 A 
ATOM     19  CD2 PHE A   1     -11.817  14.914  68.800  0.00  0.00    -0.004 A 
ATOM     20  CE2 PHE A   1     -10.939  15.543  69.682  0.00  0.00    -0.000 A 
ATOM     21  CZ  PHE A   1     -10.508  16.783  69.254  0.00  0.00    -0.000 A 
ATOM     22  CE1 PHE A   1     -10.370  16.972  67.887  0.00  0.00    -0.000 A 
ATOM     23  CD1 PHE A   1     -10.668  15.917  67.048  0.00  0.00    -0.004 A 
ENDBRANCH  17  18
ENDBRANCH  13  17
ENDBRANCH   2  13
TORSDOF 6
ENDMDL
MODEL 9
REMARK VINA RESULT:      -6.4      1.438      6.583
REMARK  Name = 
REMARK  6 active torsions:
REMARK  status: ('A' for Active; 'I' for Inactive)
REMARK    1  A    between atoms: C_2  and  C_4
REMARK    2  A    between atoms: C_7  and  C_8
REMARK    3  A    between atoms: N_10  and  CA_11
REMARK    4  A    between atoms: CA_11  and  CB_12
REMARK    5  A    between atoms: CA_11  and  C_19
REMARK    6  A    between atoms: CB_12  and  CG_13
REMARK                            x       y       z     vdW  Elec       q    Type
REMARK                         _______ _______ _______ _____ _____    ______ ____
ROOT
ATOM      1  C   UNK A   0     -10.553  16.436  67.479  0.00  0.00    +0.241 C 
ATOM      2  N   PHE A   1     -10.542  15.116  67.673  0.00  0.00    -0.195 NA
ATOM      3  O   UNK A   0     -10.579  16.546  66.257  0.00  0.00    -0.273 OA
ENDROOT
BRANCH   1   7
ATOM      4  C   UNK A   0      -7.925  19.366  67.997  0.00  0.00    +0.000 C 
ATOM      5  C   UNK A   0      -7.655  18.503  66.639  0.00  0.00    +0.000 C 
ATOM      6  C   UNK A   0      -8.601  17.366  66.671  0.00  0.00    +0.009 C 
ATOM      7  C   UNK A   0      -9.515  17.515  68.025  0.00  0.00    +0.078 C 
ATOM      8  C   UNK A   0     -10.317  18.815  67.435  0.00  0.00    +0.009 C 
ATOM      9  C   UNK A   0      -9.340  19.952  67.428  0.00  0.00    +0.000 C 
BRANCH   4  11
ATOM     10  C   UNK A   0      -6.768  20.412  66.076  0.00  0.00    +0.000 C 
ATOM     11  C   UNK A   0      -7.060  20.635  67.454  0.00  0.00    +0.000 C 
ATOM     12  C   UNK A   0      -5.927  20.872  68.368  0.00  0.00    +0.000 C 
ENDBRANCH   4  11
ENDBRANCH   1   7
BRANCH   2  13
ATOM     13  CA  PHE A   1     -11.950  14.489  68.017  0.00  0.00    +0.202 C 
BRANCH  13  14
ATOM     14  C   PHE A   1     -11.939  13.113  67.199  0.00  0.00    +0.385 C 
ATOM     15  OXT PHE A   1     -11.959  11.878  67.444  0.00  0.00    -0.244 OA
ATOM     16  O   PHE A   1     -11.218  13.331  66.161  0.00  0.00    -0.244 OA
ENDBRANCH  13  14
BRANCH  13  17
ATOM     17  CB  PHE A   1     -11.428  13.861  69.454  0.00  0.00    +0.060 C 
BRANCH  17  18
ATOM     18  CG  PHE A   1     -12.038  14.500  70.579  0.00  0.00    -0.020 A 
ATOM     19  CD2 PHE A   1     -11.440  15.395  71.465  0.00  0.00    -0.004 A 
ATOM     20  CE2 PHE A   1     -12.242  15.954  72.460  0.00  0.00    -0.000 A 
ATOM     21  CZ  PHE A   1     -12.973  15.029  73.177  0.00  0.00    -0.000 A 
ATOM     22  CE1 PHE A   1     -13.397  13.892  72.503  0.00  0.00    -0.000 A 
ATOM     23  CD1 PHE A   1     -13.066  13.762  71.169  0.00  0.00    -0.004 A 
ENDBRANCH  17  18
ENDBRANCH  13  17
ENDBRANCH   2  13
TORSDOF 6
ENDMDL
