MODEL 1
REMARK VINA RESULT:      -8.6      0.000      0.000
REMARK  Name = 
REMARK  2 active torsions:
REMARK  status: ('A' for Active; 'I' for Inactive)
REMARK    1  A    between atoms: C_2  and  O_3
REMARK    2  A    between atoms: O_3  and  C_4
REMARK                            x       y       z     vdW  Elec       q    Type
REMARK                         _______ _______ _______ _____ _____    ______ ____
ROOT
ATOM      1  C   UNL     1     -10.338   8.456  72.345  0.00  0.00    +0.405 C 
ATOM      2  N   UNL     1     -10.923   9.215  71.295  0.00  0.00    -0.245 N 
ATOM      3  C   UNL     1     -10.233   9.166  70.009  0.00  0.00    +0.101 C 
ATOM      4  C   UNL     1     -10.413  10.481  69.263  0.00  0.00    +0.044 C 
ATOM      5  C   UNL     1     -11.615  11.217  69.723  0.00  0.00    -0.039 C 
ATOM      6  C   UNL     1     -11.672  12.516  69.458  0.00  0.00    +0.009 C 
ATOM      7  C   UNL     1     -12.205  13.411  70.493  0.00  0.00    +0.077 A 
ATOM      8  C   UNL     1     -12.343  14.791  70.410  0.00  0.00    -0.004 A 
ATOM      9  C   UNL     1     -13.237  15.353  71.313  0.00  0.00    -0.001 A 
ATOM     10  C   UNL     1     -14.007  14.540  72.136  0.00  0.00    +0.020 A 
ATOM     11  C   UNL     1     -13.733  13.195  72.272  0.00  0.00    +0.099 A 
ATOM     12  C   UNL     1     -12.214  15.716  69.250  0.00  0.00    +0.033 C 
ATOM     13  C   UNL     1     -11.024  15.407  68.383  0.00  0.00    +0.031 C 
ATOM     14  C   UNL     1     -11.285  14.183  67.565  0.00  0.00    -0.021 A 
ATOM     15  C   UNL     1     -11.276  14.426  66.197  0.00  0.00    +0.007 A 
ATOM     16  C   UNL     1     -11.607  13.339  65.400  0.00  0.00    +0.057 A 
ATOM     17 CL   UNL     1     -12.364  13.498  63.837  0.00  0.00    -0.082 Cl
ATOM     18  C   UNL     1     -11.279  12.074  65.870  0.00  0.00    +0.011 A 
ATOM     19  C   UNL     1     -11.185  11.823  67.233  0.00  0.00    +0.001 A 
ATOM     20  N   UNL     1     -12.729  12.702  71.512  0.00  0.00    -0.244 NA
ATOM     21  C   UNL     1     -11.324  12.893  68.082  0.00  0.00    -0.003 A 
ATOM     22  C   UNL     1     -12.770  10.558  70.384  0.00  0.00    +0.044 C 
ATOM     23  C   UNL     1     -12.370   9.380  71.228  0.00  0.00    +0.101 C 
ATOM     24  O   UNL     1      -9.091   8.487  72.516  0.00  0.00    -0.226 OA
ENDROOT
BRANCH   1  25
ATOM     25  O   UNL     1     -11.109   7.741  73.266  0.00  0.00    -0.435 OA
BRANCH  25  27
ATOM     26  C   UNL     1     -11.019   5.354  73.132  0.00  0.00    +0.051 C 
ATOM     27  C   UNL     1     -10.496   6.591  73.836  0.00  0.00    +0.210 C 
ENDBRANCH  25  27
ENDBRANCH   1  25
TORSDOF 2
ENDMDL
MODEL 2
REMARK VINA RESULT:      -7.9      4.324      7.134
REMARK  Name = 
REMARK  2 active torsions:
REMARK  status: ('A' for Active; 'I' for Inactive)
REMARK    1  A    between atoms: C_2  and  O_3
REMARK    2  A    between atoms: O_3  and  C_4
REMARK                            x       y       z     vdW  Elec       q    Type
REMARK                         _______ _______ _______ _____ _____    ______ ____
ROOT
ATOM      1  C   UNL     1     -10.200  16.796  65.731  0.00  0.00    +0.405 C 
ATOM      2  N   UNL     1      -9.959  15.761  66.676  0.00  0.00    -0.245 N 
ATOM      3  C   UNL     1      -9.717  14.433  66.121  0.00  0.00    +0.101 C 
ATOM      4  C   UNL     1     -10.227  13.360  67.075  0.00  0.00    +0.044 C 
ATOM      5  C   UNL     1     -10.317  13.859  68.468  0.00  0.00    -0.039 C 
ATOM      6  C   UNL     1     -11.097  13.187  69.305  0.00  0.00    +0.009 C 
ATOM      7  C   UNL     1     -11.916  13.954  70.253  0.00  0.00    +0.077 A 
ATOM      8  C   UNL     1     -12.793  13.440  71.200  0.00  0.00    -0.004 A 
ATOM      9  C   UNL     1     -13.121  14.307  72.236  0.00  0.00    -0.001 A 
ATOM     10  C   UNL     1     -12.496  15.544  72.340  0.00  0.00    +0.020 A 
ATOM     11  C   UNL     1     -11.741  16.054  71.305  0.00  0.00    +0.099 A 
ATOM     12  C   UNL     1     -13.004  12.046  71.680  0.00  0.00    +0.033 C 
ATOM     13  C   UNL     1     -13.030  11.040  70.562  0.00  0.00    +0.031 C 
ATOM     14  C   UNL     1     -11.648  10.808  70.042  0.00  0.00    -0.021 A 
ATOM     15  C   UNL     1     -11.214   9.498  70.207  0.00  0.00    +0.007 A 
ATOM     16  C   UNL     1      -9.901   9.257  69.826  0.00  0.00    +0.057 A 
ATOM     17 CL   UNL     1      -8.909   8.021  70.552  0.00  0.00    -0.082 Cl
ATOM     18  C   UNL     1      -9.382  10.023  68.790  0.00  0.00    +0.011 A 
ATOM     19  C   UNL     1      -9.864  11.301  68.538  0.00  0.00    +0.001 A 
ATOM     20  N   UNL     1     -11.585  15.259  70.222  0.00  0.00    -0.244 NA
ATOM     21  C   UNL     1     -10.935  11.728  69.282  0.00  0.00    -0.003 A 
ATOM     22  C   UNL     1      -9.523  15.007  68.975  0.00  0.00    +0.044 C 
ATOM     23  C   UNL     1      -9.273  16.056  67.927  0.00  0.00    +0.101 C 
ATOM     24  O   UNL     1     -10.966  16.583  64.756  0.00  0.00    -0.226 OA
ENDROOT
BRANCH   1  25
ATOM     25  O   UNL     1      -9.688  18.087  65.895  0.00  0.00    -0.435 OA
BRANCH  25  27
ATOM     26  C   UNL     1     -10.318  19.698  67.548  0.00  0.00    +0.051 C 
ATOM     27  C   UNL     1     -10.638  19.103  66.191  0.00  0.00    +0.210 C 
ENDBRANCH  25  27
ENDBRANCH   1  25
TORSDOF 2
ENDMDL
MODEL 3
REMARK VINA RESULT:      -7.8      5.338      8.934
REMARK  Name = 
REMARK  2 active torsions:
REMARK  status: ('A' for Active; 'I' for Inactive)
REMARK    1  A    between atoms: C_2  and  O_3
REMARK    2  A    between atoms: O_3  and  C_4
REMARK                            x       y       z     vdW  Elec       q    Type
REMARK                         _______ _______ _______ _____ _____    ______ ____
ROOT
ATOM      1  C   UNL     1      -7.132  18.947  66.203  0.00  0.00    +0.405 C 
ATOM      2  N   UNL     1      -8.301  18.441  66.836  0.00  0.00    -0.245 N 
ATOM      3  C   UNL     1      -8.255  18.365  68.293  0.00  0.00    +0.101 C 
ATOM      4  C   UNL     1      -9.097  17.195  68.787  0.00  0.00    +0.044 C 
ATOM      5  C   UNL     1     -10.129  16.801  67.798  0.00  0.00    -0.039 C 
ATOM      6  C   UNL     1     -10.651  15.587  67.914  0.00  0.00    +0.009 C 
ATOM      7  C   UNL     1     -10.903  14.823  66.686  0.00  0.00    +0.077 A 
ATOM      8  C   UNL     1     -11.438  13.543  66.597  0.00  0.00    -0.004 A 
ATOM      9  C   UNL     1     -11.965  13.206  65.355  0.00  0.00    -0.001 A 
ATOM     10  C   UNL     1     -12.043  14.157  64.345  0.00  0.00    +0.020 A 
ATOM     11  C   UNL     1     -11.379  15.362  64.443  0.00  0.00    +0.099 A 
ATOM     12  C   UNL     1     -12.087  12.683  67.625  0.00  0.00    +0.033 C 
ATOM     13  C   UNL     1     -11.360  12.693  68.941  0.00  0.00    +0.031 C 
ATOM     14  C   UNL     1     -11.603  13.984  69.656  0.00  0.00    -0.021 A 
ATOM     15  C   UNL     1     -12.257  13.822  70.871  0.00  0.00    +0.007 A 
ATOM     16  C   UNL     1     -12.589  15.000  71.526  0.00  0.00    +0.057 A 
ATOM     17 CL   UNL     1     -13.962  15.145  72.591  0.00  0.00    -0.082 Cl
ATOM     18  C   UNL     1     -11.755  16.095  71.341  0.00  0.00    +0.011 A 
ATOM     19  C   UNL     1     -11.012  16.235  70.176  0.00  0.00    +0.001 A 
ATOM     20  N   UNL     1     -10.714  15.593  65.597  0.00  0.00    -0.244 NA
ATOM     21  C   UNL     1     -11.056  15.203  69.272  0.00  0.00    -0.003 A 
ATOM     22  C   UNL     1     -10.650  17.721  66.755  0.00  0.00    +0.044 C 
ATOM     23  C   UNL     1      -9.615  18.692  66.259  0.00  0.00    +0.101 C 
ATOM     24  O   UNL     1      -5.998  18.559  66.585  0.00  0.00    -0.226 OA
ENDROOT
BRANCH   1  25
ATOM     25  O   UNL     1      -7.196  19.799  65.096  0.00  0.00    -0.435 OA
BRANCH  25  27
ATOM     26  C   UNL     1      -5.662  19.620  63.268  0.00  0.00    +0.051 C 
ATOM     27  C   UNL     1      -5.950  20.277  64.603  0.00  0.00    +0.210 C 
ENDBRANCH  25  27
ENDBRANCH   1  25
TORSDOF 2
ENDMDL
MODEL 4
REMARK VINA RESULT:      -7.8      2.147      4.441
REMARK  Name = 
REMARK  2 active torsions:
REMARK  status: ('A' for Active; 'I' for Inactive)
REMARK    1  A    between atoms: C_2  and  O_3
REMARK    2  A    between atoms: O_3  and  C_4
REMARK                            x       y       z     vdW  Elec       q    Type
REMARK                         _______ _______ _______ _____ _____    ______ ____
ROOT
ATOM      1  C   UNL     1     -12.190   7.367  71.203  0.00  0.00    +0.405 C 
ATOM      2  N   UNL     1     -11.664   8.613  70.763  0.00  0.00    -0.245 N 
ATOM      3  C   UNL     1     -12.276   9.804  71.345  0.00  0.00    +0.101 C 
ATOM      4  C   UNL     1     -12.245  10.955  70.346  0.00  0.00    +0.044 C 
ATOM      5  C   UNL     1     -11.183  10.773  69.328  0.00  0.00    -0.039 C 
ATOM      6  C   UNL     1     -11.296  11.465  68.201  0.00  0.00    +0.009 C 
ATOM      7  C   UNL     1     -10.946  10.796  66.942  0.00  0.00    +0.077 A 
ATOM      8  C   UNL     1     -10.999  11.345  65.666  0.00  0.00    -0.004 A 
ATOM      9  C   UNL     1     -10.239  10.687  64.706  0.00  0.00    -0.001 A 
ATOM     10  C   UNL     1      -9.405   9.637  65.070  0.00  0.00    +0.020 A 
ATOM     11  C   UNL     1      -9.493   9.051  66.315  0.00  0.00    +0.099 A 
ATOM     12  C   UNL     1     -11.199  12.750  65.215  0.00  0.00    +0.033 C 
ATOM     13  C   UNL     1     -12.288  13.459  65.972  0.00  0.00    +0.031 C 
ATOM     14  C   UNL     1     -11.817  13.811  67.346  0.00  0.00    -0.021 A 
ATOM     15  C   UNL     1     -11.792  15.181  67.583  0.00  0.00    +0.007 A 
ATOM     16  C   UNL     1     -11.273  15.560  68.812  0.00  0.00    +0.057 A 
ATOM     17 CL   UNL     1     -10.468  17.085  69.078  0.00  0.00    -0.082 Cl
ATOM     18  C   UNL     1     -11.442  14.687  69.879  0.00  0.00    +0.011 A 
ATOM     19  C   UNL     1     -11.568  13.320  69.667  0.00  0.00    +0.001 A 
ATOM     20  N   UNL     1     -10.379   9.598  67.179  0.00  0.00    -0.244 NA
ATOM     21  C   UNL     1     -11.623  12.887  68.367  0.00  0.00    -0.003 A 
ATOM     22  C   UNL     1      -9.982   9.928  69.546  0.00  0.00    +0.044 C 
ATOM     23  C   UNL     1     -10.254   8.733  70.417  0.00  0.00    +0.101 C 
ATOM     24  O   UNL     1     -13.435   7.215  71.302  0.00  0.00    -0.226 OA
ENDROOT
BRANCH   1  25
ATOM     25  O   UNL     1     -11.372   6.258  71.442  0.00  0.00    -0.435 OA
BRANCH  25  27
ATOM     26  C   UNL     1     -10.509   6.823  73.601  0.00  0.00    +0.051 C 
ATOM     27  C   UNL     1     -11.300   5.814  72.792  0.00  0.00    +0.210 C 
ENDBRANCH  25  27
ENDBRANCH   1  25
TORSDOF 2
ENDMDL
MODEL 5
REMARK VINA RESULT:      -7.7      3.995      7.799
REMARK  Name = 
REMARK  2 active torsions:
REMARK  status: ('A' for Active; 'I' for Inactive)
REMARK    1  A    between atoms: C_2  and  O_3
REMARK    2  A    between atoms: O_3  and  C_4
REMARK                            x       y       z     vdW  Elec       q    Type
REMARK                         _______ _______ _______ _____ _____    ______ ____
ROOT
ATOM      1  C   UNL     1     -10.295  16.568  67.811  0.00  0.00    +0.405 C 
ATOM      2  N   UNL     1     -10.959  15.349  68.122  0.00  0.00    -0.245 N 
ATOM      3  C   UNL     1     -11.335  15.165  69.520  0.00  0.00    +0.101 C 
ATOM      4  C   UNL     1     -11.295  13.687  69.888  0.00  0.00    +0.044 C 
ATOM      5  C   UNL     1     -11.431  12.818  68.694  0.00  0.00    -0.039 C 
ATOM      6  C   UNL     1     -11.025  11.560  68.808  0.00  0.00    +0.009 C 
ATOM      7  C   UNL     1     -10.309  10.960  67.676  0.00  0.00    +0.077 A 
ATOM      8  C   UNL     1      -9.803   9.667  67.601  0.00  0.00    -0.004 A 
ATOM      9  C   UNL     1      -9.553   9.202  66.315  0.00  0.00    -0.001 A 
ATOM     10  C   UNL     1      -9.915   9.964  65.211  0.00  0.00    +0.020 A 
ATOM     11  C   UNL     1     -10.285  11.285  65.343  0.00  0.00    +0.099 A 
ATOM     12  C   UNL     1     -10.004   8.489  68.489  0.00  0.00    +0.033 C 
ATOM     13  C   UNL     1      -9.926   8.837  69.950  0.00  0.00    +0.031 C 
ATOM     14  C   UNL     1     -11.166   9.553  70.378  0.00  0.00    -0.021 A 
ATOM     15  C   UNL     1     -11.889   8.868  71.347  0.00  0.00    +0.007 A 
ATOM     16  C   UNL     1     -13.097   9.449  71.707  0.00  0.00    +0.057 A 
ATOM     17 CL   UNL     1     -14.466   8.530  72.275  0.00  0.00    -0.082 Cl
ATOM     18  C   UNL     1     -13.190  10.834  71.638  0.00  0.00    +0.011 A 
ATOM     19  C   UNL     1     -12.408  11.556  70.746  0.00  0.00    +0.001 A 
ATOM     20  N   UNL     1     -10.345  11.774  66.603  0.00  0.00    -0.244 NA
ATOM     21  C   UNL     1     -11.475  10.861  70.018  0.00  0.00    -0.003 A 
ATOM     22  C   UNL     1     -12.066  13.266  67.429  0.00  0.00    +0.044 C 
ATOM     23  C   UNL     1     -11.842  14.725  67.145  0.00  0.00    +0.101 C 
ATOM     24  O   UNL     1      -9.383  16.991  68.568  0.00  0.00    -0.226 OA
ENDROOT
BRANCH   1  25
ATOM     25  O   UNL     1     -10.552  17.275  66.633  0.00  0.00    -0.435 OA
BRANCH  25  27
ATOM     26  C   UNL     1     -10.530  19.662  66.463  0.00  0.00    +0.051 C 
ATOM     27  C   UNL     1      -9.708  18.392  66.378  0.00  0.00    +0.210 C 
ENDBRANCH  25  27
ENDBRANCH   1  25
TORSDOF 2
ENDMDL
MODEL 6
REMARK VINA RESULT:      -7.2      3.924      6.941
REMARK  Name = 
REMARK  2 active torsions:
REMARK  status: ('A' for Active; 'I' for Inactive)
REMARK    1  A    between atoms: C_2  and  O_3
REMARK    2  A    between atoms: O_3  and  C_4
REMARK                            x       y       z     vdW  Elec       q    Type
REMARK                         _______ _______ _______ _____ _____    ______ ____
ROOT
ATOM      1  C   UNL     1     -10.877  12.354  64.714  0.00  0.00    +0.405 C 
ATOM      2  N   UNL     1     -10.479  11.755  65.941  0.00  0.00    -0.245 N 
ATOM      3  C   UNL     1     -10.099  10.347  65.870  0.00  0.00    +0.101 C 
ATOM      4  C   UNL     1     -10.441   9.642  67.176  0.00  0.00    +0.044 C 
ATOM      5  C   UNL     1     -10.541  10.594  68.308  0.00  0.00    -0.039 C 
ATOM      6  C   UNL     1     -11.204  10.191  69.385  0.00  0.00    +0.009 C 
ATOM      7  C   UNL     1     -12.076  11.160  70.062  0.00  0.00    +0.077 A 
ATOM      8  C   UNL     1     -12.850  10.933  71.194  0.00  0.00    -0.004 A 
ATOM      9  C   UNL     1     -13.244  12.076  71.880  0.00  0.00    -0.001 A 
ATOM     10  C   UNL     1     -12.769  13.324  71.496  0.00  0.00    +0.020 A 
ATOM     11  C   UNL     1     -12.119  13.503  70.293  0.00  0.00    +0.099 A 
ATOM     12  C   UNL     1     -12.874   9.789  72.147  0.00  0.00    +0.033 C 
ATOM     13  C   UNL     1     -12.818   8.453  71.459  0.00  0.00    +0.031 C 
ATOM     14  C   UNL     1     -11.438   8.191  70.950  0.00  0.00    -0.021 A 
ATOM     15  C   UNL     1     -10.842   7.077  71.531  0.00  0.00    +0.007 A 
ATOM     16  C   UNL     1      -9.525   6.848  71.160  0.00  0.00    +0.057 A 
ATOM     17 CL   UNL     1      -8.365   6.060  72.197  0.00  0.00    -0.082 Cl
ATOM     18  C   UNL     1      -9.139   7.241  69.885  0.00  0.00    +0.011 A 
ATOM     19  C   UNL     1      -9.780   8.289  69.238  0.00  0.00    +0.001 A 
ATOM     20  N   UNL     1     -11.907  12.394  69.549  0.00  0.00    -0.244 NA
ATOM     21  C   UNL     1     -10.869   8.844  69.863  0.00  0.00    -0.003 A 
ATOM     22  C   UNL     1      -9.875  11.920  68.317  0.00  0.00    +0.044 C 
ATOM     23  C   UNL     1      -9.790  12.545  66.953  0.00  0.00    +0.101 C 
ATOM     24  O   UNL     1     -11.647  11.731  63.937  0.00  0.00    -0.226 OA
ENDROOT
BRANCH   1  25
ATOM     25  O   UNL     1     -10.520  13.662  64.374  0.00  0.00    -0.435 OA
BRANCH  25  27
ATOM     26  C   UNL     1     -10.737  15.827  65.369  0.00  0.00    +0.051 C 
ATOM     27  C   UNL     1     -11.463  14.674  64.706  0.00  0.00    +0.210 C 
ENDBRANCH  25  27
ENDBRANCH   1  25
TORSDOF 2
ENDMDL
MODEL 7
REMARK VINA RESULT:      -7.0      2.883      5.302
REMARK  Name = 
REMARK  2 active torsions:
REMARK  status: ('A' for Active; 'I' for Inactive)
REMARK    1  A    between atoms: C_2  and  O_3
REMARK    2  A    between atoms: O_3  and  C_4
REMARK                            x       y       z     vdW  Elec       q    Type
REMARK                         _______ _______ _______ _____ _____    ______ ____
ROOT
ATOM      1  C   UNL     1     -10.434   6.598  69.488  0.00  0.00    +0.405 C 
ATOM      2  N   UNL     1     -10.233   7.953  69.106  0.00  0.00    -0.245 N 
ATOM      3  C   UNL     1     -11.006   8.946  69.846  0.00  0.00    +0.101 C 
ATOM      4  C   UNL     1     -11.330  10.136  68.952  0.00  0.00    +0.044 C 
ATOM      5  C   UNL     1     -10.379  10.251  67.820  0.00  0.00    -0.039 C 
ATOM      6  C   UNL     1     -10.763  10.972  66.774  0.00  0.00    +0.009 C 
ATOM      7  C   UNL     1     -10.432  10.474  65.433  0.00  0.00    +0.077 A 
ATOM      8  C   UNL     1     -10.746  11.076  64.220  0.00  0.00    -0.004 A 
ATOM      9  C   UNL     1      -9.982  10.659  63.136  0.00  0.00    -0.001 A 
ATOM     10  C   UNL     1      -8.912   9.792  63.324  0.00  0.00    +0.020 A 
ATOM     11  C   UNL     1      -8.732   9.125  64.517  0.00  0.00    +0.099 A 
ATOM     12  C   UNL     1     -11.283  12.431  63.914  0.00  0.00    +0.033 C 
ATOM     13  C   UNL     1     -12.399  12.840  64.834  0.00  0.00    +0.031 C 
ATOM     14  C   UNL     1     -11.856  13.199  66.179  0.00  0.00    -0.021 A 
ATOM     15  C   UNL     1     -12.088  14.525  66.528  0.00  0.00    +0.007 A 
ATOM     16  C   UNL     1     -11.518  14.930  67.727  0.00  0.00    +0.057 A 
ATOM     17 CL   UNL     1     -11.021  16.572  68.041  0.00  0.00    -0.082 Cl
ATOM     18  C   UNL     1     -11.378  13.976  68.727  0.00  0.00    +0.011 A 
ATOM     19  C   UNL     1     -11.242  12.630  68.413  0.00  0.00    +0.001 A 
ATOM     20  N   UNL     1      -9.605   9.413  65.509  0.00  0.00    -0.244 NA
ATOM     21  C   UNL     1     -11.357  12.276  67.092  0.00  0.00    -0.003 A 
ATOM     22  C   UNL     1      -9.012   9.673  67.843  0.00  0.00    +0.044 C 
ATOM     23  C   UNL     1      -8.928   8.396  68.632  0.00  0.00    +0.101 C 
ATOM     24  O   UNL     1     -11.601   6.176  69.698  0.00  0.00    -0.226 OA
ENDROOT
BRANCH   1  25
ATOM     25  O   UNL     1      -9.383   5.679  69.548  0.00  0.00    -0.435 OA
BRANCH  25  27
ATOM     26  C   UNL     1      -9.422   3.448  68.685  0.00  0.00    +0.051 C 
ATOM     27  C   UNL     1      -9.741   4.340  69.868  0.00  0.00    +0.210 C 
ENDBRANCH  25  27
ENDBRANCH   1  25
TORSDOF 2
ENDMDL
MODEL 8
REMARK VINA RESULT:      -7.0      4.749      7.824
REMARK  Name = 
REMARK  2 active torsions:
REMARK  status: ('A' for Active; 'I' for Inactive)
REMARK    1  A    between atoms: C_2  and  O_3
REMARK    2  A    between atoms: O_3  and  C_4
REMARK                            x       y       z     vdW  Elec       q    Type
REMARK                         _______ _______ _______ _____ _____    ______ ____
ROOT
ATOM      1  C   UNL     1      -9.532  17.362  68.360  0.00  0.00    +0.405 C 
ATOM      2  N   UNL     1      -9.892  15.986  68.351  0.00  0.00    -0.245 N 
ATOM      3  C   UNL     1      -9.095  15.111  69.205  0.00  0.00    +0.101 C 
ATOM      4  C   UNL     1      -9.002  13.718  68.595  0.00  0.00    +0.044 C 
ATOM      5  C   UNL     1     -10.120  13.451  67.657  0.00  0.00    -0.039 C 
ATOM      6  C   UNL     1      -9.955  12.471  66.779  0.00  0.00    +0.009 C 
ATOM      7  C   UNL     1     -10.446  12.679  65.411  0.00  0.00    +0.077 A 
ATOM      8  C   UNL     1     -10.367  11.782  64.352  0.00  0.00    -0.004 A 
ATOM      9  C   UNL     1     -11.251  12.020  63.306  0.00  0.00    -0.001 A 
ATOM     10  C   UNL     1     -12.210  13.019  63.412  0.00  0.00    +0.020 A 
ATOM     11  C   UNL     1     -12.155  13.960  64.419  0.00  0.00    +0.099 A 
ATOM     12  C   UNL     1      -9.988  10.342  64.320  0.00  0.00    +0.033 C 
ATOM     13  C   UNL     1      -8.780  10.035  65.161  0.00  0.00    +0.031 C 
ATOM     14  C   UNL     1      -9.140  10.059  66.612  0.00  0.00    -0.021 A 
ATOM     15  C   UNL     1      -8.961   8.833  67.241  0.00  0.00    +0.007 A 
ATOM     16  C   UNL     1      -9.372   8.781  68.566  0.00  0.00    +0.057 A 
ATOM     17 CL   UNL     1      -9.941   7.322  69.332  0.00  0.00    -0.082 Cl
ATOM     18  C   UNL     1      -9.285   9.950  69.312  0.00  0.00    +0.011 A 
ATOM     19  C   UNL     1      -9.363  11.193  68.698  0.00  0.00    +0.001 A 
ATOM     20  N   UNL     1     -11.167  13.814  65.330  0.00  0.00    -0.244 NA
ATOM     21  C   UNL     1      -9.422  11.217  67.327  0.00  0.00    -0.003 A 
ATOM     22  C   UNL     1     -11.418  14.168  67.714  0.00  0.00    +0.044 C 
ATOM     23  C   UNL     1     -11.284  15.594  68.170  0.00  0.00    +0.101 C 
ATOM     24  O   UNL     1      -8.317  17.688  68.310  0.00  0.00    -0.226 OA
ENDROOT
BRANCH   1  25
ATOM     25  O   UNL     1     -10.488  18.381  68.329  0.00  0.00    -0.435 OA
BRANCH  25  27
ATOM     26  C   UNL     1      -9.888  20.443  67.273  0.00  0.00    +0.051 C 
ATOM     27  C   UNL     1     -10.586  19.108  67.110  0.00  0.00    +0.210 C 
ENDBRANCH  25  27
ENDBRANCH   1  25
TORSDOF 2
ENDMDL
MODEL 9
REMARK VINA RESULT:      -7.0      3.853      7.664
REMARK  Name = 
REMARK  2 active torsions:
REMARK  status: ('A' for Active; 'I' for Inactive)
REMARK    1  A    between atoms: C_2  and  O_3
REMARK    2  A    between atoms: O_3  and  C_4
REMARK                            x       y       z     vdW  Elec       q    Type
REMARK                         _______ _______ _______ _____ _____    ______ ____
ROOT
ATOM      1  C   UNL     1     -10.206  14.637  67.056  0.00  0.00    +0.405 C 
ATOM      2  N   UNL     1     -10.762  13.419  67.535  0.00  0.00    -0.245 N 
ATOM      3  C   UNL     1     -11.768  13.546  68.585  0.00  0.00    +0.101 C 
ATOM      4  C   UNL     1     -11.719  12.338  69.512  0.00  0.00    +0.044 C 
ATOM      5  C   UNL     1     -11.109  11.159  68.850  0.00  0.00    -0.039 C 
ATOM      6  C   UNL     1     -10.649  10.192  69.634  0.00  0.00    +0.009 C 
ATOM      7  C   UNL     1      -9.382   9.548  69.267  0.00  0.00    +0.077 A 
ATOM      8  C   UNL     1      -8.738   8.526  69.954  0.00  0.00    -0.004 A 
ATOM      9  C   UNL     1      -7.807   7.808  69.211  0.00  0.00    -0.001 A 
ATOM     10  C   UNL     1      -7.657   8.050  67.852  0.00  0.00    +0.020 A 
ATOM     11  C   UNL     1      -8.219   9.160  67.256  0.00  0.00    +0.099 A 
ATOM     12  C   UNL     1      -9.199   7.663  71.077  0.00  0.00    +0.033 C 
ATOM     13  C   UNL     1      -9.925   8.433  72.146  0.00  0.00    +0.031 C 
ATOM     14  C   UNL     1     -11.294   8.805  71.676  0.00  0.00    -0.021 A 
ATOM     15  C   UNL     1     -12.308   8.242  72.442  0.00  0.00    +0.007 A 
ATOM     16  C   UNL     1     -13.597   8.483  71.987  0.00  0.00    +0.057 A 
ATOM     17 CL   UNL     1     -14.924   7.383  72.256  0.00  0.00    -0.082 Cl
ATOM     18  C   UNL     1     -13.830   9.678  71.318  0.00  0.00    +0.011 A 
ATOM     19  C   UNL     1     -12.811  10.316  70.624  0.00  0.00    +0.001 A 
ATOM     20  N   UNL     1      -8.978   9.952  68.047  0.00  0.00    -0.244 NA
ATOM     21  C   UNL     1     -11.553   9.775  70.714  0.00  0.00    -0.003 A 
ATOM     22  C   UNL     1     -11.065  10.985  67.377  0.00  0.00    +0.044 C 
ATOM     23  C   UNL     1     -10.929  12.286  66.635  0.00  0.00    +0.101 C 
ATOM     24  O   UNL     1      -9.875  15.535  67.874  0.00  0.00    -0.226 OA
ENDROOT
BRANCH   1  25
ATOM     25  O   UNL     1      -9.921  14.844  65.703  0.00  0.00    -0.435 OA
BRANCH  25  27
ATOM     26  C   UNL     1     -12.022  14.896  64.559  0.00  0.00    +0.051 C 
ATOM     27  C   UNL     1     -10.814  15.699  65.000  0.00  0.00    +0.210 C 
ENDBRANCH  25  27
ENDBRANCH   1  25
TORSDOF 2
ENDMDL
