MODEL 1
REMARK VINA RESULT:      -5.0      0.000      0.000
REMARK  Name = 
REMARK  1 active torsions:
REMARK  status: ('A' for Active; 'I' for Inactive)
REMARK    1  A    between atoms: C_5  and  S_6
REMARK                            x       y       z     vdW  Elec       q    Type
REMARK                         _______ _______ _______ _____ _____    ______ ____
ROOT
ATOM      1  N   UNL     1     -12.224  14.143  66.939  0.00  0.00    -0.128 NA
ATOM      2  C   UNL     1     -11.737  14.339  68.272  0.00  0.00    +0.089 A 
ATOM      3  C   UNL     1     -11.689  15.599  68.860  0.00  0.00    +0.019 A 
ATOM      4  C   UNL     1     -12.084  15.755  70.184  0.00  0.00    +0.021 A 
ATOM      5  C   UNL     1     -12.552  14.687  70.941  0.00  0.00    +0.125 A 
ATOM      6  C   UNL     1     -12.175  13.437  70.463  0.00  0.00    +0.021 A 
ATOM      7  C   UNL     1     -11.651  13.291  69.183  0.00  0.00    +0.019 A 
ENDROOT
BRANCH   5   8
ATOM      8  S   UNL     1     -13.906  14.861  72.045  0.00  0.00    +0.093 S 
ATOM      9  O   UNL     1     -14.210  13.513  72.603  0.00  0.00    -0.150 OA
ATOM     10  O   UNL     1     -15.081  15.481  71.344  0.00  0.00    -0.150 OA
ATOM     11  N   UNL     1     -13.421  15.930  73.310  0.00  0.00    +0.039 NA
ENDBRANCH   5   8
TORSDOF 1
ENDMDL
MODEL 2
REMARK VINA RESULT:      -4.8      5.237      6.027
REMARK  Name = 
REMARK  1 active torsions:
REMARK  status: ('A' for Active; 'I' for Inactive)
REMARK    1  A    between atoms: C_5  and  S_6
REMARK                            x       y       z     vdW  Elec       q    Type
REMARK                         _______ _______ _______ _____ _____    ______ ____
ROOT
ATOM      1  N   UNL     1     -13.252  12.293  64.325  0.00  0.00    -0.128 NA
ATOM      2  C   UNL     1     -12.073  12.602  65.080  0.00  0.00    +0.089 A 
ATOM      3  C   UNL     1     -10.855  12.867  64.464  0.00  0.00    +0.019 A 
ATOM      4  C   UNL     1     -10.064  13.913  64.927  0.00  0.00    +0.021 A 
ATOM      5  C   UNL     1     -10.466  14.726  65.980  0.00  0.00    +0.125 A 
ATOM      6  C   UNL     1     -11.436  14.163  66.801  0.00  0.00    +0.021 A 
ATOM      7  C   UNL     1     -12.141  13.031  66.401  0.00  0.00    +0.019 A 
ENDROOT
BRANCH   5   8
ATOM      8  S   UNL     1     -10.192  16.460  65.965  0.00  0.00    +0.093 S 
ATOM      9  O   UNL     1      -8.735  16.686  65.746  0.00  0.00    -0.150 OA
ATOM     10  O   UNL     1     -10.695  17.085  67.235  0.00  0.00    -0.150 OA
ATOM     11  N   UNL     1     -11.098  17.126  64.655  0.00  0.00    +0.039 NA
ENDBRANCH   5   8
TORSDOF 1
ENDMDL
MODEL 3
REMARK VINA RESULT:      -4.7      5.262      5.801
REMARK  Name = 
REMARK  1 active torsions:
REMARK  status: ('A' for Active; 'I' for Inactive)
REMARK    1  A    between atoms: C_5  and  S_6
REMARK                            x       y       z     vdW  Elec       q    Type
REMARK                         _______ _______ _______ _____ _____    ______ ____
ROOT
ATOM      1  N   UNL     1     -13.080  12.802  64.981  0.00  0.00    -0.128 NA
ATOM      2  C   UNL     1     -11.908  13.249  65.673  0.00  0.00    +0.089 A 
ATOM      3  C   UNL     1     -10.714  13.504  65.006  0.00  0.00    +0.019 A 
ATOM      4  C   UNL     1      -9.970  14.633  65.335  0.00  0.00    +0.021 A 
ATOM      5  C   UNL     1     -10.397  15.537  66.301  0.00  0.00    +0.125 A 
ATOM      6  C   UNL     1     -11.324  15.020  67.199  0.00  0.00    +0.021 A 
ATOM      7  C   UNL     1     -11.976  13.818  66.940  0.00  0.00    +0.019 A 
ENDROOT
BRANCH   5   8
ATOM      8  S   UNL     1     -10.212  17.269  66.090  0.00  0.00    +0.093 S 
ATOM      9  O   UNL     1     -11.012  17.668  64.897  0.00  0.00    -0.150 OA
ATOM     10  O   UNL     1      -8.760  17.634  65.967  0.00  0.00    -0.150 OA
ATOM     11  N   UNL     1     -10.832  18.042  67.504  0.00  0.00    +0.039 NA
ENDBRANCH   5   8
TORSDOF 1
ENDMDL
MODEL 4
REMARK VINA RESULT:      -4.7      4.608      6.059
REMARK  Name = 
REMARK  1 active torsions:
REMARK  status: ('A' for Active; 'I' for Inactive)
REMARK    1  A    between atoms: C_5  and  S_6
REMARK                            x       y       z     vdW  Elec       q    Type
REMARK                         _______ _______ _______ _____ _____    ______ ____
ROOT
ATOM      1  N   UNL     1     -11.819  16.292  68.986  0.00  0.00    -0.128 NA
ATOM      2  C   UNL     1     -11.215  15.167  68.336  0.00  0.00    +0.089 A 
ATOM      3  C   UNL     1     -11.792  13.902  68.370  0.00  0.00    +0.019 A 
ATOM      4  C   UNL     1     -11.820  13.128  67.214  0.00  0.00    +0.021 A 
ATOM      5  C   UNL     1     -11.307  13.592  66.008  0.00  0.00    +0.125 A 
ATOM      6  C   UNL     1     -10.391  14.629  66.137  0.00  0.00    +0.021 A 
ATOM      7  C   UNL     1     -10.261  15.323  67.336  0.00  0.00    +0.019 A 
ENDROOT
BRANCH   5   8
ATOM      8  S   UNL     1     -12.117  13.286  64.482  0.00  0.00    +0.093 S 
ATOM      9  O   UNL     1     -12.452  14.605  63.875  0.00  0.00    -0.150 OA
ATOM     10  O   UNL     1     -13.325  12.417  64.690  0.00  0.00    -0.150 OA
ATOM     11  N   UNL     1     -11.019  12.427  63.464  0.00  0.00    +0.039 NA
ENDBRANCH   5   8
TORSDOF 1
ENDMDL
MODEL 5
REMARK VINA RESULT:      -4.7      4.633      5.890
REMARK  Name = 
REMARK  1 active torsions:
REMARK  status: ('A' for Active; 'I' for Inactive)
REMARK    1  A    between atoms: C_5  and  S_6
REMARK                            x       y       z     vdW  Elec       q    Type
REMARK                         _______ _______ _______ _____ _____    ______ ____
ROOT
ATOM      1  N   UNL     1     -12.053  16.066  69.285  0.00  0.00    -0.128 NA
ATOM      2  C   UNL     1     -11.348  15.040  68.577  0.00  0.00    +0.089 A 
ATOM      3  C   UNL     1     -11.819  13.733  68.515  0.00  0.00    +0.019 A 
ATOM      4  C   UNL     1     -11.764  13.038  67.310  0.00  0.00    +0.021 A 
ATOM      5  C   UNL     1     -11.269  13.622  66.149  0.00  0.00    +0.125 A 
ATOM      6  C   UNL     1     -10.444  14.719  66.366  0.00  0.00    +0.021 A 
ATOM      7  C   UNL     1     -10.392  15.339  67.611  0.00  0.00    +0.019 A 
ENDROOT
BRANCH   5   8
ATOM      8  S   UNL     1     -12.025  13.354  64.588  0.00  0.00    +0.093 S 
ATOM      9  O   UNL     1     -13.221  12.491  64.806  0.00  0.00    -0.150 OA
ATOM     10  O   UNL     1     -11.043  12.756  63.621  0.00  0.00    -0.150 OA
ATOM     11  N   UNL     1     -12.509  14.890  63.966  0.00  0.00    +0.039 NA
ENDBRANCH   5   8
TORSDOF 1
ENDMDL
MODEL 6
REMARK VINA RESULT:      -4.6      3.601      4.234
REMARK  Name = 
REMARK  1 active torsions:
REMARK  status: ('A' for Active; 'I' for Inactive)
REMARK    1  A    between atoms: C_5  and  S_6
REMARK                            x       y       z     vdW  Elec       q    Type
REMARK                         _______ _______ _______ _____ _____    ______ ____
ROOT
ATOM      1  N   UNL     1     -12.653  14.797  63.848  0.00  0.00    -0.128 NA
ATOM      2  C   UNL     1     -11.792  14.357  64.905  0.00  0.00    +0.089 A 
ATOM      3  C   UNL     1     -10.518  14.886  65.083  0.00  0.00    +0.019 A 
ATOM      4  C   UNL     1     -10.073  15.191  66.365  0.00  0.00    +0.021 A 
ATOM      5  C   UNL     1     -10.876  15.005  67.484  0.00  0.00    +0.125 A 
ATOM      6  C   UNL     1     -11.918  14.104  67.298  0.00  0.00    +0.021 A 
ATOM      7  C   UNL     1     -12.283  13.688  66.021  0.00  0.00    +0.019 A 
ENDROOT
BRANCH   5   8
ATOM      8  S   UNL     1     -10.912  16.168  68.798  0.00  0.00    +0.093 S 
ATOM      9  O   UNL     1      -9.737  15.898  69.674  0.00  0.00    -0.150 OA
ATOM     10  O   UNL     1     -12.219  16.091  69.536  0.00  0.00    -0.150 OA
ATOM     11  N   UNL     1     -10.788  17.746  68.110  0.00  0.00    +0.039 NA
ENDBRANCH   5   8
TORSDOF 1
ENDMDL
MODEL 7
REMARK VINA RESULT:      -4.5      1.155      1.353
REMARK  Name = 
REMARK  1 active torsions:
REMARK  status: ('A' for Active; 'I' for Inactive)
REMARK    1  A    between atoms: C_5  and  S_6
REMARK                            x       y       z     vdW  Elec       q    Type
REMARK                         _______ _______ _______ _____ _____    ______ ____
ROOT
ATOM      1  N   UNL     1     -11.295  16.875  67.797  0.00  0.00    -0.128 NA
ATOM      2  C   UNL     1     -11.163  15.941  68.877  0.00  0.00    +0.089 A 
ATOM      3  C   UNL     1     -10.806  16.346  70.158  0.00  0.00    +0.019 A 
ATOM      4  C   UNL     1     -11.465  15.805  71.258  0.00  0.00    +0.021 A 
ATOM      5  C   UNL     1     -12.495  14.883  71.116  0.00  0.00    +0.125 A 
ATOM      6  C   UNL     1     -12.504  14.218  69.896  0.00  0.00    +0.021 A 
ATOM      7  C   UNL     1     -11.740  14.677  68.826  0.00  0.00    +0.019 A 
ENDROOT
BRANCH   5   8
ATOM      8  S   UNL     1     -13.930  14.940  72.125  0.00  0.00    +0.093 S 
ATOM      9  O   UNL     1     -14.177  13.563  72.639  0.00  0.00    -0.150 OA
ATOM     10  O   UNL     1     -15.096  15.491  71.353  0.00  0.00    -0.150 OA
ATOM     11  N   UNL     1     -13.611  16.014  73.437  0.00  0.00    +0.039 NA
ENDBRANCH   5   8
TORSDOF 1
ENDMDL
MODEL 8
REMARK VINA RESULT:      -4.5      5.699      6.876
REMARK  Name = 
REMARK  1 active torsions:
REMARK  status: ('A' for Active; 'I' for Inactive)
REMARK    1  A    between atoms: C_5  and  S_6
REMARK                            x       y       z     vdW  Elec       q    Type
REMARK                         _______ _______ _______ _____ _____    ______ ____
ROOT
ATOM      1  N   UNL     1      -7.477  20.531  67.630  0.00  0.00    -0.128 NA
ATOM      2  C   UNL     1      -8.797  19.975  67.686  0.00  0.00    +0.089 A 
ATOM      3  C   UNL     1      -9.710  20.144  66.651  0.00  0.00    +0.019 A 
ATOM      4  C   UNL     1     -10.490  19.068  66.239  0.00  0.00    +0.021 A 
ATOM      5  C   UNL     1     -10.369  17.810  66.818  0.00  0.00    +0.125 A 
ATOM      6  C   UNL     1      -9.788  17.814  68.081  0.00  0.00    +0.021 A 
ATOM      7  C   UNL     1      -9.119  18.938  68.556  0.00  0.00    +0.019 A 
ENDROOT
BRANCH   5   8
ATOM      8  S   UNL     1     -10.432  16.343  65.858  0.00  0.00    +0.093 S 
ATOM      9  O   UNL     1     -11.208  15.330  66.629  0.00  0.00    -0.150 OA
ATOM     10  O   UNL     1      -9.046  15.876  65.514  0.00  0.00    -0.150 OA
ATOM     11  N   UNL     1     -11.245  16.713  64.381  0.00  0.00    +0.039 NA
ENDBRANCH   5   8
TORSDOF 1
ENDMDL
MODEL 9
REMARK VINA RESULT:      -4.5      2.616      3.406
REMARK  Name = 
REMARK  1 active torsions:
REMARK  status: ('A' for Active; 'I' for Inactive)
REMARK    1  A    between atoms: C_5  and  S_6
REMARK                            x       y       z     vdW  Elec       q    Type
REMARK                         _______ _______ _______ _____ _____    ______ ____
ROOT
ATOM      1  N   UNL     1     -10.958  10.151  70.751  0.00  0.00    -0.128 NA
ATOM      2  C   UNL     1     -12.033  11.091  70.632  0.00  0.00    +0.089 A 
ATOM      3  C   UNL     1     -13.039  11.183  71.589  0.00  0.00    +0.019 A 
ATOM      4  C   UNL     1     -13.482  12.435  72.002  0.00  0.00    +0.021 A 
ATOM      5  C   UNL     1     -12.932  13.610  71.503  0.00  0.00    +0.125 A 
ATOM      6  C   UNL     1     -12.276  13.463  70.286  0.00  0.00    +0.021 A 
ATOM      7  C   UNL     1     -11.947  12.202  69.799  0.00  0.00    +0.019 A 
ENDROOT
BRANCH   5   8
ATOM      8  S   UNL     1     -12.622  14.995  72.535  0.00  0.00    +0.093 S 
ATOM      9  O   UNL     1     -11.509  15.775  71.923  0.00  0.00    -0.150 OA
ATOM     10  O   UNL     1     -12.319  14.551  73.938  0.00  0.00    -0.150 OA
ATOM     11  N   UNL     1     -14.059  15.950  72.583  0.00  0.00    +0.039 NA
ENDBRANCH   5   8
TORSDOF 1
ENDMDL
