MODEL 1
REMARK VINA RESULT:      -5.9      0.000      0.000
REMARK  Name = 
REMARK  4 active torsions:
REMARK  status: ('A' for Active; 'I' for Inactive)
REMARK    1  A    between atoms: C_2  and  N_4
REMARK    2  A    between atoms: N_4  and  C_5
REMARK    3  A    between atoms: C_5  and  C_6
REMARK    4  A    between atoms: C_6  and  C_8
REMARK                            x       y       z     vdW  Elec       q    Type
REMARK                         _______ _______ _______ _____ _____    ______ ____
ROOT
ATOM      1  C   UNL     1     -11.130  14.580  66.891  0.00  0.00    +0.015 A 
ATOM      2  C   UNL     1     -10.547  15.462  66.043  0.00  0.00    +0.040 A 
ATOM      3  C   UNL     1     -11.214  15.652  64.834  0.00  0.00    +0.199 A 
ATOM      4  O   UNL     1     -11.342  16.877  64.219  0.00  0.00    -0.286 OA
ATOM      5  C   UNL     1     -12.112  14.676  64.415  0.00  0.00    +0.084 A 
ATOM      6  C   UNL     1     -12.278  13.513  65.156  0.00  0.00    +0.199 A 
ATOM      7  O   UNL     1     -13.217  12.543  64.823  0.00  0.00    -0.286 OA
ATOM      8  C   UNL     1     -11.673  13.421  66.406  0.00  0.00    +0.040 A 
ENDROOT
BRANCH   1   9
ATOM      9  C   UNL     1     -10.565  14.495  68.409  0.00  0.00    +0.192 C 
ATOM     10  O   UNL     1     -11.330  13.192  68.651  0.00  0.00    -0.217 OA
BRANCH   9  11
ATOM     11  C   UNL     1     -11.815  15.406  69.017  0.00  0.00    +0.126 C 
BRANCH  11  12
ATOM     12  N   UNL     1     -12.312  14.664  70.139  0.00  0.00    -0.216 NA
BRANCH  12  14
ATOM     13  C   UNL     1     -14.277  15.140  71.520  0.00  0.00    +0.019 C 
ATOM     14  C   UNL     1     -12.932  15.436  71.155  0.00  0.00    +0.073 C 
ATOM     15  C   UNL     1     -12.038  16.074  72.142  0.00  0.00    +0.019 C 
ENDBRANCH  12  14
ENDBRANCH  11  12
ENDBRANCH   9  11
ENDBRANCH   1   9
TORSDOF 4
ENDMDL
MODEL 2
REMARK VINA RESULT:      -5.8      2.665      6.320
REMARK  Name = 
REMARK  4 active torsions:
REMARK  status: ('A' for Active; 'I' for Inactive)
REMARK    1  A    between atoms: C_2  and  N_4
REMARK    2  A    between atoms: N_4  and  C_5
REMARK    3  A    between atoms: C_5  and  C_6
REMARK    4  A    between atoms: C_6  and  C_8
REMARK                            x       y       z     vdW  Elec       q    Type
REMARK                         _______ _______ _______ _____ _____    ______ ____
ROOT
ATOM      1  C   UNL     1     -12.107  15.680  71.048  0.00  0.00    +0.015 A 
ATOM      2  C   UNL     1     -13.252  15.024  70.742  0.00  0.00    +0.040 A 
ATOM      3  C   UNL     1     -14.321  15.264  71.604  0.00  0.00    +0.199 A 
ATOM      4  O   UNL     1     -15.624  15.408  71.181  0.00  0.00    -0.286 OA
ATOM      5  C   UNL     1     -14.047  15.762  72.873  0.00  0.00    +0.084 A 
ATOM      6  C   UNL     1     -12.733  15.944  73.284  0.00  0.00    +0.199 A 
ATOM      7  O   UNL     1     -12.406  16.510  74.512  0.00  0.00    -0.286 OA
ATOM      8  C   UNL     1     -11.710  15.793  72.353  0.00  0.00    +0.040 A 
ENDROOT
BRANCH   1   9
ATOM      9  C   UNL     1     -10.904  15.658  69.960  0.00  0.00    +0.192 C 
ATOM     10  O   UNL     1     -11.662  16.639  69.061  0.00  0.00    -0.217 OA
BRANCH   9  11
ATOM     11  C   UNL     1     -11.537  14.348  69.158  0.00  0.00    +0.126 C 
BRANCH  11  12
ATOM     12  N   UNL     1     -11.395  14.653  67.764  0.00  0.00    -0.216 NA
BRANCH  12  14
ATOM     13  C   UNL     1     -11.660  12.254  67.354  0.00  0.00    +0.019 C 
ATOM     14  C   UNL     1     -11.705  13.594  66.872  0.00  0.00    +0.073 C 
ATOM     15  C   UNL     1     -12.580  13.923  65.729  0.00  0.00    +0.019 C 
ENDBRANCH  12  14
ENDBRANCH  11  12
ENDBRANCH   9  11
ENDBRANCH   1   9
TORSDOF 4
ENDMDL
MODEL 3
REMARK VINA RESULT:      -5.7      1.849      2.773
REMARK  Name = 
REMARK  4 active torsions:
REMARK  status: ('A' for Active; 'I' for Inactive)
REMARK    1  A    between atoms: C_2  and  N_4
REMARK    2  A    between atoms: N_4  and  C_5
REMARK    3  A    between atoms: C_5  and  C_6
REMARK    4  A    between atoms: C_6  and  C_8
REMARK                            x       y       z     vdW  Elec       q    Type
REMARK                         _______ _______ _______ _____ _____    ______ ____
ROOT
ATOM      1  C   UNL     1     -11.335  14.612  66.794  0.00  0.00    +0.015 A 
ATOM      2  C   UNL     1     -10.735  15.459  65.923  0.00  0.00    +0.040 A 
ATOM      3  C   UNL     1     -11.345  15.554  64.673  0.00  0.00    +0.199 A 
ATOM      4  O   UNL     1     -11.478  16.735  63.977  0.00  0.00    -0.286 OA
ATOM      5  C   UNL     1     -12.191  14.526  64.272  0.00  0.00    +0.084 A 
ATOM      6  C   UNL     1     -12.361  13.406  65.075  0.00  0.00    +0.199 A 
ATOM      7  O   UNL     1     -13.252  12.386  64.756  0.00  0.00    -0.286 OA
ATOM      8  C   UNL     1     -11.818  13.409  66.356  0.00  0.00    +0.040 A 
ENDROOT
BRANCH   1   9
ATOM      9  C   UNL     1     -10.846  14.638  68.341  0.00  0.00    +0.192 C 
ATOM     10  O   UNL     1     -12.151  13.978  68.794  0.00  0.00    -0.217 OA
BRANCH   9  11
ATOM     11  C   UNL     1     -11.462  16.159  68.600  0.00  0.00    +0.126 C 
BRANCH  11  12
ATOM     12  N   UNL     1     -10.441  16.863  69.320  0.00  0.00    -0.216 NA
BRANCH  12  14
ATOM     13  C   UNL     1      -8.339  17.546  68.268  0.00  0.00    +0.019 C 
ATOM     14  C   UNL     1      -9.706  17.814  68.566  0.00  0.00    +0.073 C 
ATOM     15  C   UNL     1     -10.483  18.696  67.673  0.00  0.00    +0.019 C 
ENDBRANCH  12  14
ENDBRANCH  11  12
ENDBRANCH   9  11
ENDBRANCH   1   9
TORSDOF 4
ENDMDL
MODEL 4
REMARK VINA RESULT:      -5.5      2.604      6.074
REMARK  Name = 
REMARK  4 active torsions:
REMARK  status: ('A' for Active; 'I' for Inactive)
REMARK    1  A    between atoms: C_2  and  N_4
REMARK    2  A    between atoms: N_4  and  C_5
REMARK    3  A    between atoms: C_5  and  C_6
REMARK    4  A    between atoms: C_6  and  C_8
REMARK                            x       y       z     vdW  Elec       q    Type
REMARK                         _______ _______ _______ _____ _____    ______ ____
ROOT
ATOM      1  C   UNL     1     -11.599  15.299  71.109  0.00  0.00    +0.015 A 
ATOM      2  C   UNL     1     -12.047  16.278  71.932  0.00  0.00    +0.040 A 
ATOM      3  C   UNL     1     -12.654  15.835  73.105  0.00  0.00    +0.199 A 
ATOM      4  O   UNL     1     -12.485  16.444  74.329  0.00  0.00    -0.286 OA
ATOM      5  C   UNL     1     -13.130  14.529  73.149  0.00  0.00    +0.084 A 
ATOM      6  C   UNL     1     -13.060  13.720  72.022  0.00  0.00    +0.199 A 
ATOM      7  O   UNL     1     -13.451  12.385  72.035  0.00  0.00    -0.286 OA
ATOM      8  C   UNL     1     -12.350  14.172  70.914  0.00  0.00    +0.040 A 
ENDROOT
BRANCH   1   9
ATOM      9  C   UNL     1     -10.659  15.727  69.858  0.00  0.00    +0.192 C 
ATOM     10  O   UNL     1     -11.852  16.366  69.143  0.00  0.00    -0.217 OA
BRANCH   9  11
ATOM     11  C   UNL     1     -10.894  14.281  69.075  0.00  0.00    +0.126 C 
BRANCH  11  12
ATOM     12  N   UNL     1     -11.124  14.627  67.702  0.00  0.00    -0.216 NA
BRANCH  12  14
ATOM     13  C   UNL     1     -11.660  12.255  67.414  0.00  0.00    +0.019 C 
ATOM     14  C   UNL     1     -11.601  13.574  66.879  0.00  0.00    +0.073 C 
ATOM     15  C   UNL     1     -12.514  13.952  65.782  0.00  0.00    +0.019 C 
ENDBRANCH  12  14
ENDBRANCH  11  12
ENDBRANCH   9  11
ENDBRANCH   1   9
TORSDOF 4
ENDMDL
MODEL 5
REMARK VINA RESULT:      -5.5      2.736      3.705
REMARK  Name = 
REMARK  4 active torsions:
REMARK  status: ('A' for Active; 'I' for Inactive)
REMARK    1  A    between atoms: C_2  and  N_4
REMARK    2  A    between atoms: N_4  and  C_5
REMARK    3  A    between atoms: C_5  and  C_6
REMARK    4  A    between atoms: C_6  and  C_8
REMARK                            x       y       z     vdW  Elec       q    Type
REMARK                         _______ _______ _______ _____ _____    ______ ____
ROOT
ATOM      1  C   UNL     1     -10.834  15.293  67.079  0.00  0.00    +0.015 A 
ATOM      2  C   UNL     1     -10.462  16.002  65.985  0.00  0.00    +0.040 A 
ATOM      3  C   UNL     1     -11.149  15.689  64.814  0.00  0.00    +0.199 A 
ATOM      4  O   UNL     1     -11.549  16.628  63.890  0.00  0.00    -0.286 OA
ATOM      5  C   UNL     1     -11.801  14.463  64.738  0.00  0.00    +0.084 A 
ATOM      6  C   UNL     1     -11.703  13.553  65.783  0.00  0.00    +0.199 A 
ATOM      7  O   UNL     1     -12.397  12.347  65.792  0.00  0.00    -0.286 OA
ATOM      8  C   UNL     1     -11.098  13.955  66.970  0.00  0.00    +0.040 A 
ENDROOT
BRANCH   1   9
ATOM      9  C   UNL     1     -10.271  15.771  68.523  0.00  0.00    +0.192 C 
ATOM     10  O   UNL     1     -11.471  16.702  68.714  0.00  0.00    -0.217 OA
BRANCH   9  11
ATOM     11  C   UNL     1      -9.361  16.993  67.860  0.00  0.00    +0.126 C 
BRANCH  11  12
ATOM     12  N   UNL     1      -9.788  18.188  68.527  0.00  0.00    -0.216 NA
BRANCH  12  14
ATOM     13  C   UNL     1      -8.276  19.929  67.704  0.00  0.00    +0.019 C 
ATOM     14  C   UNL     1      -9.593  19.394  67.806  0.00  0.00    +0.073 C 
ATOM     15  C   UNL     1     -10.585  19.709  66.758  0.00  0.00    +0.019 C 
ENDBRANCH  12  14
ENDBRANCH  11  12
ENDBRANCH   9  11
ENDBRANCH   1   9
TORSDOF 4
ENDMDL
MODEL 6
REMARK VINA RESULT:      -5.5      2.157      2.524
REMARK  Name = 
REMARK  4 active torsions:
REMARK  status: ('A' for Active; 'I' for Inactive)
REMARK    1  A    between atoms: C_2  and  N_4
REMARK    2  A    between atoms: N_4  and  C_5
REMARK    3  A    between atoms: C_5  and  C_6
REMARK    4  A    between atoms: C_6  and  C_8
REMARK                            x       y       z     vdW  Elec       q    Type
REMARK                         _______ _______ _______ _____ _____    ______ ____
ROOT
ATOM      1  C   UNL     1     -11.500  14.445  66.930  0.00  0.00    +0.015 A 
ATOM      2  C   UNL     1     -10.789  15.326  66.185  0.00  0.00    +0.040 A 
ATOM      3  C   UNL     1     -11.264  15.526  64.890  0.00  0.00    +0.199 A 
ATOM      4  O   UNL     1     -11.288  16.755  64.268  0.00  0.00    -0.286 OA
ATOM      5  C   UNL     1     -12.096  14.560  64.335  0.00  0.00    +0.084 A 
ATOM      6  C   UNL     1     -12.381  13.396  65.037  0.00  0.00    +0.199 A 
ATOM      7  O   UNL     1     -13.266  12.434  64.561  0.00  0.00    -0.286 OA
ATOM      8  C   UNL     1     -11.972  13.293  66.363  0.00  0.00    +0.040 A 
ENDROOT
BRANCH   1   9
ATOM      9  C   UNL     1     -11.171  14.350  68.516  0.00  0.00    +0.192 C 
ATOM     10  O   UNL     1      -9.769  13.810  68.221  0.00  0.00    -0.217 OA
BRANCH   9  11
ATOM     11  C   UNL     1     -11.795  12.815  68.641  0.00  0.00    +0.126 C 
BRANCH  11  12
ATOM     12  N   UNL     1     -12.000  12.603  70.044  0.00  0.00    -0.216 NA
BRANCH  12  14
ATOM     13  C   UNL     1     -12.934  10.801  71.414  0.00  0.00    +0.019 C 
ATOM     14  C   UNL     1     -11.967  11.250  70.469  0.00  0.00    +0.073 C 
ATOM     15  C   UNL     1     -11.359  10.277  69.539  0.00  0.00    +0.019 C 
ENDBRANCH  12  14
ENDBRANCH  11  12
ENDBRANCH   9  11
ENDBRANCH   1   9
TORSDOF 4
ENDMDL
MODEL 7
REMARK VINA RESULT:      -5.5      1.491      2.049
REMARK  Name = 
REMARK  4 active torsions:
REMARK  status: ('A' for Active; 'I' for Inactive)
REMARK    1  A    between atoms: C_2  and  N_4
REMARK    2  A    between atoms: N_4  and  C_5
REMARK    3  A    between atoms: C_5  and  C_6
REMARK    4  A    between atoms: C_6  and  C_8
REMARK                            x       y       z     vdW  Elec       q    Type
REMARK                         _______ _______ _______ _____ _____    ______ ____
ROOT
ATOM      1  C   UNL     1     -11.688  14.701  67.849  0.00  0.00    +0.015 A 
ATOM      2  C   UNL     1     -11.475  14.998  66.544  0.00  0.00    +0.040 A 
ATOM      3  C   UNL     1     -11.891  14.023  65.639  0.00  0.00    +0.199 A 
ATOM      4  O   UNL     1     -12.496  14.308  64.435  0.00  0.00    -0.286 OA
ATOM      5  C   UNL     1     -12.069  12.724  66.103  0.00  0.00    +0.084 A 
ATOM      6  C   UNL     1     -11.768  12.405  67.421  0.00  0.00    +0.199 A 
ATOM      7  O   UNL     1     -11.999  11.142  67.955  0.00  0.00    -0.286 OA
ATOM      8  C   UNL     1     -11.461  13.432  68.308  0.00  0.00    +0.040 A 
ENDROOT
BRANCH   1   9
ATOM      9  C   UNL     1     -11.472  15.880  68.943  0.00  0.00    +0.192 C 
ATOM     10  O   UNL     1     -10.136  15.272  69.376  0.00  0.00    -0.217 OA
BRANCH   9  11
ATOM     11  C   UNL     1     -12.295  15.051  70.125  0.00  0.00    +0.126 C 
BRANCH  11  12
ATOM     12  N   UNL     1     -12.227  15.887  71.289  0.00  0.00    -0.216 NA
BRANCH  12  14
ATOM     13  C   UNL     1     -14.494  15.145  71.844  0.00  0.00    +0.019 C 
ATOM     14  C   UNL     1     -13.232  15.658  72.264  0.00  0.00    +0.073 C 
ATOM     15  C   UNL     1     -12.773  15.408  73.645  0.00  0.00    +0.019 C 
ENDBRANCH  12  14
ENDBRANCH  11  12
ENDBRANCH   9  11
ENDBRANCH   1   9
TORSDOF 4
ENDMDL
MODEL 8
REMARK VINA RESULT:      -5.3      3.105      5.911
REMARK  Name = 
REMARK  4 active torsions:
REMARK  status: ('A' for Active; 'I' for Inactive)
REMARK    1  A    between atoms: C_2  and  N_4
REMARK    2  A    between atoms: N_4  and  C_5
REMARK    3  A    between atoms: C_5  and  C_6
REMARK    4  A    between atoms: C_6  and  C_8
REMARK                            x       y       z     vdW  Elec       q    Type
REMARK                         _______ _______ _______ _____ _____    ______ ____
ROOT
ATOM      1  C   UNL     1     -12.545  14.464  70.079  0.00  0.00    +0.015 A 
ATOM      2  C   UNL     1     -12.185  13.282  70.638  0.00  0.00    +0.040 A 
ATOM      3  C   UNL     1     -12.986  12.859  71.697  0.00  0.00    +0.199 A 
ATOM      4  O   UNL     1     -13.356  11.548  71.897  0.00  0.00    -0.286 OA
ATOM      5  C   UNL     1     -13.763  13.805  72.356  0.00  0.00    +0.084 A 
ATOM      6  C   UNL     1     -13.681  15.146  72.005  0.00  0.00    +0.199 A 
ATOM      7  O   UNL     1     -14.490  16.121  72.579  0.00  0.00    -0.286 OA
ATOM      8  C   UNL     1     -12.951  15.501  70.874  0.00  0.00    +0.040 A 
ENDROOT
BRANCH   1   9
ATOM      9  C   UNL     1     -11.830  14.897  68.689  0.00  0.00    +0.192 C 
ATOM     10  O   UNL     1     -10.638  13.983  68.985  0.00  0.00    -0.217 OA
BRANCH   9  11
ATOM     11  C   UNL     1     -11.072  16.202  69.386  0.00  0.00    +0.126 C 
BRANCH  11  12
ATOM     12  N   UNL     1     -11.133  17.244  68.403  0.00  0.00    -0.216 NA
BRANCH  12  14
ATOM     13  C   UNL     1      -9.860  19.242  67.786  0.00  0.00    +0.019 C 
ATOM     14  C   UNL     1      -9.892  17.847  68.075  0.00  0.00    +0.073 C 
ATOM     15  C   UNL     1      -8.676  17.188  68.591  0.00  0.00    +0.019 C 
ENDBRANCH  12  14
ENDBRANCH  11  12
ENDBRANCH   9  11
ENDBRANCH   1   9
TORSDOF 4
ENDMDL
MODEL 9
REMARK VINA RESULT:      -5.3      2.299      3.271
REMARK  Name = 
REMARK  4 active torsions:
REMARK  status: ('A' for Active; 'I' for Inactive)
REMARK    1  A    between atoms: C_2  and  N_4
REMARK    2  A    between atoms: N_4  and  C_5
REMARK    3  A    between atoms: C_5  and  C_6
REMARK    4  A    between atoms: C_6  and  C_8
REMARK                            x       y       z     vdW  Elec       q    Type
REMARK                         _______ _______ _______ _____ _____    ______ ____
ROOT
ATOM      1  C   UNL     1     -10.622  16.484  68.120  0.00  0.00    +0.015 A 
ATOM      2  C   UNL     1      -9.961  17.565  68.602  0.00  0.00    +0.040 A 
ATOM      3  C   UNL     1     -10.052  18.713  67.817  0.00  0.00    +0.199 A 
ATOM      4  O   UNL     1     -10.192  19.981  68.335  0.00  0.00    -0.286 OA
ATOM      5  C   UNL     1     -10.405  18.572  66.479  0.00  0.00    +0.084 A 
ATOM      6  C   UNL     1     -10.590  17.309  65.934  0.00  0.00    +0.199 A 
ATOM      7  O   UNL     1     -11.017  17.115  64.624  0.00  0.00    -0.286 OA
ATOM      8  C   UNL     1     -10.594  16.205  66.781  0.00  0.00    +0.040 A 
ENDROOT
BRANCH   1   9
ATOM      9  C   UNL     1     -10.781  15.194  69.091  0.00  0.00    +0.192 C 
ATOM     10  O   UNL     1     -11.713  14.516  68.084  0.00  0.00    -0.217 OA
BRANCH   9  11
ATOM     11  C   UNL     1     -12.064  15.861  69.911  0.00  0.00    +0.126 C 
BRANCH  11  12
ATOM     12  N   UNL     1     -11.686  15.832  71.294  0.00  0.00    -0.216 NA
BRANCH  12  14
ATOM     13  C   UNL     1     -12.466  15.477  73.587  0.00  0.00    +0.019 C 
ATOM     14  C   UNL     1     -12.666  15.324  72.184  0.00  0.00    +0.073 C 
ATOM     15  C   UNL     1     -14.040  15.199  71.658  0.00  0.00    +0.019 C 
ENDBRANCH  12  14
ENDBRANCH  11  12
ENDBRANCH   9  11
ENDBRANCH   1   9
TORSDOF 4
ENDMDL
