MODEL 1
REMARK VINA RESULT:      -6.4      0.000      0.000
REMARK  Name = 
REMARK  5 active torsions:
REMARK  status: ('A' for Active; 'I' for Inactive)
REMARK    1  A    between atoms: C_2  and  C_3
REMARK    2  A    between atoms: C_3  and  C_4
REMARK    3  A    between atoms: C_4  and  N_5
REMARK    4  A    between atoms: C_10  and  C_11
REMARK    5  A    between atoms: N_13  and  C_14
REMARK                            x       y       z     vdW  Elec       q    Type
REMARK                         _______ _______ _______ _____ _____    ______ ____
ROOT
ATOM      1  C   UNL     1     -10.407  13.753  68.131  0.00  0.00    +0.260 C 
ATOM      2  N   UNL     1     -11.591  13.321  68.756  0.00  0.00    -0.179 NA
ATOM      3  O   UNL     1      -9.643  12.799  68.481  0.00  0.00    -0.272 OA
ENDROOT
BRANCH   2   4
ATOM      4  C   UNL     1     -12.029  13.495  70.025  0.00  0.00    +0.065 A 
ATOM      5  C   UNL     1     -12.481  12.308  70.615  0.00  0.00    -0.007 A 
ATOM      6  C   UNL     1     -12.015  10.969  70.134  0.00  0.00    +0.032 C 
ATOM      7  C   UNL     1     -13.120  12.292  71.824  0.00  0.00    -0.003 A 
ATOM      8  C   UNL     1     -13.509  13.459  72.427  0.00  0.00    -0.001 A 
ATOM      9  C   UNL     1     -12.865  14.604  72.016  0.00  0.00    -0.003 A 
ATOM     10  C   UNL     1     -12.210  14.601  70.789  0.00  0.00    -0.007 A 
ATOM     11  C   UNL     1     -12.027  15.905  70.166  0.00  0.00    +0.032 C 
ENDBRANCH   2   4
BRANCH   1  13
ATOM     12  N   UNL     1     -11.032  15.172  66.443  0.00  0.00    -0.267 NA
ATOM     13  C   UNL     1     -10.383  13.736  66.515  0.00  0.00    +0.137 C 
ATOM     14  C   UNL     1     -11.837  12.982  66.422  0.00  0.00    +0.025 C 
ATOM     15  C   UNL     1     -12.662  13.627  65.402  0.00  0.00    +0.003 C 
ATOM     16  C   UNL     1     -11.975  14.455  64.378  0.00  0.00    +0.017 C 
ATOM     17  C   UNL     1     -11.092  15.479  65.019  0.00  0.00    +0.072 C 
BRANCH  12  18
ATOM     18  C   UNL     1      -9.998  16.070  66.955  0.00  0.00    +0.072 C 
BRANCH  18  19
ATOM     19  C   UNL     1     -10.232  17.390  66.286  0.00  0.00    +0.017 C 
BRANCH  19  21
ATOM     20  C   UNL     1     -10.577  19.122  67.264  0.00  0.00    +0.000 C 
ATOM     21  C   UNL     1     -10.474  18.406  67.394  0.00  0.00    +0.001 C 
ENDBRANCH  19  21
ENDBRANCH  18  19
ENDBRANCH  12  18
ENDBRANCH   1  13
TORSDOF 5
ENDMDL
MODEL 2
REMARK VINA RESULT:      -5.8      0.978      1.020
REMARK  Name = 
REMARK  5 active torsions:
REMARK  status: ('A' for Active; 'I' for Inactive)
REMARK    1  A    between atoms: C_2  and  C_3
REMARK    2  A    between atoms: C_3  and  C_4
REMARK    3  A    between atoms: C_4  and  N_5
REMARK    4  A    between atoms: C_10  and  C_11
REMARK    5  A    between atoms: N_13  and  C_14
REMARK                            x       y       z     vdW  Elec       q    Type
REMARK                         _______ _______ _______ _____ _____    ______ ____
ROOT
ATOM      1  C   UNL     1     -10.333  12.818  68.120  0.00  0.00    +0.260 C 
ATOM      2  N   UNL     1     -11.525  12.366  68.714  0.00  0.00    -0.179 NA
ATOM      3  O   UNL     1      -9.536  11.948  68.594  0.00  0.00    -0.272 OA
ENDROOT
BRANCH   2   4
ATOM      4  C   UNL     1     -12.049  12.619  69.936  0.00  0.00    +0.065 A 
ATOM      5  C   UNL     1     -12.442  11.459  70.614  0.00  0.00    -0.007 A 
ATOM      6  C   UNL     1     -11.849  10.123  70.288  0.00  0.00    +0.032 C 
ATOM      7  C   UNL     1     -13.148  11.501  71.785  0.00  0.00    -0.003 A 
ATOM      8  C   UNL     1     -13.660  12.683  72.252  0.00  0.00    -0.001 A 
ATOM      9  C   UNL     1     -13.082  13.834  71.767  0.00  0.00    -0.003 A 
ATOM     10  C   UNL     1     -12.357  13.773  70.581  0.00  0.00    -0.007 A 
ATOM     11  C   UNL     1     -12.238  15.024  69.846  0.00  0.00    +0.032 C 
ENDBRANCH   2   4
BRANCH   1  13
ATOM     12  N   UNL     1     -10.782  14.116  66.286  0.00  0.00    -0.267 NA
ATOM     13  C   UNL     1     -10.210  12.665  66.516  0.00  0.00    +0.137 C 
ATOM     14  C   UNL     1     -11.691  11.970  66.388  0.00  0.00    +0.025 C 
ATOM     15  C   UNL     1     -12.419  12.563  65.268  0.00  0.00    +0.003 C 
ATOM     16  C   UNL     1     -11.629  13.272  64.227  0.00  0.00    +0.017 C 
ATOM     17  C   UNL     1     -10.738  14.306  64.840  0.00  0.00    +0.072 C 
BRANCH  12  18
ATOM     18  C   UNL     1      -9.738  15.009  66.790  0.00  0.00    +0.072 C 
BRANCH  18  19
ATOM     19  C   UNL     1     -10.056  16.365  66.241  0.00  0.00    +0.017 C 
BRANCH  19  21
ATOM     20  C   UNL     1      -9.919  17.889  67.558  0.00  0.00    +0.000 C 
ATOM     21  C   UNL     1     -10.303  17.275  67.437  0.00  0.00    +0.001 C 
ENDBRANCH  19  21
ENDBRANCH  18  19
ENDBRANCH  12  18
ENDBRANCH   1  13
TORSDOF 5
ENDMDL
MODEL 3
REMARK VINA RESULT:      -5.7      2.089      5.616
REMARK  Name = 
REMARK  5 active torsions:
REMARK  status: ('A' for Active; 'I' for Inactive)
REMARK    1  A    between atoms: C_2  and  C_3
REMARK    2  A    between atoms: C_3  and  C_4
REMARK    3  A    between atoms: C_4  and  N_5
REMARK    4  A    between atoms: C_10  and  C_11
REMARK    5  A    between atoms: N_13  and  C_14
REMARK                            x       y       z     vdW  Elec       q    Type
REMARK                         _______ _______ _______ _____ _____    ______ ____
ROOT
ATOM      1  C   UNL     1     -10.132  14.176  67.492  0.00  0.00    +0.260 C 
ATOM      2  N   UNL     1      -9.742  13.935  66.162  0.00  0.00    -0.179 NA
ATOM      3  O   UNL     1      -9.684  13.111  68.022  0.00  0.00    -0.272 OA
ENDROOT
BRANCH   2   4
ATOM      4  C   UNL     1     -10.358  13.239  65.178  0.00  0.00    +0.065 A 
ATOM      5  C   UNL     1     -11.407  13.947  64.581  0.00  0.00    -0.007 A 
ATOM      6  C   UNL     1     -11.466  15.442  64.623  0.00  0.00    +0.032 C 
ATOM      7  C   UNL     1     -12.265  13.365  63.688  0.00  0.00    -0.003 A 
ATOM      8  C   UNL     1     -12.245  12.012  63.477  0.00  0.00    -0.001 A 
ATOM      9  C   UNL     1     -11.090  11.353  63.834  0.00  0.00    -0.003 A 
ATOM     10  C   UNL     1     -10.222  11.963  64.734  0.00  0.00    -0.007 A 
ATOM     11  C   UNL     1      -9.347  11.066  65.476  0.00  0.00    +0.032 C 
ENDBRANCH   2   4
BRANCH   1  13
ATOM     12  N   UNL     1     -10.594  16.355  68.029  0.00  0.00    -0.267 NA
ATOM     13  C   UNL     1      -9.380  15.377  68.270  0.00  0.00    +0.137 C 
ATOM     14  C   UNL     1      -8.602  15.875  66.914  0.00  0.00    +0.025 C 
ATOM     15  C   UNL     1      -8.673  17.331  66.812  0.00  0.00    +0.003 C 
ATOM     16  C   UNL     1      -8.972  18.098  68.049  0.00  0.00    +0.017 C 
ATOM     17  C   UNL     1     -10.214  17.589  68.709  0.00  0.00    +0.072 C 
BRANCH  12  18
ATOM     18  C   UNL     1     -11.673  15.815  68.856  0.00  0.00    +0.072 C 
BRANCH  18  19
ATOM     19  C   UNL     1     -11.334  16.183  70.267  0.00  0.00    +0.017 C 
BRANCH  19  21
ATOM     20  C   UNL     1     -13.081  15.469  70.984  0.00  0.00    +0.000 C 
ATOM     21  C   UNL     1     -12.368  15.506  71.157  0.00  0.00    +0.001 C 
ENDBRANCH  19  21
ENDBRANCH  18  19
ENDBRANCH  12  18
ENDBRANCH   1  13
TORSDOF 5
ENDMDL
MODEL 4
REMARK VINA RESULT:      -5.7      2.648      6.797
REMARK  Name = 
REMARK  5 active torsions:
REMARK  status: ('A' for Active; 'I' for Inactive)
REMARK    1  A    between atoms: C_2  and  C_3
REMARK    2  A    between atoms: C_3  and  C_4
REMARK    3  A    between atoms: C_4  and  N_5
REMARK    4  A    between atoms: C_10  and  C_11
REMARK    5  A    between atoms: N_13  and  C_14
REMARK                            x       y       z     vdW  Elec       q    Type
REMARK                         _______ _______ _______ _____ _____    ______ ____
ROOT
ATOM      1  C   UNL     1     -12.179  10.783  69.574  0.00  0.00    +0.260 C 
ATOM      2  N   UNL     1     -11.471  11.957  69.886  0.00  0.00    -0.179 NA
ATOM      3  O   UNL     1     -12.286  10.948  68.317  0.00  0.00    -0.272 OA
ENDROOT
BRANCH   2   4
ATOM      4  C   UNL     1     -11.915  13.212  70.134  0.00  0.00    +0.065 A 
ATOM      5  C   UNL     1     -11.251  14.186  69.381  0.00  0.00    -0.007 A 
ATOM      6  C   UNL     1     -10.569  13.849  68.091  0.00  0.00    +0.032 C 
ATOM      7  C   UNL     1     -11.426  15.525  69.602  0.00  0.00    -0.003 A 
ATOM      8  C   UNL     1     -12.123  15.969  70.694  0.00  0.00    -0.001 A 
ATOM      9  C   UNL     1     -12.982  15.067  71.280  0.00  0.00    -0.003 A 
ATOM     10  C   UNL     1     -12.798  13.710  71.036  0.00  0.00    -0.007 A 
ATOM     11  C   UNL     1     -13.334  12.807  72.045  0.00  0.00    +0.032 C 
ENDBRANCH   2   4
BRANCH   1  13
ATOM     12  N   UNL     1     -11.315   9.561  71.310  0.00  0.00    -0.267 NA
ATOM     13  C   UNL     1     -11.389   9.383  69.744  0.00  0.00    +0.137 C 
ATOM     14  C   UNL     1      -9.926  10.089  69.511  0.00  0.00    +0.025 C 
ATOM     15  C   UNL     1      -8.975   9.592  70.504  0.00  0.00    +0.003 C 
ATOM     16  C   UNL     1      -9.293   8.311  71.186  0.00  0.00    +0.017 C 
ATOM     17  C   UNL     1     -10.662   8.349  71.789  0.00  0.00    +0.072 C 
BRANCH  12  18
ATOM     18  C   UNL     1     -12.698   9.419  71.763  0.00  0.00    +0.072 C 
BRANCH  18  19
ATOM     19  C   UNL     1     -13.037   7.969  71.601  0.00  0.00    +0.017 C 
BRANCH  19  21
ATOM     20  C   UNL     1     -14.931   7.341  71.907  0.00  0.00    +0.000 C 
ATOM     21  C   UNL     1     -14.557   7.876  71.570  0.00  0.00    +0.001 C 
ENDBRANCH  19  21
ENDBRANCH  18  19
ENDBRANCH  12  18
ENDBRANCH   1  13
TORSDOF 5
ENDMDL
MODEL 5
REMARK VINA RESULT:      -5.6      2.470      4.807
REMARK  Name = 
REMARK  5 active torsions:
REMARK  status: ('A' for Active; 'I' for Inactive)
REMARK    1  A    between atoms: C_2  and  C_3
REMARK    2  A    between atoms: C_3  and  C_4
REMARK    3  A    between atoms: C_4  and  N_5
REMARK    4  A    between atoms: C_10  and  C_11
REMARK    5  A    between atoms: N_13  and  C_14
REMARK                            x       y       z     vdW  Elec       q    Type
REMARK                         _______ _______ _______ _____ _____    ______ ____
ROOT
ATOM      1  C   UNL     1     -10.671  16.420  67.919  0.00  0.00    +0.260 C 
ATOM      2  N   UNL     1     -10.617  15.069  67.530  0.00  0.00    -0.179 NA
ATOM      3  O   UNL     1     -11.698  16.366  68.667  0.00  0.00    -0.272 OA
ENDROOT
BRANCH   2   4
ATOM      4  C   UNL     1     -11.255  14.416  66.531  0.00  0.00    +0.065 A 
ATOM      5  C   UNL     1     -11.555  13.087  66.849  0.00  0.00    -0.007 A 
ATOM      6  C   UNL     1     -11.674  12.631  68.270  0.00  0.00    +0.032 C 
ATOM      7  C   UNL     1     -12.043  12.206  65.922  0.00  0.00    -0.003 A 
ATOM      8  C   UNL     1     -12.086  12.539  64.595  0.00  0.00    -0.001 A 
ATOM      9  C   UNL     1     -12.051  13.884  64.299  0.00  0.00    -0.003 A 
ATOM     10  C   UNL     1     -11.564  14.768  65.256  0.00  0.00    -0.007 A 
ATOM     11  C   UNL     1     -11.049  16.031  64.747  0.00  0.00    +0.032 C 
ENDBRANCH   2   4
BRANCH   1  13
ATOM     12  N   UNL     1      -8.459  16.969  67.680  0.00  0.00    -0.267 NA
ATOM     13  C   UNL     1      -9.484  16.954  68.878  0.00  0.00    +0.137 C 
ATOM     14  C   UNL     1      -9.060  15.435  69.332  0.00  0.00    +0.025 C 
ATOM     15  C   UNL     1      -7.605  15.298  69.295  0.00  0.00    +0.003 C 
ATOM     16  C   UNL     1      -6.791  16.541  69.325  0.00  0.00    +0.017 C 
ATOM     17  C   UNL     1      -7.225  17.494  68.256  0.00  0.00    +0.072 C 
BRANCH  12  18
ATOM     18  C   UNL     1      -8.926  18.045  66.807  0.00  0.00    +0.072 C 
BRANCH  18  19
ATOM     19  C   UNL     1      -8.521  19.323  67.476  0.00  0.00    +0.017 C 
BRANCH  19  21
ATOM     20  C   UNL     1     -10.341  20.092  67.063  0.00  0.00    +0.000 C 
ATOM     21  C   UNL     1      -9.673  20.301  67.286  0.00  0.00    +0.001 C 
ENDBRANCH  19  21
ENDBRANCH  18  19
ENDBRANCH  12  18
ENDBRANCH   1  13
TORSDOF 5
ENDMDL
MODEL 6
REMARK VINA RESULT:      -5.6      2.565      5.010
REMARK  Name = 
REMARK  5 active torsions:
REMARK  status: ('A' for Active; 'I' for Inactive)
REMARK    1  A    between atoms: C_2  and  C_3
REMARK    2  A    between atoms: C_3  and  C_4
REMARK    3  A    between atoms: C_4  and  N_5
REMARK    4  A    between atoms: C_10  and  C_11
REMARK    5  A    between atoms: N_13  and  C_14
REMARK                            x       y       z     vdW  Elec       q    Type
REMARK                         _______ _______ _______ _____ _____    ______ ____
ROOT
ATOM      1  C   UNL     1     -11.366  12.970  67.695  0.00  0.00    +0.260 C 
ATOM      2  N   UNL     1     -10.288  12.105  67.952  0.00  0.00    -0.179 NA
ATOM      3  O   UNL     1     -11.953  12.890  68.821  0.00  0.00    -0.272 OA
ENDROOT
BRANCH   2   4
ATOM      4  C   UNL     1     -10.199  10.758  67.851  0.00  0.00    +0.065 A 
ATOM      5  C   UNL     1      -9.971  10.321  66.541  0.00  0.00    -0.007 A 
ATOM      6  C   UNL     1      -9.348  11.215  65.515  0.00  0.00    +0.032 C 
ATOM      7  C   UNL     1     -10.019   8.998  66.194  0.00  0.00    -0.003 A 
ATOM      8  C   UNL     1     -10.473   8.057  67.080  0.00  0.00    -0.001 A 
ATOM      9  C   UNL     1     -10.450   8.408  68.411  0.00  0.00    -0.003 A 
ATOM     10  C   UNL     1     -10.389   9.757  68.747  0.00  0.00    -0.007 A 
ATOM     11  C   UNL     1     -10.897  10.103  70.068  0.00  0.00    +0.032 C 
ENDBRANCH   2   4
BRANCH   1  13
ATOM     12  N   UNL     1     -10.896  14.383  65.953  0.00  0.00    -0.267 NA
ATOM     13  C   UNL     1     -11.020  14.539  67.518  0.00  0.00    +0.137 C 
ATOM     14  C   UNL     1      -9.415  14.294  67.754  0.00  0.00    +0.025 C 
ATOM     15  C   UNL     1      -8.650  15.043  66.759  0.00  0.00    +0.003 C 
ATOM     16  C   UNL     1      -9.329  16.172  66.071  0.00  0.00    +0.017 C 
ATOM     17  C   UNL     1     -10.626  15.732  65.468  0.00  0.00    +0.072 C 
BRANCH  12  18
ATOM     18  C   UNL     1     -12.260  14.112  65.500  0.00  0.00    +0.072 C 
BRANCH  18  19
ATOM     19  C   UNL     1     -12.149  13.764  64.048  0.00  0.00    +0.017 C 
BRANCH  19  21
ATOM     20  C   UNL     1     -12.304  11.874  63.353  0.00  0.00    +0.000 C 
ATOM     21  C   UNL     1     -12.511  12.290  63.923  0.00  0.00    +0.001 C 
ENDBRANCH  19  21
ENDBRANCH  18  19
ENDBRANCH  12  18
ENDBRANCH   1  13
TORSDOF 5
ENDMDL
MODEL 7
REMARK VINA RESULT:      -5.6      2.833      6.084
REMARK  Name = 
REMARK  5 active torsions:
REMARK  status: ('A' for Active; 'I' for Inactive)
REMARK    1  A    between atoms: C_2  and  C_3
REMARK    2  A    between atoms: C_3  and  C_4
REMARK    3  A    between atoms: C_4  and  N_5
REMARK    4  A    between atoms: C_10  and  C_11
REMARK    5  A    between atoms: N_13  and  C_14
REMARK                            x       y       z     vdW  Elec       q    Type
REMARK                         _______ _______ _______ _____ _____    ______ ____
ROOT
ATOM      1  C   UNL     1     -10.539  16.918  68.726  0.00  0.00    +0.260 C 
ATOM      2  N   UNL     1      -9.358  16.807  67.970  0.00  0.00    -0.179 NA
ATOM      3  O   UNL     1     -11.067  17.903  68.119  0.00  0.00    -0.272 OA
ENDROOT
BRANCH   2   4
ATOM      4  C   UNL     1      -8.175  17.456  68.087  0.00  0.00    +0.065 A 
ATOM      5  C   UNL     1      -7.313  16.859  69.015  0.00  0.00    -0.007 A 
ATOM      6  C   UNL     1      -7.443  15.414  69.386  0.00  0.00    +0.032 C 
ATOM      7  C   UNL     1      -6.143  17.448  69.408  0.00  0.00    -0.003 A 
ATOM      8  C   UNL     1      -5.852  18.737  69.048  0.00  0.00    -0.001 A 
ATOM      9  C   UNL     1      -6.529  19.236  67.958  0.00  0.00    -0.003 A 
ATOM     10  C   UNL     1      -7.711  18.618  67.563  0.00  0.00    -0.007 A 
ATOM     11  C   UNL     1      -8.636  19.448  66.804  0.00  0.00    +0.032 C 
ENDBRANCH   2   4
BRANCH   1  13
ATOM     12  N   UNL     1     -11.126  15.061  69.934  0.00  0.00    -0.267 NA
ATOM     13  C   UNL     1     -11.613  15.718  68.586  0.00  0.00    +0.137 C 
ATOM     14  C   UNL     1     -10.596  14.807  67.676  0.00  0.00    +0.025 C 
ATOM     15  C   UNL     1     -10.618  13.424  68.148  0.00  0.00    +0.003 C 
ATOM     16  C   UNL     1     -11.783  12.989  68.963  0.00  0.00    +0.017 C 
ATOM     17  C   UNL     1     -12.002  13.910  70.121  0.00  0.00    +0.072 C 
BRANCH  12  18
ATOM     18  C   UNL     1     -11.547  15.998  70.975  0.00  0.00    +0.072 C 
BRANCH  18  19
ATOM     19  C   UNL     1     -11.652  15.194  72.234  0.00  0.00    +0.017 C 
BRANCH  19  21
ATOM     20  C   UNL     1     -12.667  15.775  73.879  0.00  0.00    +0.000 C 
ATOM     21  C   UNL     1     -12.480  16.017  73.211  0.00  0.00    +0.001 C 
ENDBRANCH  19  21
ENDBRANCH  18  19
ENDBRANCH  12  18
ENDBRANCH   1  13
TORSDOF 5
ENDMDL
MODEL 8
REMARK VINA RESULT:      -5.5      2.165      4.277
REMARK  Name = 
REMARK  5 active torsions:
REMARK  status: ('A' for Active; 'I' for Inactive)
REMARK    1  A    between atoms: C_2  and  C_3
REMARK    2  A    between atoms: C_3  and  C_4
REMARK    3  A    between atoms: C_4  and  N_5
REMARK    4  A    between atoms: C_10  and  C_11
REMARK    5  A    between atoms: N_13  and  C_14
REMARK                            x       y       z     vdW  Elec       q    Type
REMARK                         _______ _______ _______ _____ _____    ______ ____
ROOT
ATOM      1  C   UNL     1     -11.278  11.979  68.283  0.00  0.00    +0.260 C 
ATOM      2  N   UNL     1     -11.486  11.397  69.546  0.00  0.00    -0.179 NA
ATOM      3  O   UNL     1     -12.062  11.247  67.600  0.00  0.00    -0.272 OA
ENDROOT
BRANCH   2   4
ATOM      4  C   UNL     1     -10.908  10.318  70.123  0.00  0.00    +0.065 A 
ATOM      5  C   UNL     1     -11.684   9.763  71.147  0.00  0.00    -0.007 A 
ATOM      6  C   UNL     1     -13.166   9.971  71.206  0.00  0.00    +0.032 C 
ATOM      7  C   UNL     1     -11.211   8.777  71.969  0.00  0.00    -0.003 A 
ATOM      8  C   UNL     1      -9.890   8.416  71.942  0.00  0.00    -0.001 A 
ATOM      9  C   UNL     1      -9.190   8.742  70.803  0.00  0.00    -0.003 A 
ATOM     10  C   UNL     1      -9.690   9.739  69.971  0.00  0.00    -0.007 A 
ATOM     11  C   UNL     1      -8.710  10.409  69.127  0.00  0.00    +0.032 C 
ENDBRANCH   2   4
BRANCH   1  13
ATOM     12  N   UNL     1     -10.360  14.072  68.121  0.00  0.00    -0.267 NA
ATOM     13  C   UNL     1     -11.823  13.485  68.070  0.00  0.00    +0.137 C 
ATOM     14  C   UNL     1     -12.060  13.711  69.678  0.00  0.00    +0.025 C 
ATOM     15  C   UNL     1     -11.550  15.024  70.071  0.00  0.00    +0.003 C 
ATOM     16  C   UNL     1     -11.364  16.042  69.005  0.00  0.00    +0.017 C 
ATOM     17  C   UNL     1     -10.527  15.502  67.887  0.00  0.00    +0.072 C 
BRANCH  12  18
ATOM     18  C   UNL     1      -9.725  13.587  66.896  0.00  0.00    +0.072 C 
BRANCH  18  19
ATOM     19  C   UNL     1     -10.134  14.540  65.815  0.00  0.00    +0.017 C 
BRANCH  19  21
ATOM     20  C   UNL     1     -10.477  12.964  64.601  0.00  0.00    +0.000 C 
ATOM     21  C   UNL     1     -10.561  13.694  64.623  0.00  0.00    +0.001 C 
ENDBRANCH  19  21
ENDBRANCH  18  19
ENDBRANCH  12  18
ENDBRANCH   1  13
TORSDOF 5
ENDMDL
MODEL 9
REMARK VINA RESULT:      -5.5      1.303      2.256
REMARK  Name = 
REMARK  5 active torsions:
REMARK  status: ('A' for Active; 'I' for Inactive)
REMARK    1  A    between atoms: C_2  and  C_3
REMARK    2  A    between atoms: C_3  and  C_4
REMARK    3  A    between atoms: C_4  and  N_5
REMARK    4  A    between atoms: C_10  and  C_11
REMARK    5  A    between atoms: N_13  and  C_14
REMARK                            x       y       z     vdW  Elec       q    Type
REMARK                         _______ _______ _______ _____ _____    ______ ____
ROOT
ATOM      1  C   UNL     1     -10.577  13.037  68.418  0.00  0.00    +0.260 C 
ATOM      2  N   UNL     1     -11.847  13.351  68.931  0.00  0.00    -0.179 NA
ATOM      3  O   UNL     1     -10.438  11.882  68.931  0.00  0.00    -0.272 OA
ENDROOT
BRANCH   2   4
ATOM      4  C   UNL     1     -12.207  13.886  70.121  0.00  0.00    +0.065 A 
ATOM      5  C   UNL     1     -11.884  15.244  70.231  0.00  0.00    -0.007 A 
ATOM      6  C   UNL     1     -11.702  16.105  69.020  0.00  0.00    +0.032 C 
ATOM      7  C   UNL     1     -12.005  15.930  71.409  0.00  0.00    -0.003 A 
ATOM      8  C   UNL     1     -12.275  15.272  72.579  0.00  0.00    -0.001 A 
ATOM      9  C   UNL     1     -12.841  14.022  72.461  0.00  0.00    -0.003 A 
ATOM     10  C   UNL     1     -12.720  13.342  71.254  0.00  0.00    -0.007 A 
ATOM     11  C   UNL     1     -12.833  11.892  71.330  0.00  0.00    +0.032 C 
ENDBRANCH   2   4
BRANCH   1  13
ATOM     12  N   UNL     1     -10.325  14.347  66.554  0.00  0.00    -0.267 NA
ATOM     13  C   UNL     1     -10.469  12.800  66.823  0.00  0.00    +0.137 C 
ATOM     14  C   UNL     1     -12.098  12.832  66.627  0.00  0.00    +0.025 C 
ATOM     15  C   UNL     1     -12.439  13.655  65.468  0.00  0.00    +0.003 C 
ATOM     16  C   UNL     1     -11.374  13.909  64.462  0.00  0.00    +0.017 C 
ATOM     17  C   UNL     1     -10.142  14.456  65.111  0.00  0.00    +0.072 C 
BRANCH  12  18
ATOM     18  C   UNL     1      -9.015  14.696  67.102  0.00  0.00    +0.072 C 
BRANCH  18  19
ATOM     19  C   UNL     1      -8.548  15.889  66.326  0.00  0.00    +0.017 C 
BRANCH  19  21
ATOM     20  C   UNL     1      -8.079  17.662  67.170  0.00  0.00    +0.000 C 
ATOM     21  C   UNL     1      -8.446  17.042  67.316  0.00  0.00    +0.001 C 
ENDBRANCH  19  21
ENDBRANCH  18  19
ENDBRANCH  12  18
ENDBRANCH   1  13
TORSDOF 5
ENDMDL
