MODEL 1
REMARK VINA RESULT:      -7.3      0.000      0.000
REMARK  Name = 
REMARK  0 active torsions:
REMARK  status: ('A' for Active; 'I' for Inactive)
REMARK                            x       y       z     vdW  Elec       q    Type
REMARK                         _______ _______ _______ _____ _____    ______ ____
ROOT
ATOM      1  C   UNL     1     -11.752  11.683  69.728  0.00  0.00    +0.090 C 
ATOM      2  N   UNL     1     -11.036  12.657  68.860  0.00  0.00    -0.272 NA
ATOM      3  C   UNL     1     -10.590  11.662  67.722  0.00  0.00    +0.062 C 
ATOM      4  C   UNL     1     -11.630  12.229  66.477  0.00  0.00    +0.023 C 
ATOM      5  C   UNL     1     -11.050  13.652  66.223  0.00  0.00    +0.068 C 
ATOM      6  C   UNL     1     -12.044  14.378  65.160  0.00  0.00    +0.226 C 
ATOM      7  O   UNL     1     -10.947  15.366  64.675  0.00  0.00    -0.469 OA
ATOM      8  C   UNL     1      -9.950  15.357  65.628  0.00  0.00    +0.173 A 
ATOM      9  C   UNL     1      -8.945  16.246  66.039  0.00  0.00    +0.229 A 
ATOM     10  C   UNL     1      -7.956  15.773  66.909  0.00  0.00    +0.045 A 
ATOM     11  C   UNL     1      -7.892  14.422  67.267  0.00  0.00    -0.001 A 
ATOM     12  C   UNL     1      -9.001  13.628  66.999  0.00  0.00    -0.022 A 
ATOM     13  O   UNL     1      -9.380  17.586  66.186  0.00  0.00    -0.283 OA
ATOM     14  C   UNL     1     -11.768  13.352  63.926  0.00  0.00    +0.191 C 
ATOM     15  O   UNL     1     -12.675  13.619  63.122  0.00  0.00    -0.292 OA
ATOM     16  C   UNL     1     -11.649  11.940  64.174  0.00  0.00    +0.068 C 
ATOM     17  C   UNL     1      -9.785  13.987  65.897  0.00  0.00    +0.014 A 
ATOM     18  C   UNL     1     -11.569  14.422  67.423  0.00  0.00    +0.025 C 
ATOM     19  C   UNL     1     -10.762  11.493  65.302  0.00  0.00    +0.010 C 
ATOM     20  C   UNL     1      -9.203  12.392  67.398  0.00  0.00    +0.042 C 
ATOM     21  C   UNL     1     -11.970  13.541  68.494  0.00  0.00    +0.073 C 
ENDROOT
TORSDOF 0
ENDMDL
MODEL 2
REMARK VINA RESULT:      -6.9      1.518      2.157
REMARK  Name = 
REMARK  0 active torsions:
REMARK  status: ('A' for Active; 'I' for Inactive)
REMARK                            x       y       z     vdW  Elec       q    Type
REMARK                         _______ _______ _______ _____ _____    ______ ____
ROOT
ATOM      1  C   UNL     1     -12.431  13.870  70.195  0.00  0.00    +0.090 C 
ATOM      2  N   UNL     1     -11.215  14.243  69.423  0.00  0.00    -0.272 NA
ATOM      3  C   UNL     1     -11.456  13.327  68.164  0.00  0.00    +0.062 C 
ATOM      4  C   UNL     1     -11.825  14.561  67.027  0.00  0.00    +0.023 C 
ATOM      5  C   UNL     1     -10.456  15.295  66.920  0.00  0.00    +0.068 C 
ATOM      6  C   UNL     1     -10.698  16.600  65.982  0.00  0.00    +0.226 C 
ATOM      7  O   UNL     1      -9.200  16.697  65.579  0.00  0.00    -0.469 OA
ATOM      8  C   UNL     1      -8.490  15.945  66.491  0.00  0.00    +0.173 A 
ATOM      9  C   UNL     1      -7.171  15.928  66.970  0.00  0.00    +0.229 A 
ATOM     10  C   UNL     1      -6.761  14.838  67.747  0.00  0.00    +0.045 A 
ATOM     11  C   UNL     1      -7.597  13.733  67.944  0.00  0.00    -0.001 A 
ATOM     12  C   UNL     1      -8.942  13.874  67.622  0.00  0.00    -0.022 A 
ATOM     13  O   UNL     1      -6.651  17.207  67.285  0.00  0.00    -0.283 OA
ATOM     14  C   UNL     1     -11.083  15.780  64.629  0.00  0.00    +0.191 C 
ATOM     15  O   UNL     1     -11.566  16.654  63.891  0.00  0.00    -0.292 OA
ATOM     16  C   UNL     1     -11.911  14.606  64.708  0.00  0.00    +0.068 C 
ATOM     17  C   UNL     1      -9.257  14.770  66.595  0.00  0.00    +0.014 A 
ATOM     18  C   UNL     1     -10.419  16.081  68.218  0.00  0.00    +0.025 C 
ATOM     19  C   UNL     1     -11.575  13.573  65.748  0.00  0.00    +0.010 C 
ATOM     20  C   UNL     1      -9.909  13.024  67.881  0.00  0.00    +0.042 C 
ATOM     21  C   UNL     1     -11.344  15.553  69.193  0.00  0.00    +0.073 C 
ENDROOT
TORSDOF 0
ENDMDL
MODEL 3
REMARK VINA RESULT:      -6.7      2.189      4.173
REMARK  Name = 
REMARK  0 active torsions:
REMARK  status: ('A' for Active; 'I' for Inactive)
REMARK                            x       y       z     vdW  Elec       q    Type
REMARK                         _______ _______ _______ _____ _____    ______ ____
ROOT
ATOM      1  C   UNL     1      -7.999  16.497  66.579  0.00  0.00    +0.090 C 
ATOM      2  N   UNL     1      -8.978  15.547  67.175  0.00  0.00    -0.272 NA
ATOM      3  C   UNL     1     -10.238  15.954  66.322  0.00  0.00    +0.062 C 
ATOM      4  C   UNL     1     -10.354  14.536  65.359  0.00  0.00    +0.023 C 
ATOM      5  C   UNL     1     -10.736  13.473  66.432  0.00  0.00    +0.068 C 
ATOM      6  C   UNL     1     -10.729  12.030  65.682  0.00  0.00    +0.226 C 
ATOM      7  O   UNL     1     -11.688  11.387  66.722  0.00  0.00    -0.469 OA
ATOM      8  C   UNL     1     -11.678  12.201  67.834  0.00  0.00    +0.173 A 
ATOM      9  C   UNL     1     -11.940  12.036  69.203  0.00  0.00    +0.229 A 
ATOM     10  C   UNL     1     -12.047  13.181  70.001  0.00  0.00    +0.045 A 
ATOM     11  C   UNL     1     -12.017  14.462  69.438  0.00  0.00    -0.001 A 
ATOM     12  C   UNL     1     -11.568  14.583  68.128  0.00  0.00    -0.022 A 
ATOM     13  O   UNL     1     -11.355  10.878  69.771  0.00  0.00    -0.283 OA
ATOM     14  C   UNL     1     -11.949  12.357  64.653  0.00  0.00    +0.191 C 
ATOM     15  O   UNL     1     -11.877  11.438  63.822  0.00  0.00    -0.292 OA
ATOM     16  C   UNL     1     -12.044  13.653  64.036  0.00  0.00    +0.068 C 
ATOM     17  C   UNL     1     -11.783  13.490  67.282  0.00  0.00    +0.014 A 
ATOM     18  C   UNL     1      -9.411  13.250  67.139  0.00  0.00    +0.025 C 
ATOM     19  C   UNL     1     -11.892  14.865  64.911  0.00  0.00    +0.010 C 
ATOM     20  C   UNL     1     -11.313  15.697  67.480  0.00  0.00    +0.042 C 
ATOM     21  C   UNL     1      -8.487  14.334  66.902  0.00  0.00    +0.073 C 
ENDROOT
TORSDOF 0
ENDMDL
MODEL 4
REMARK VINA RESULT:      -6.4      1.886      4.003
REMARK  Name = 
REMARK  0 active torsions:
REMARK  status: ('A' for Active; 'I' for Inactive)
REMARK                            x       y       z     vdW  Elec       q    Type
REMARK                         _______ _______ _______ _____ _____    ______ ____
ROOT
ATOM      1  C   UNL     1      -7.248  10.714  67.042  0.00  0.00    +0.090 C 
ATOM      2  N   UNL     1      -8.437  11.425  66.498  0.00  0.00    -0.272 NA
ATOM      3  C   UNL     1      -9.552  10.644  67.291  0.00  0.00    +0.062 C 
ATOM      4  C   UNL     1     -10.030  11.906  68.354  0.00  0.00    +0.023 C 
ATOM      5  C   UNL     1     -10.670  12.916  67.356  0.00  0.00    +0.068 C 
ATOM      6  C   UNL     1     -11.035  14.249  68.212  0.00  0.00    +0.226 C 
ATOM      7  O   UNL     1     -12.125  14.705  67.203  0.00  0.00    -0.469 OA
ATOM      8  C   UNL     1     -11.904  14.010  66.033  0.00  0.00    +0.173 A 
ATOM      9  C   UNL     1     -12.197  14.209  64.675  0.00  0.00    +0.229 A 
ATOM     10  C   UNL     1     -12.006  13.140  63.791  0.00  0.00    +0.045 A 
ATOM     11  C   UNL     1     -11.649  11.869  64.257  0.00  0.00    -0.001 A 
ATOM     12  C   UNL     1     -11.186  11.766  65.564  0.00  0.00    -0.022 A 
ATOM     13  O   UNL     1     -11.928  15.518  64.208  0.00  0.00    -0.283 OA
ATOM     14  C   UNL     1     -12.132  13.542  69.186  0.00  0.00    +0.191 C 
ATOM     15  O   UNL     1     -12.300  14.381  70.086  0.00  0.00    -0.292 OA
ATOM     16  C   UNL     1     -11.893  12.221  69.703  0.00  0.00    +0.068 C 
ATOM     17  C   UNL     1     -11.676  12.698  66.485  0.00  0.00    +0.014 A 
ATOM     18  C   UNL     1      -9.446  13.525  66.697  0.00  0.00    +0.025 C 
ATOM     19  C   UNL     1     -11.432  11.160  68.743  0.00  0.00    +0.010 C 
ATOM     20  C   UNL     1     -10.654  10.707  66.132  0.00  0.00    +0.042 C 
ATOM     21  C   UNL     1      -8.275  12.699  66.872  0.00  0.00    +0.073 C 
ENDROOT
TORSDOF 0
ENDMDL
MODEL 5
REMARK VINA RESULT:      -6.3      2.139      4.295
REMARK  Name = 
REMARK  0 active torsions:
REMARK  status: ('A' for Active; 'I' for Inactive)
REMARK                            x       y       z     vdW  Elec       q    Type
REMARK                         _______ _______ _______ _____ _____    ______ ____
ROOT
ATOM      1  C   UNL     1     -11.936  12.149  64.577  0.00  0.00    +0.090 C 
ATOM      2  N   UNL     1     -11.921  12.705  65.957  0.00  0.00    -0.272 NA
ATOM      3  C   UNL     1     -10.391  12.497  66.270  0.00  0.00    +0.062 C 
ATOM      4  C   UNL     1      -9.907  14.145  66.244  0.00  0.00    +0.023 C 
ATOM      5  C   UNL     1     -10.653  14.700  67.493  0.00  0.00    +0.068 C 
ATOM      6  C   UNL     1     -10.408  16.307  67.507  0.00  0.00    +0.226 C 
ATOM      7  O   UNL     1     -10.667  16.421  69.035  0.00  0.00    -0.469 OA
ATOM      8  C   UNL     1     -11.315  15.266  69.420  0.00  0.00    +0.173 A 
ATOM      9  C   UNL     1     -12.171  14.896  70.468  0.00  0.00    +0.229 A 
ATOM     10  C   UNL     1     -12.444  13.536  70.652  0.00  0.00    +0.045 A 
ATOM     11  C   UNL     1     -11.793  12.556  69.894  0.00  0.00    -0.001 A 
ATOM     12  C   UNL     1     -11.111  12.968  68.754  0.00  0.00    -0.022 A 
ATOM     13  O   UNL     1     -13.204  15.828  70.731  0.00  0.00    -0.283 OA
ATOM     14  C   UNL     1      -8.795  16.241  67.712  0.00  0.00    +0.191 C 
ATOM     15  O   UNL     1      -8.426  17.401  67.464  0.00  0.00    -0.292 OA
ATOM     16  C   UNL     1      -8.018  15.254  67.011  0.00  0.00    +0.068 C 
ATOM     17  C   UNL     1     -10.580  14.261  68.766  0.00  0.00    +0.014 A 
ATOM     18  C   UNL     1     -12.081  14.797  66.988  0.00  0.00    +0.025 C 
ATOM     19  C   UNL     1      -8.504  13.832  67.025  0.00  0.00    +0.010 C 
ATOM     20  C   UNL     1     -10.580  12.198  67.831  0.00  0.00    +0.042 C 
ATOM     21  C   UNL     1     -12.294  13.981  65.816  0.00  0.00    +0.073 C 
ENDROOT
TORSDOF 0
ENDMDL
MODEL 6
REMARK VINA RESULT:      -6.3      2.075      4.455
REMARK  Name = 
REMARK  0 active torsions:
REMARK  status: ('A' for Active; 'I' for Inactive)
REMARK                            x       y       z     vdW  Elec       q    Type
REMARK                         _______ _______ _______ _____ _____    ______ ____
ROOT
ATOM      1  C   UNL     1      -6.325  16.013  68.717  0.00  0.00    +0.090 C 
ATOM      2  N   UNL     1      -7.661  15.374  68.563  0.00  0.00    -0.272 NA
ATOM      3  C   UNL     1      -8.541  16.680  68.577  0.00  0.00    +0.062 C 
ATOM      4  C   UNL     1      -9.014  16.678  66.925  0.00  0.00    +0.023 C 
ATOM      5  C   UNL     1      -9.914  15.408  66.870  0.00  0.00    +0.068 C 
ATOM      6  C   UNL     1     -10.316  15.188  65.310  0.00  0.00    +0.226 C 
ATOM      7  O   UNL     1     -11.589  14.371  65.662  0.00  0.00    -0.469 OA
ATOM      8  C   UNL     1     -11.456  13.964  66.973  0.00  0.00    +0.173 A 
ATOM      9  C   UNL     1     -11.966  12.919  67.759  0.00  0.00    +0.229 A 
ATOM     10  C   UNL     1     -11.773  12.975  69.144  0.00  0.00    +0.045 A 
ATOM     11  C   UNL     1     -11.195  14.096  69.751  0.00  0.00    -0.001 A 
ATOM     12  C   UNL     1     -10.537  15.007  68.932  0.00  0.00    -0.022 A 
ATOM     13  O   UNL     1     -11.935  11.651  67.129  0.00  0.00    -0.283 OA
ATOM     14  C   UNL     1     -11.161  16.570  65.146  0.00  0.00    +0.191 C 
ATOM     15  O   UNL     1     -11.301  16.676  63.916  0.00  0.00    -0.292 OA
ATOM     16  C   UNL     1     -10.685  17.784  65.753  0.00  0.00    +0.068 C 
ATOM     17  C   UNL     1     -11.001  15.128  67.618  0.00  0.00    +0.014 A 
ATOM     18  C   UNL     1      -8.886  14.292  66.891  0.00  0.00    +0.025 C 
ATOM     19  C   UNL     1     -10.240  17.728  67.188  0.00  0.00    +0.010 C 
ATOM     20  C   UNL     1      -9.800  16.024  69.317  0.00  0.00    +0.042 C 
ATOM     21  C   UNL     1      -7.607  14.750  67.382  0.00  0.00    +0.073 C 
ENDROOT
TORSDOF 0
ENDMDL
MODEL 7
REMARK VINA RESULT:      -6.2      2.161      4.121
REMARK  Name = 
REMARK  0 active torsions:
REMARK  status: ('A' for Active; 'I' for Inactive)
REMARK                            x       y       z     vdW  Elec       q    Type
REMARK                         _______ _______ _______ _____ _____    ______ ____
ROOT
ATOM      1  C   UNL     1     -11.152  16.297  69.936  0.00  0.00    +0.090 C 
ATOM      2  N   UNL     1     -11.307  15.602  68.629  0.00  0.00    -0.272 NA
ATOM      3  C   UNL     1      -9.795  15.611  68.186  0.00  0.00    +0.062 C 
ATOM      4  C   UNL     1      -9.476  13.932  68.361  0.00  0.00    +0.023 C 
ATOM      5  C   UNL     1     -10.374  13.334  67.239  0.00  0.00    +0.068 C 
ATOM      6  C   UNL     1     -10.292  11.717  67.387  0.00  0.00    +0.226 C 
ATOM      7  O   UNL     1     -10.686  11.474  65.903  0.00  0.00    -0.469 OA
ATOM      8  C   UNL     1     -11.245  12.646  65.439  0.00  0.00    +0.173 A 
ATOM      9  C   UNL     1     -12.144  12.995  64.420  0.00  0.00    +0.229 A 
ATOM     10  C   UNL     1     -12.296  14.351  64.105  0.00  0.00    +0.045 A 
ATOM     11  C   UNL     1     -11.490  15.328  64.701  0.00  0.00    -0.001 A 
ATOM     12  C   UNL     1     -10.761  14.966  65.828  0.00  0.00    -0.022 A 
ATOM     13  O   UNL     1     -13.283  12.157  64.337  0.00  0.00    -0.283 OA
ATOM     14  C   UNL     1      -8.702  11.588  67.061  0.00  0.00    +0.191 C 
ATOM     15  O   UNL     1      -8.431  10.427  67.410  0.00  0.00    -0.292 OA
ATOM     16  C   UNL     1      -7.776  12.553  67.590  0.00  0.00    +0.068 C 
ATOM     17  C   UNL     1     -10.363  13.628  65.922  0.00  0.00    +0.014 A 
ATOM     18  C   UNL     1     -11.758  13.444  67.852  0.00  0.00    +0.025 C 
ATOM     19  C   UNL     1      -8.118  14.010  67.452  0.00  0.00    +0.010 C 
ATOM     20  C   UNL     1     -10.081  15.765  66.619  0.00  0.00    +0.042 C 
ATOM     21  C   UNL     1     -11.791  14.395  68.938  0.00  0.00    +0.073 C 
ENDROOT
TORSDOF 0
ENDMDL
MODEL 8
REMARK VINA RESULT:      -6.2      2.298      3.951
REMARK  Name = 
REMARK  0 active torsions:
REMARK  status: ('A' for Active; 'I' for Inactive)
REMARK                            x       y       z     vdW  Elec       q    Type
REMARK                         _______ _______ _______ _____ _____    ______ ____
ROOT
ATOM      1  C   UNL     1     -12.468  12.446  64.507  0.00  0.00    +0.090 C 
ATOM      2  N   UNL     1     -12.075  13.229  65.710  0.00  0.00    -0.272 NA
ATOM      3  C   UNL     1     -11.295  12.095  66.475  0.00  0.00    +0.062 C 
ATOM      4  C   UNL     1      -9.705  12.719  66.289  0.00  0.00    +0.023 C 
ATOM      5  C   UNL     1      -9.784  14.012  67.153  0.00  0.00    +0.068 C 
ATOM      6  C   UNL     1      -8.377  14.800  66.943  0.00  0.00    +0.226 C 
ATOM      7  O   UNL     1      -8.506  15.568  68.288  0.00  0.00    -0.469 OA
ATOM      8  C   UNL     1      -9.826  15.478  68.677  0.00  0.00    +0.173 A 
ATOM      9  C   UNL     1     -10.688  16.231  69.489  0.00  0.00    +0.229 A 
ATOM     10  C   UNL     1     -11.927  15.678  69.831  0.00  0.00    +0.045 A 
ATOM     11  C   UNL     1     -12.258  14.364  69.480  0.00  0.00    -0.001 A 
ATOM     12  C   UNL     1     -11.469  13.732  68.525  0.00  0.00    -0.022 A 
ATOM     13  O   UNL     1     -10.615  17.629  69.274  0.00  0.00    -0.283 OA
ATOM     14  C   UNL     1      -7.430  13.653  67.606  0.00  0.00    +0.191 C 
ATOM     15  O   UNL     1      -6.285  13.995  67.266  0.00  0.00    -0.292 OA
ATOM     16  C   UNL     1      -7.689  12.263  67.345  0.00  0.00    +0.068 C 
ATOM     17  C   UNL     1     -10.128  14.123  68.452  0.00  0.00    +0.014 A 
ATOM     18  C   UNL     1     -10.580  14.942  66.255  0.00  0.00    +0.025 C 
ATOM     19  C   UNL     1      -9.104  11.772  67.479  0.00  0.00    +0.010 C 
ATOM     20  C   UNL     1     -11.704  12.576  67.946  0.00  0.00    +0.042 C 
ATOM     21  C   UNL     1     -11.306  14.216  65.239  0.00  0.00    +0.073 C 
ENDROOT
TORSDOF 0
ENDMDL
MODEL 9
REMARK VINA RESULT:      -6.1      5.503      7.495
REMARK  Name = 
REMARK  0 active torsions:
REMARK  status: ('A' for Active; 'I' for Inactive)
REMARK                            x       y       z     vdW  Elec       q    Type
REMARK                         _______ _______ _______ _____ _____    ______ ____
ROOT
ATOM      1  C   UNL     1      -5.243  16.895  70.217  0.00  0.00    +0.090 C 
ATOM      2  N   UNL     1      -6.333  17.494  69.400  0.00  0.00    -0.272 NA
ATOM      3  C   UNL     1      -5.923  19.008  69.549  0.00  0.00    +0.062 C 
ATOM      4  C   UNL     1      -5.385  19.278  67.940  0.00  0.00    +0.023 C 
ATOM      5  C   UNL     1      -6.719  19.144  67.148  0.00  0.00    +0.068 C 
ATOM      6  C   UNL     1      -6.335  19.225  65.571  0.00  0.00    +0.226 C 
ATOM      7  O   UNL     1      -7.759  19.690  65.158  0.00  0.00    -0.469 OA
ATOM      8  C   UNL     1      -8.598  19.397  66.212  0.00  0.00    +0.173 A 
ATOM      9  C   UNL     1      -9.972  19.157  66.366  0.00  0.00    +0.229 A 
ATOM     10  C   UNL     1     -10.497  19.120  67.663  0.00  0.00    +0.045 A 
ATOM     11  C   UNL     1      -9.707  19.434  68.775  0.00  0.00    -0.001 A 
ATOM     12  C   UNL     1      -8.329  19.474  68.598  0.00  0.00    -0.022 A 
ATOM     13  O   UNL     1     -10.521  18.283  65.397  0.00  0.00    -0.283 OA
ATOM     14  C   UNL     1      -5.767  20.750  65.601  0.00  0.00    +0.191 C 
ATOM     15  O   UNL     1      -5.177  20.859  64.514  0.00  0.00    -0.292 OA
ATOM     16  C   UNL     1      -4.969  21.201  66.709  0.00  0.00    +0.068 C 
ATOM     17  C   UNL     1      -7.864  19.834  67.329  0.00  0.00    +0.014 A 
ATOM     18  C   UNL     1      -6.935  17.642  67.146  0.00  0.00    +0.025 C 
ATOM     19  C   UNL     1      -5.458  20.904  68.099  0.00  0.00    +0.010 C 
ATOM     20  C   UNL     1      -7.415  19.586  69.535  0.00  0.00    +0.042 C 
ATOM     21  C   UNL     1      -6.162  16.987  68.175  0.00  0.00    +0.073 C 
ENDROOT
TORSDOF 0
ENDMDL
