MODEL 1
REMARK VINA RESULT:      -7.7      0.000      0.000
REMARK  Name = 
REMARK  1 active torsions:
REMARK  status: ('A' for Active; 'I' for Inactive)
REMARK    1  A    between atoms: C_2  and  C_4
REMARK                            x       y       z     vdW  Elec       q    Type
REMARK                         _______ _______ _______ _____ _____    ______ ____
ROOT
ATOM      1  C   UNL     1      -7.923  19.456  68.011  0.00  0.00    +0.177 C 
ATOM      2  C   UNL     1      -7.769  18.097  67.543  0.00  0.00    +0.035 C 
ATOM      3  C   UNL     1      -9.352  17.852  67.290  0.00  0.00    +0.006 C 
ATOM      4  C   UNL     1      -9.003  16.443  66.424  0.00  0.00    +0.034 C 
ATOM      5  C   UNL     1      -9.380  15.549  67.694  0.00  0.00    +0.168 C 
ATOM      6  C   UNL     1      -8.688  16.229  69.004  0.00  0.00    +0.182 C 
ATOM      7  O   UNL     1      -7.891  14.997  69.400  0.00  0.00    -0.220 OA
ATOM      8  F   UNL     1     -10.649  16.039  68.107  0.00  0.00    -0.237 F 
ATOM      9  C   UNL     1      -9.537  14.194  67.545  0.00  0.00    +0.064 C 
ATOM     10  C   UNL     1     -10.627  14.079  66.502  0.00  0.00    -0.036 C 
ATOM     11  C   UNL     1     -11.197  12.881  66.331  0.00  0.00    +0.034 C 
ATOM     12  C   UNL     1     -11.396  12.082  67.549  0.00  0.00    +0.195 C 
ATOM     13  C   UNL     1     -11.165  12.793  68.805  0.00  0.00    +0.038 C 
ATOM     14  O   UNL     1     -12.007  10.994  67.486  0.00  0.00    -0.287 OA
ATOM     15  C   UNL     1     -10.343  14.846  65.123  0.00  0.00    +0.019 C 
ATOM     16  C   UNL     1     -11.917  14.820  64.680  0.00  0.00    +0.004 C 
ATOM     17  C   UNL     1      -8.575  13.093  67.324  0.00  0.00    +0.011 C 
ATOM     18  C   UNL     1     -10.278  13.746  68.781  0.00  0.00    -0.017 C 
ATOM     19  C   UNL     1     -10.482  16.345  65.759  0.00  0.00    +0.007 C 
ATOM     20  C   UNL     1      -9.323  18.926  66.086  0.00  0.00    +0.003 C 
ATOM     21  C   UNL     1      -7.115  18.089  66.185  0.00  0.00    +0.003 C 
ATOM     22  C   UNL     1      -7.369  16.943  68.305  0.00  0.00    +0.038 C 
ATOM     23  C   UNL     1      -8.977  20.056  67.066  0.00  0.00    +0.038 C 
ATOM     24  O   UNL     1      -8.298  19.572  69.339  0.00  0.00    -0.218 OA
ENDROOT
BRANCH   1  26
ATOM     25  C   UNL     1      -6.163  20.472  68.476  0.00  0.00    +0.075 C 
ATOM     26  C   UNL     1      -6.760  20.381  67.758  0.00  0.00    +0.178 C 
ATOM     27  O   UNL     1      -6.938  21.434  67.151  0.00  0.00    -0.293 OA
ENDBRANCH   1  26
TORSDOF 1
ENDMDL
MODEL 2
REMARK VINA RESULT:      -7.4      1.835      2.867
REMARK  Name = 
REMARK  1 active torsions:
REMARK  status: ('A' for Active; 'I' for Inactive)
REMARK    1  A    between atoms: C_2  and  C_4
REMARK                            x       y       z     vdW  Elec       q    Type
REMARK                         _______ _______ _______ _____ _____    ______ ____
ROOT
ATOM      1  C   UNL     1      -7.698  18.744  67.120  0.00  0.00    +0.177 C 
ATOM      2  C   UNL     1      -8.915  17.984  66.949  0.00  0.00    +0.035 C 
ATOM      3  C   UNL     1      -8.886  17.329  68.431  0.00  0.00    +0.006 C 
ATOM      4  C   UNL     1     -10.482  16.804  68.240  0.00  0.00    +0.034 C 
ATOM      5  C   UNL     1      -9.974  15.326  67.909  0.00  0.00    +0.168 C 
ATOM      6  C   UNL     1      -8.730  15.449  66.864  0.00  0.00    +0.182 C 
ATOM      7  O   UNL     1      -9.366  14.591  65.783  0.00  0.00    -0.220 OA
ATOM      8  F   UNL     1      -9.065  15.021  68.959  0.00  0.00    -0.237 F 
ATOM      9  C   UNL     1     -10.875  14.290  67.888  0.00  0.00    +0.064 C 
ATOM     10  C   UNL     1     -11.480  14.321  69.274  0.00  0.00    -0.036 C 
ATOM     11  C   UNL     1     -12.205  13.264  69.657  0.00  0.00    +0.034 C 
ATOM     12  C   UNL     1     -11.721  11.952  69.203  0.00  0.00    +0.195 C 
ATOM     13  C   UNL     1     -10.390  11.954  68.598  0.00  0.00    +0.038 C 
ATOM     14  O   UNL     1     -12.288  10.911  69.598  0.00  0.00    -0.287 OA
ATOM     15  C   UNL     1     -12.126  15.722  69.712  0.00  0.00    +0.019 C 
ATOM     16  C   UNL     1     -12.108  15.336  71.301  0.00  0.00    +0.004 C 
ATOM     17  C   UNL     1     -11.938  13.909  66.933  0.00  0.00    +0.011 C 
ATOM     18  C   UNL     1     -10.037  13.038  67.970  0.00  0.00    -0.017 C 
ATOM     19  C   UNL     1     -10.699  16.511  69.823  0.00  0.00    +0.007 C 
ATOM     20  C   UNL     1      -9.152  18.783  69.077  0.00  0.00    +0.003 C 
ATOM     21  C   UNL     1     -10.103  18.911  66.918  0.00  0.00    +0.003 C 
ATOM     22  C   UNL     1      -9.134  16.852  66.086  0.00  0.00    +0.038 C 
ATOM     23  C   UNL     1      -7.802  19.293  68.552  0.00  0.00    +0.038 C 
ATOM     24  O   UNL     1      -6.533  18.020  66.930  0.00  0.00    -0.218 OA
ENDROOT
BRANCH   1  26
ATOM     25  C   UNL     1      -7.109  19.965  65.536  0.00  0.00    +0.075 C 
ATOM     26  C   UNL     1      -7.600  20.026  66.334  0.00  0.00    +0.178 C 
ATOM     27  O   UNL     1      -7.424  21.091  66.920  0.00  0.00    -0.293 OA
ENDBRANCH   1  26
TORSDOF 1
ENDMDL
MODEL 3
REMARK VINA RESULT:      -7.1      1.610      6.463
REMARK  Name = 
REMARK  1 active torsions:
REMARK  status: ('A' for Active; 'I' for Inactive)
REMARK    1  A    between atoms: C_2  and  C_4
REMARK                            x       y       z     vdW  Elec       q    Type
REMARK                         _______ _______ _______ _____ _____    ______ ____
ROOT
ATOM      1  C   UNL     1     -10.282  12.837  67.361  0.00  0.00    +0.177 C 
ATOM      2  C   UNL     1      -9.826  14.034  68.030  0.00  0.00    +0.035 C 
ATOM      3  C   UNL     1     -10.040  15.006  66.751  0.00  0.00    +0.006 C 
ATOM      4  C   UNL     1      -9.851  16.364  67.740  0.00  0.00    +0.034 C 
ATOM      5  C   UNL     1      -8.345  16.541  67.237  0.00  0.00    +0.168 C 
ATOM      6  C   UNL     1      -7.640  15.072  67.249  0.00  0.00    +0.182 C 
ATOM      7  O   UNL     1      -6.509  15.464  68.184  0.00  0.00    -0.220 OA
ATOM      8  F   UNL     1      -8.437  16.489  65.819  0.00  0.00    -0.237 F 
ATOM      9  C   UNL     1      -7.670  17.702  67.521  0.00  0.00    +0.064 C 
ATOM     10  C   UNL     1      -8.541  18.776  66.905  0.00  0.00    -0.036 C 
ATOM     11  C   UNL     1      -8.018  20.000  66.780  0.00  0.00    +0.034 C 
ATOM     12  C   UNL     1      -6.591  20.060  66.429  0.00  0.00    +0.195 C 
ATOM     13  C   UNL     1      -5.994  18.786  66.033  0.00  0.00    +0.038 C 
ATOM     14  O   UNL     1      -6.053  21.164  66.200  0.00  0.00    -0.287 OA
ATOM     15  C   UNL     1     -10.067  18.787  67.395  0.00  0.00    +0.019 C 
ATOM     16  C   UNL     1     -10.563  19.688  66.122  0.00  0.00    +0.004 C 
ATOM     17  C   UNL     1      -7.091  18.243  68.769  0.00  0.00    +0.011 C 
ATOM     18  C   UNL     1      -6.493  17.714  66.576  0.00  0.00    -0.017 C 
ATOM     19  C   UNL     1     -10.471  17.392  66.645  0.00  0.00    +0.007 C 
ATOM     20  C   UNL     1     -11.637  14.803  66.866  0.00  0.00    +0.003 C 
ATOM     21  C   UNL     1     -10.836  14.464  69.064  0.00  0.00    +0.003 C 
ATOM     22  C   UNL     1      -8.490  14.345  68.468  0.00  0.00    +0.038 C 
ATOM     23  C   UNL     1     -11.497  13.308  66.547  0.00  0.00    +0.038 C 
ATOM     24  O   UNL     1      -9.332  12.225  66.560  0.00  0.00    -0.218 OA
ENDROOT
BRANCH   1  26
ATOM     25  C   UNL     1     -10.349  11.089  68.495  0.00  0.00    +0.075 C 
ATOM     26  C   UNL     1     -10.919  11.789  68.236  0.00  0.00    +0.178 C 
ATOM     27  O   UNL     1     -12.063  11.407  68.000  0.00  0.00    -0.293 OA
ENDBRANCH   1  26
TORSDOF 1
ENDMDL
MODEL 4
REMARK VINA RESULT:      -7.1      3.537      7.526
REMARK  Name = 
REMARK  1 active torsions:
REMARK  status: ('A' for Active; 'I' for Inactive)
REMARK    1  A    between atoms: C_2  and  C_4
REMARK                            x       y       z     vdW  Elec       q    Type
REMARK                         _______ _______ _______ _____ _____    ______ ____
ROOT
ATOM      1  C   UNL     1      -8.536   8.898  68.134  0.00  0.00    +0.177 C 
ATOM      2  C   UNL     1      -9.562   9.916  68.146  0.00  0.00    +0.035 C 
ATOM      3  C   UNL     1      -9.398  10.305  66.581  0.00  0.00    +0.006 C 
ATOM      4  C   UNL     1     -10.843  11.179  66.638  0.00  0.00    +0.034 C 
ATOM      5  C   UNL     1     -10.030  12.550  66.749  0.00  0.00    +0.168 C 
ATOM      6  C   UNL     1      -8.838  12.334  67.839  0.00  0.00    +0.182 C 
ATOM      7  O   UNL     1      -9.272  13.468  68.752  0.00  0.00    -0.220 OA
ATOM      8  F   UNL     1      -9.080  12.484  65.694  0.00  0.00    -0.237 F 
ATOM      9  C   UNL     1     -10.688  13.743  66.581  0.00  0.00    +0.064 C 
ATOM     10  C   UNL     1     -11.290  13.620  65.198  0.00  0.00    -0.036 C 
ATOM     11  C   UNL     1     -11.773  14.732  64.632  0.00  0.00    +0.034 C 
ATOM     12  C   UNL     1     -11.018  15.967  64.890  0.00  0.00    +0.195 C 
ATOM     13  C   UNL     1      -9.717  15.779  65.529  0.00  0.00    +0.038 C 
ATOM     14  O   UNL     1     -11.350  17.028  64.319  0.00  0.00    -0.287 OA
ATOM     15  C   UNL     1     -12.222  12.336  64.965  0.00  0.00    +0.019 C 
ATOM     16  C   UNL     1     -12.127  12.451  63.336  0.00  0.00    +0.004 C 
ATOM     17  C   UNL     1     -11.642  14.488  67.430  0.00  0.00    +0.011 C 
ATOM     18  C   UNL     1      -9.602  14.759  66.329  0.00  0.00    -0.017 C 
ATOM     19  C   UNL     1     -10.997  11.255  65.023  0.00  0.00    +0.007 C 
ATOM     20  C   UNL     1      -9.970   8.856  66.163  0.00  0.00    +0.003 C 
ATOM     21  C   UNL     1     -10.921   9.278  68.285  0.00  0.00    +0.003 C 
ATOM     22  C   UNL     1      -9.531  11.191  68.814  0.00  0.00    +0.038 C 
ATOM     23  C   UNL     1      -8.760   8.162  66.804  0.00  0.00    +0.038 C 
ATOM     24  O   UNL     1      -7.242   9.379  68.245  0.00  0.00    -0.218 OA
ENDROOT
BRANCH   1  26
ATOM     25  C   UNL     1      -8.181   7.824  69.886  0.00  0.00    +0.075 C 
ATOM     26  C   UNL     1      -8.713   7.766  69.114  0.00  0.00    +0.178 C 
ATOM     27  O   UNL     1      -8.830   6.615  68.703  0.00  0.00    -0.293 OA
ENDBRANCH   1  26
TORSDOF 1
ENDMDL
MODEL 5
REMARK VINA RESULT:      -7.0      1.747      2.662
REMARK  Name = 
REMARK  1 active torsions:
REMARK  status: ('A' for Active; 'I' for Inactive)
REMARK    1  A    between atoms: C_2  and  C_4
REMARK                            x       y       z     vdW  Elec       q    Type
REMARK                         _______ _______ _______ _____ _____    ______ ____
ROOT
ATOM      1  C   UNL     1      -7.366  19.130  66.692  0.00  0.00    +0.177 C 
ATOM      2  C   UNL     1      -7.880  18.206  67.677  0.00  0.00    +0.035 C 
ATOM      3  C   UNL     1      -7.781  16.903  66.718  0.00  0.00    +0.006 C 
ATOM      4  C   UNL     1      -8.030  15.893  68.050  0.00  0.00    +0.034 C 
ATOM      5  C   UNL     1      -9.562  15.700  67.640  0.00  0.00    +0.168 C 
ATOM      6  C   UNL     1     -10.161  17.164  67.250  0.00  0.00    +0.182 C 
ATOM      7  O   UNL     1     -11.282  17.137  68.275  0.00  0.00    -0.220 OA
ATOM      8  F   UNL     1      -9.518  15.349  66.263  0.00  0.00    -0.237 F 
ATOM      9  C   UNL     1     -10.307  14.720  68.247  0.00  0.00    +0.064 C 
ATOM     10  C   UNL     1      -9.536  13.453  67.944  0.00  0.00    -0.036 C 
ATOM     11  C   UNL     1     -10.149  12.286  68.174  0.00  0.00    +0.034 C 
ATOM     12  C   UNL     1     -11.588  12.243  67.875  0.00  0.00    +0.195 C 
ATOM     13  C   UNL     1     -12.108  13.399  67.147  0.00  0.00    +0.038 C 
ATOM     14  O   UNL     1     -12.210  11.164  67.973  0.00  0.00    -0.287 OA
ATOM     15  C   UNL     1      -7.998  13.459  68.395  0.00  0.00    +0.019 C 
ATOM     16  C   UNL     1      -7.613  12.205  67.418  0.00  0.00    +0.004 C 
ATOM     17  C   UNL     1     -10.877  14.594  69.606  0.00  0.00    +0.011 C 
ATOM     18  C   UNL     1     -11.514  14.538  67.361  0.00  0.00    -0.017 C 
ATOM     19  C   UNL     1      -7.524  14.555  67.278  0.00  0.00    +0.007 C 
ATOM     20  C   UNL     1      -6.172  17.005  66.748  0.00  0.00    +0.003 C 
ATOM     21  C   UNL     1      -6.867  18.003  68.775  0.00  0.00    +0.003 C 
ATOM     22  C   UNL     1      -9.218  18.133  68.204  0.00  0.00    +0.038 C 
ATOM     23  C   UNL     1      -6.217  18.358  66.025  0.00  0.00    +0.038 C 
ATOM     24  O   UNL     1      -8.298  19.567  65.766  0.00  0.00    -0.218 OA
ENDROOT
BRANCH   1  26
ATOM     25  C   UNL     1      -7.117  21.128  67.236  0.00  0.00    +0.075 C 
ATOM     26  C   UNL     1      -6.625  20.328  67.230  0.00  0.00    +0.178 C 
ATOM     27  O   UNL     1      -5.444  20.498  66.937  0.00  0.00    -0.293 OA
ENDBRANCH   1  26
TORSDOF 1
ENDMDL
MODEL 6
REMARK VINA RESULT:      -7.0      1.862      6.632
REMARK  Name = 
REMARK  1 active torsions:
REMARK  status: ('A' for Active; 'I' for Inactive)
REMARK    1  A    between atoms: C_2  and  C_4
REMARK                            x       y       z     vdW  Elec       q    Type
REMARK                         _______ _______ _______ _____ _____    ______ ____
ROOT
ATOM      1  C   UNL     1     -12.088  13.385  65.382  0.00  0.00    +0.177 C 
ATOM      2  C   UNL     1     -10.854  14.132  65.289  0.00  0.00    +0.035 C 
ATOM      3  C   UNL     1     -10.615  14.215  66.890  0.00  0.00    +0.006 C 
ATOM      4  C   UNL     1      -9.030  14.743  66.634  0.00  0.00    +0.034 C 
ATOM      5  C   UNL     1      -9.466  16.251  66.929  0.00  0.00    +0.168 C 
ATOM      6  C   UNL     1     -10.855  16.533  66.126  0.00  0.00    +0.182 C 
ATOM      7  O   UNL     1     -10.321  17.708  65.324  0.00  0.00    -0.220 OA
ATOM      8  F   UNL     1     -10.185  16.179  68.153  0.00  0.00    -0.237 F 
ATOM      9  C   UNL     1      -8.501  17.209  67.122  0.00  0.00    +0.064 C 
ATOM     10  C   UNL     1      -7.703  16.673  68.291  0.00  0.00    -0.036 C 
ATOM     11  C   UNL     1      -6.851  17.510  68.894  0.00  0.00    +0.034 C 
ATOM     12  C   UNL     1      -7.294  18.907  69.013  0.00  0.00    +0.195 C 
ATOM     13  C   UNL     1      -8.696  19.147  68.673  0.00  0.00    +0.038 C 
ATOM     14  O   UNL     1      -6.598  19.727  69.647  0.00  0.00    -0.287 OA
ATOM     15  C   UNL     1      -7.109  15.196  68.100  0.00  0.00    +0.019 C 
ATOM     16  C   UNL     1      -6.864  14.990  69.704  0.00  0.00    +0.004 C 
ATOM     17  C   UNL     1      -7.564  17.885  66.200  0.00  0.00    +0.011 C 
ATOM     18  C   UNL     1      -9.219  18.365  67.774  0.00  0.00    -0.017 C 
ATOM     19  C   UNL     1      -8.561  14.447  68.162  0.00  0.00    +0.007 C 
ATOM     20  C   UNL     1     -10.370  12.622  66.935  0.00  0.00    +0.003 C 
ATOM     21  C   UNL     1      -9.758  13.254  64.741  0.00  0.00    +0.003 C 
ATOM     22  C   UNL     1     -10.679  15.493  64.853  0.00  0.00    +0.038 C 
ATOM     23  C   UNL     1     -11.817  12.359  66.494  0.00  0.00    +0.038 C 
ATOM     24  O   UNL     1     -13.210  14.151  65.652  0.00  0.00    -0.218 OA
ENDROOT
BRANCH   1  26
ATOM     25  C   UNL     1     -12.135  12.792  63.384  0.00  0.00    +0.075 C 
ATOM     26  C   UNL     1     -12.398  12.470  64.225  0.00  0.00    +0.178 C 
ATOM     27  O   UNL     1     -13.470  11.870  64.190  0.00  0.00    -0.293 OA
ENDBRANCH   1  26
TORSDOF 1
ENDMDL
MODEL 7
REMARK VINA RESULT:      -6.9      1.701      6.600
REMARK  Name = 
REMARK  1 active torsions:
REMARK  status: ('A' for Active; 'I' for Inactive)
REMARK    1  A    between atoms: C_2  and  C_4
REMARK                            x       y       z     vdW  Elec       q    Type
REMARK                         _______ _______ _______ _____ _____    ______ ____
ROOT
ATOM      1  C   UNL     1     -11.196  14.159  67.018  0.00  0.00    +0.177 C 
ATOM      2  C   UNL     1     -10.410  15.241  66.470  0.00  0.00    +0.035 C 
ATOM      3  C   UNL     1      -9.204  15.101  67.543  0.00  0.00    +0.006 C 
ATOM      4  C   UNL     1      -8.233  16.110  66.596  0.00  0.00    +0.034 C 
ATOM      5  C   UNL     1      -8.542  17.344  67.562  0.00  0.00    +0.168 C 
ATOM      6  C   UNL     1     -10.141  17.343  67.875  0.00  0.00    +0.182 C 
ATOM      7  O   UNL     1     -10.390  18.747  67.351  0.00  0.00    -0.220 OA
ATOM      8  F   UNL     1      -8.284  16.844  68.868  0.00  0.00    -0.237 F 
ATOM      9  C   UNL     1      -7.798  18.492  67.453  0.00  0.00    +0.064 C 
ATOM     10  C   UNL     1      -6.379  18.015  67.676  0.00  0.00    -0.036 C 
ATOM     11  C   UNL     1      -5.441  18.943  67.896  0.00  0.00    +0.034 C 
ATOM     12  C   UNL     1      -5.857  20.102  68.700  0.00  0.00    +0.195 C 
ATOM     13  C   UNL     1      -7.161  19.975  69.349  0.00  0.00    +0.038 C 
ATOM     14  O   UNL     1      -5.014  20.963  69.030  0.00  0.00    -0.287 OA
ATOM     15  C   UNL     1      -5.888  16.839  66.704  0.00  0.00    +0.019 C 
ATOM     16  C   UNL     1      -4.642  16.429  67.681  0.00  0.00    +0.004 C 
ATOM     17  C   UNL     1      -7.764  19.569  66.440  0.00  0.00    +0.011 C 
ATOM     18  C   UNL     1      -8.049  19.248  68.734  0.00  0.00    -0.017 C 
ATOM     19  C   UNL     1      -6.858  15.697  67.357  0.00  0.00    +0.007 C 
ATOM     20  C   UNL     1      -8.809  13.670  66.913  0.00  0.00    +0.003 C 
ATOM     21  C   UNL     1      -9.838  14.838  65.134  0.00  0.00    +0.003 C 
ATOM     22  C   UNL     1     -10.714  16.648  66.487  0.00  0.00    +0.038 C 
ATOM     23  C   UNL     1     -10.156  13.076  67.349  0.00  0.00    +0.038 C 
ATOM     24  O   UNL     1     -11.954  14.498  68.126  0.00  0.00    -0.218 OA
ENDROOT
BRANCH   1  26
ATOM     25  C   UNL     1     -12.882  13.846  65.832  0.00  0.00    +0.075 C 
ATOM     26  C   UNL     1     -12.074  13.417  66.044  0.00  0.00    +0.178 C 
ATOM     27  O   UNL     1     -12.195  12.197  66.135  0.00  0.00    -0.293 OA
ENDBRANCH   1  26
TORSDOF 1
ENDMDL
MODEL 8
REMARK VINA RESULT:      -6.9      2.101      3.649
REMARK  Name = 
REMARK  1 active torsions:
REMARK  status: ('A' for Active; 'I' for Inactive)
REMARK    1  A    between atoms: C_2  and  C_4
REMARK                            x       y       z     vdW  Elec       q    Type
REMARK                         _______ _______ _______ _____ _____    ______ ____
ROOT
ATOM      1  C   UNL     1      -9.800  17.912  66.654  0.00  0.00    +0.177 C 
ATOM      2  C   UNL     1     -10.020  16.702  67.414  0.00  0.00    +0.035 C 
ATOM      3  C   UNL     1      -8.971  15.805  66.564  0.00  0.00    +0.006 C 
ATOM      4  C   UNL     1      -9.038  14.595  67.742  0.00  0.00    +0.034 C 
ATOM      5  C   UNL     1     -10.035  13.741  66.833  0.00  0.00    +0.168 C 
ATOM      6  C   UNL     1     -11.164  14.756  66.242  0.00  0.00    +0.182 C 
ATOM      7  O   UNL     1     -12.351  14.003  66.819  0.00  0.00    -0.220 OA
ATOM      8  F   UNL     1      -9.405  13.698  65.559  0.00  0.00    -0.237 F 
ATOM      9  C   UNL     1     -10.297  12.433  67.160  0.00  0.00    +0.064 C 
ATOM     10  C   UNL     1      -8.928  11.789  67.157  0.00  0.00    -0.036 C 
ATOM     11  C   UNL     1      -8.873  10.452  67.177  0.00  0.00    +0.034 C 
ATOM     12  C   UNL     1      -9.909   9.752  66.402  0.00  0.00    +0.195 C 
ATOM     13  C   UNL     1     -10.711  10.602  65.525  0.00  0.00    +0.038 C 
ATOM     14  O   UNL     1      -9.868   8.508  66.294  0.00  0.00    -0.287 OA
ATOM     15  C   UNL     1      -7.840  12.481  68.108  0.00  0.00    +0.019 C 
ATOM     16  C   UNL     1      -6.583  11.770  67.339  0.00  0.00    +0.004 C 
ATOM     17  C   UNL     1     -11.092  11.813  68.241  0.00  0.00    +0.011 C 
ATOM     18  C   UNL     1     -10.900  11.830  65.915  0.00  0.00    -0.017 C 
ATOM     19  C   UNL     1      -7.703  13.839  67.209  0.00  0.00    +0.007 C 
ATOM     20  C   UNL     1      -7.750  16.686  67.144  0.00  0.00    +0.003 C 
ATOM     21  C   UNL     1      -9.434  16.846  68.795  0.00  0.00    +0.003 C 
ATOM     22  C   UNL     1     -11.206  15.887  67.449  0.00  0.00    +0.038 C 
ATOM     23  C   UNL     1      -8.280  17.939  66.432  0.00  0.00    +0.038 C 
ATOM     24  O   UNL     1     -10.496  17.978  65.458  0.00  0.00    -0.218 OA
ENDROOT
BRANCH   1  26
ATOM     25  C   UNL     1     -10.797  19.660  67.199  0.00  0.00    +0.075 C 
ATOM     26  C   UNL     1      -9.998  19.208  67.398  0.00  0.00    +0.178 C 
ATOM     27  O   UNL     1      -9.049  19.970  67.562  0.00  0.00    -0.293 OA
ENDBRANCH   1  26
TORSDOF 1
ENDMDL
MODEL 9
REMARK VINA RESULT:      -6.6      1.767      3.065
REMARK  Name = 
REMARK  1 active torsions:
REMARK  status: ('A' for Active; 'I' for Inactive)
REMARK    1  A    between atoms: C_2  and  C_4
REMARK                            x       y       z     vdW  Elec       q    Type
REMARK                         _______ _______ _______ _____ _____    ______ ____
ROOT
ATOM      1  C   UNL     1      -6.111  19.265  67.290  0.00  0.00    +0.177 C 
ATOM      2  C   UNL     1      -7.145  18.461  67.900  0.00  0.00    +0.035 C 
ATOM      3  C   UNL     1      -6.878  17.157  66.974  0.00  0.00    +0.006 C 
ATOM      4  C   UNL     1      -7.838  16.220  68.003  0.00  0.00    +0.034 C 
ATOM      5  C   UNL     1      -9.060  16.317  66.980  0.00  0.00    +0.168 C 
ATOM      6  C   UNL     1      -9.174  17.866  66.487  0.00  0.00    +0.182 C 
ATOM      7  O   UNL     1     -10.609  18.058  66.947  0.00  0.00    -0.220 OA
ATOM      8  F   UNL     1      -8.501  15.956  65.724  0.00  0.00    -0.237 F 
ATOM      9  C   UNL     1     -10.150  15.500  67.147  0.00  0.00    +0.064 C 
ATOM     10  C   UNL     1      -9.557  14.108  67.099  0.00  0.00    -0.036 C 
ATOM     11  C   UNL     1     -10.402  13.080  66.965  0.00  0.00    +0.034 C 
ATOM     12  C   UNL     1     -11.563  13.307  66.093  0.00  0.00    +0.195 C 
ATOM     13  C   UNL     1     -11.517  14.536  65.303  0.00  0.00    +0.038 C 
ATOM     14  O   UNL     1     -12.345  12.366  65.842  0.00  0.00    -0.287 OA
ATOM     15  C   UNL     1      -8.377  13.826  68.147  0.00  0.00    +0.019 C 
ATOM     16  C   UNL     1      -7.840  12.516  67.328  0.00  0.00    +0.004 C 
ATOM     17  C   UNL     1     -11.253  15.492  68.132  0.00  0.00    +0.011 C 
ATOM     18  C   UNL     1     -10.882  15.544  65.829  0.00  0.00    -0.017 C 
ATOM     19  C   UNL     1      -7.294  14.806  67.414  0.00  0.00    +0.007 C 
ATOM     20  C   UNL     1      -5.441  16.953  67.678  0.00  0.00    +0.003 C 
ATOM     21  C   UNL     1      -6.742  18.077  69.301  0.00  0.00    +0.003 C 
ATOM     22  C   UNL     1      -8.570  18.645  67.816  0.00  0.00    +0.038 C 
ATOM     23  C   UNL     1      -4.941  18.286  67.105  0.00  0.00    +0.038 C 
ATOM     24  O   UNL     1      -6.473  19.865  66.095  0.00  0.00    -0.218 OA
ENDROOT
BRANCH   1  26
ATOM     25  C   UNL     1      -5.750  21.187  68.015  0.00  0.00    +0.075 C 
ATOM     26  C   UNL     1      -5.471  20.305  68.174  0.00  0.00    +0.178 C 
ATOM     27  O   UNL     1      -4.275  20.226  68.443  0.00  0.00    -0.293 OA
ENDBRANCH   1  26
TORSDOF 1
ENDMDL
