MODEL 1
REMARK VINA RESULT:      -6.9      0.000      0.000
REMARK  Name = 
REMARK  4 active torsions:
REMARK  status: ('A' for Active; 'I' for Inactive)
REMARK    1  A    between atoms: O_2  and  C_3
REMARK    2  A    between atoms: C_4  and  N_5
REMARK    3  A    between atoms: C_18  and  C_19
REMARK    4  A    between atoms: N_23  and  C_24
REMARK                            x       y       z     vdW  Elec       q    Type
REMARK                         _______ _______ _______ _____ _____    ______ ____
ROOT
ATOM      1  C   UNL     1     -10.408  15.645  67.948  0.00  0.00    +0.170 A 
ATOM      2  C   UNL     1     -11.291  14.918  67.155  0.00  0.00    +0.099 A 
ATOM      3  C   UNL     1     -11.532  15.357  65.855  0.00  0.00    +0.060 A 
ATOM      4  C   UNL     1     -12.164  14.429  65.033  0.00  0.00    +0.205 A 
ATOM      5  C   UNL     1     -12.104  13.059  65.275  0.00  0.00    +0.136 A 
ATOM      6  C   UNL     1     -11.894  12.729  66.610  0.00  0.00    +0.086 A 
ATOM      7  O   UNL     1     -12.509  14.819  63.906  0.00  0.00    -0.286 OA
ATOM      8  C   UNL     1     -10.729  16.374  65.342  0.00  0.00    +0.036 A 
ATOM      9  C   UNL     1      -9.547  16.710  65.986  0.00  0.00    +0.157 A 
ATOM     10  F   UNL     1      -8.377  16.963  65.382  0.00  0.00    -0.203 F 
ATOM     11  N   UNL     1     -11.645  13.672  67.560  0.00  0.00    -0.325 N 
ATOM     12  C   UNL     1      -9.523  16.552  67.368  0.00  0.00    +0.112 A 
ENDROOT
BRANCH  12  13
ATOM     13  N   UNL     1      -8.830  17.509  68.146  0.00  0.00    -0.300 N 
ATOM     14  C   UNL     1      -7.619  18.108  67.594  0.00  0.00    +0.108 C 
ATOM     15  C   UNL     1      -7.903  19.724  67.547  0.00  0.00    +0.093 C 
ATOM     16  C   UNL     1      -7.127  19.893  66.108  0.00  0.00    +0.021 C 
ATOM     17  N   UNL     1      -9.296  19.546  66.838  0.00  0.00    -0.216 NA
ATOM     18  C   UNL     1     -10.169  19.557  68.010  0.00  0.00    +0.110 C 
ATOM     19  C   UNL     1      -9.665  18.434  68.911  0.00  0.00    +0.110 C 
ENDBRANCH  12  13
BRANCH   5  20
ATOM     20  C   UNL     1     -11.791  12.115  64.188  0.00  0.00    +0.392 C 
ATOM     21  O   UNL     1     -10.556  12.303  63.551  0.00  0.00    -0.240 OA
ATOM     22  O   UNL     1     -12.754  11.906  63.388  0.00  0.00    -0.240 OA
ENDBRANCH   5  20
BRANCH  11  23
ATOM     23  C   UNL     1     -11.751  13.369  68.890  0.00  0.00    +0.086 C 
ATOM     24  C   UNL     1     -11.166  11.915  69.042  0.00  0.00    +0.024 C 
ATOM     25  C   UNL     1     -12.067  12.574  69.944  0.00  0.00    +0.024 C 
ENDBRANCH  11  23
BRANCH   1  27
ATOM     26  C   UNL     1      -8.813  14.847  69.472  0.00  0.00    +0.253 C 
ATOM     27  O   UNL     1     -10.036  15.115  69.183  0.00  0.00    -0.469 OA
ENDBRANCH   1  27
TORSDOF 4
ENDMDL
MODEL 2
REMARK VINA RESULT:      -6.8      3.907      7.179
REMARK  Name = 
REMARK  4 active torsions:
REMARK  status: ('A' for Active; 'I' for Inactive)
REMARK    1  A    between atoms: O_2  and  C_3
REMARK    2  A    between atoms: C_4  and  N_5
REMARK    3  A    between atoms: C_18  and  C_19
REMARK    4  A    between atoms: N_23  and  C_24
REMARK                            x       y       z     vdW  Elec       q    Type
REMARK                         _______ _______ _______ _____ _____    ______ ____
ROOT
ATOM      1  C   UNL     1     -10.984  10.956  69.140  0.00  0.00    +0.170 A 
ATOM      2  C   UNL     1     -10.874  11.847  68.077  0.00  0.00    +0.099 A 
ATOM      3  C   UNL     1     -10.225  11.424  66.920  0.00  0.00    +0.060 A 
ATOM      4  C   UNL     1     -10.424  12.236  65.808  0.00  0.00    +0.205 A 
ATOM      5  C   UNL     1     -11.532  13.070  65.686  0.00  0.00    +0.136 A 
ATOM      6  C   UNL     1     -12.082  13.462  66.902  0.00  0.00    +0.086 A 
ATOM      7  O   UNL     1      -9.766  11.967  64.790  0.00  0.00    -0.286 OA
ATOM      8  C   UNL     1      -9.902  10.073  66.801  0.00  0.00    +0.036 A 
ATOM      9  C   UNL     1     -10.481   9.148  67.655  0.00  0.00    +0.157 A 
ATOM     10  F   UNL     1     -10.962   7.949  67.295  0.00  0.00    -0.203 F 
ATOM     11  N   UNL     1     -11.644  12.964  68.090  0.00  0.00    -0.325 N 
ATOM     12  C   UNL     1     -10.789   9.591  68.939  0.00  0.00    +0.112 A 
ENDROOT
BRANCH  12  13
ATOM     13  N   UNL     1     -10.602   8.702  70.024  0.00  0.00    -0.300 N 
ATOM     14  C   UNL     1     -10.736   7.270  69.780  0.00  0.00    +0.108 C 
ATOM     15  C   UNL     1      -9.294   6.609  70.200  0.00  0.00    +0.093 C 
ATOM     16  C   UNL     1      -9.333   5.544  68.949  0.00  0.00    +0.021 C 
ATOM     17  N   UNL     1      -8.471   7.654  69.359  0.00  0.00    -0.216 NA
ATOM     18  C   UNL     1      -8.182   8.634  70.404  0.00  0.00    +0.110 C 
ATOM     19  C   UNL     1      -9.537   9.057  70.961  0.00  0.00    +0.110 C 
ENDBRANCH  12  13
BRANCH   5  20
ATOM     20  C   UNL     1     -12.314  13.106  64.437  0.00  0.00    +0.392 C 
ATOM     21  O   UNL     1     -12.584  14.381  63.921  0.00  0.00    -0.240 OA
ATOM     22  O   UNL     1     -13.315  12.326  64.430  0.00  0.00    -0.240 OA
ENDBRANCH   5  20
BRANCH  11  23
ATOM     23  C   UNL     1     -11.971  13.579  69.268  0.00  0.00    +0.086 C 
ATOM     24  C   UNL     1     -11.615  15.099  69.067  0.00  0.00    +0.024 C 
ATOM     25  C   UNL     1     -11.752  14.410  70.318  0.00  0.00    +0.024 C 
ENDBRANCH  11  23
BRANCH   1  27
ATOM     26  C   UNL     1     -12.807  10.632  70.583  0.00  0.00    +0.253 C 
ATOM     27  O   UNL     1     -11.778  11.316  70.229  0.00  0.00    -0.469 OA
ENDBRANCH   1  27
TORSDOF 4
ENDMDL
MODEL 3
REMARK VINA RESULT:      -6.7      2.461      4.649
REMARK  Name = 
REMARK  4 active torsions:
REMARK  status: ('A' for Active; 'I' for Inactive)
REMARK    1  A    between atoms: O_2  and  C_3
REMARK    2  A    between atoms: C_4  and  N_5
REMARK    3  A    between atoms: C_18  and  C_19
REMARK    4  A    between atoms: N_23  and  C_24
REMARK                            x       y       z     vdW  Elec       q    Type
REMARK                         _______ _______ _______ _____ _____    ______ ____
ROOT
ATOM      1  C   UNL     1     -10.563  14.888  67.879  0.00  0.00    +0.170 A 
ATOM      2  C   UNL     1     -11.010  14.473  69.131  0.00  0.00    +0.099 A 
ATOM      3  C   UNL     1     -10.875  15.348  70.206  0.00  0.00    +0.060 A 
ATOM      4  C   UNL     1     -11.612  15.003  71.336  0.00  0.00    +0.205 A 
ATOM      5  C   UNL     1     -12.747  14.199  71.266  0.00  0.00    +0.136 A 
ATOM      6  C   UNL     1     -12.764  13.339  70.172  0.00  0.00    +0.086 A 
ATOM      7  O   UNL     1     -11.426  15.683  72.358  0.00  0.00    -0.286 OA
ATOM      8  C   UNL     1     -10.495  16.663  69.945  0.00  0.00    +0.036 A 
ATOM      9  C   UNL     1     -10.555  17.153  68.650  0.00  0.00    +0.157 A 
ATOM     10  F   UNL     1     -11.016  18.362  68.296  0.00  0.00    -0.203 F 
ATOM     11  N   UNL     1     -11.812  13.382  69.200  0.00  0.00    -0.325 N 
ATOM     12  C   UNL     1     -10.331  16.238  67.625  0.00  0.00    +0.112 A 
ENDROOT
BRANCH  12  13
ATOM     13  N   UNL     1      -9.609  16.663  66.485  0.00  0.00    -0.300 N 
ATOM     14  C   UNL     1      -9.569  18.088  66.179  0.00  0.00    +0.108 C 
ATOM     15  C   UNL     1      -7.981  18.502  66.188  0.00  0.00    +0.093 C 
ATOM     16  C   UNL     1      -8.285  19.950  66.902  0.00  0.00    +0.021 C 
ATOM     17  N   UNL     1      -7.719  17.810  67.576  0.00  0.00    -0.216 NA
ATOM     18  C   UNL     1      -7.246  16.506  67.113  0.00  0.00    +0.110 C 
ATOM     19  C   UNL     1      -8.356  15.955  66.225  0.00  0.00    +0.110 C 
ENDBRANCH  12  13
BRANCH   5  20
ATOM     20  C   UNL     1     -13.985  14.582  71.968  0.00  0.00    +0.392 C 
ATOM     21  O   UNL     1     -14.755  13.523  72.469  0.00  0.00    -0.240 OA
ATOM     22  O   UNL     1     -14.663  15.474  71.373  0.00  0.00    -0.240 OA
ENDBRANCH   5  20
BRANCH  11  23
ATOM     23  C   UNL     1     -11.669  12.347  68.317  0.00  0.00    +0.086 C 
ATOM     24  C   UNL     1     -11.662  11.039  69.194  0.00  0.00    +0.024 C 
ATOM     25  C   UNL     1     -11.131  11.184  67.869  0.00  0.00    +0.024 C 
ENDBRANCH  11  23
BRANCH   1  27
ATOM     26  C   UNL     1     -11.679  14.452  65.862  0.00  0.00    +0.253 C 
ATOM     27  O   UNL     1     -10.851  14.087  66.774  0.00  0.00    -0.469 OA
ENDBRANCH   1  27
TORSDOF 4
ENDMDL
MODEL 4
REMARK VINA RESULT:      -6.5      4.574      8.631
REMARK  Name = 
REMARK  4 active torsions:
REMARK  status: ('A' for Active; 'I' for Inactive)
REMARK    1  A    between atoms: O_2  and  C_3
REMARK    2  A    between atoms: C_4  and  N_5
REMARK    3  A    between atoms: C_18  and  C_19
REMARK    4  A    between atoms: N_23  and  C_24
REMARK                            x       y       z     vdW  Elec       q    Type
REMARK                         _______ _______ _______ _____ _____    ______ ____
ROOT
ATOM      1  C   UNL     1     -10.883  10.064  68.730  0.00  0.00    +0.170 A 
ATOM      2  C   UNL     1     -11.718  11.081  69.184  0.00  0.00    +0.099 A 
ATOM      3  C   UNL     1     -12.211  11.005  70.484  0.00  0.00    +0.060 A 
ATOM      4  C   UNL     1     -12.769  12.186  70.967  0.00  0.00    +0.205 A 
ATOM      5  C   UNL     1     -12.427  13.434  70.454  0.00  0.00    +0.136 A 
ATOM      6  C   UNL     1     -11.979  13.400  69.137  0.00  0.00    +0.086 A 
ATOM      7  O   UNL     1     -13.331  12.130  72.073  0.00  0.00    -0.286 OA
ATOM      8  C   UNL     1     -11.686  10.034  71.334  0.00  0.00    +0.036 A 
ATOM      9  C   UNL     1     -10.509   9.384  70.994  0.00  0.00    +0.157 A 
ATOM     10  F   UNL     1      -9.499   9.113  71.833  0.00  0.00    -0.203 F 
ATOM     11  N   UNL     1     -11.779  12.232  68.468  0.00  0.00    -0.325 N 
ATOM     12  C   UNL     1     -10.267   9.202  69.635  0.00  0.00    +0.112 A 
ENDROOT
BRANCH  12  13
ATOM     13  N   UNL     1      -9.660   7.996  69.212  0.00  0.00    -0.300 N 
ATOM     14  C   UNL     1      -8.743   7.322  70.125  0.00  0.00    +0.108 C 
ATOM     15  C   UNL     1      -9.377   5.828  70.372  0.00  0.00    +0.093 C 
ATOM     16  C   UNL     1      -8.956   5.830  71.960  0.00  0.00    +0.021 C 
ATOM     17  N   UNL     1     -10.810   6.394  70.693  0.00  0.00    -0.216 NA
ATOM     18  C   UNL     1     -11.415   6.292  69.367  0.00  0.00    +0.110 C 
ATOM     19  C   UNL     1     -10.511   7.093  68.437  0.00  0.00    +0.110 C 
ENDBRANCH  12  13
BRANCH   5  20
ATOM     20  C   UNL     1     -12.098  14.554  71.353  0.00  0.00    +0.392 C 
ATOM     21  O   UNL     1     -13.153  15.428  71.652  0.00  0.00    -0.240 OA
ATOM     22  O   UNL     1     -11.008  15.140  71.074  0.00  0.00    -0.240 OA
ENDBRANCH   5  20
BRANCH  11  23
ATOM     23  C   UNL     1     -11.645  12.221  67.106  0.00  0.00    +0.086 C 
ATOM     24  C   UNL     1     -10.853  13.534  66.747  0.00  0.00    +0.024 C 
ATOM     25  C   UNL     1     -11.690  12.771  65.866  0.00  0.00    +0.024 C 
ENDBRANCH  11  23
BRANCH   1  27
ATOM     26  C   UNL     1      -8.979  10.344  67.387  0.00  0.00    +0.253 C 
ATOM     27  O   UNL     1     -10.254  10.223  67.496  0.00  0.00    -0.469 OA
ENDBRANCH   1  27
TORSDOF 4
ENDMDL
MODEL 5
REMARK VINA RESULT:      -6.4      2.263      3.147
REMARK  Name = 
REMARK  4 active torsions:
REMARK  status: ('A' for Active; 'I' for Inactive)
REMARK    1  A    between atoms: O_2  and  C_3
REMARK    2  A    between atoms: C_4  and  N_5
REMARK    3  A    between atoms: C_18  and  C_19
REMARK    4  A    between atoms: N_23  and  C_24
REMARK                            x       y       z     vdW  Elec       q    Type
REMARK                         _______ _______ _______ _____ _____    ______ ____
ROOT
ATOM      1  C   UNL     1      -9.833  12.987  67.371  0.00  0.00    +0.170 A 
ATOM      2  C   UNL     1     -10.306  12.214  66.314  0.00  0.00    +0.099 A 
ATOM      3  C   UNL     1     -10.887  12.862  65.227  0.00  0.00    +0.060 A 
ATOM      4  C   UNL     1     -11.047  12.071  64.092  0.00  0.00    +0.205 A 
ATOM      5  C   UNL     1     -10.268  10.941  63.859  0.00  0.00    +0.136 A 
ATOM      6  C   UNL     1      -9.765  10.352  65.015  0.00  0.00    +0.086 A 
ATOM      7  O   UNL     1     -11.672  12.570  63.143  0.00  0.00    -0.286 OA
ATOM      8  C   UNL     1     -10.783  14.250  65.151  0.00  0.00    +0.036 A 
ATOM      9  C   UNL     1      -9.873  14.917  65.957  0.00  0.00    +0.157 A 
ATOM     10  F   UNL     1      -9.077  15.922  65.566  0.00  0.00    -0.203 F 
ATOM     11  N   UNL     1      -9.924  10.914  66.244  0.00  0.00    -0.325 N 
ATOM     12  C   UNL     1      -9.611  14.352  67.202  0.00  0.00    +0.112 A 
ENDROOT
BRANCH  12  13
ATOM     13  N   UNL     1      -9.418  15.212  68.308  0.00  0.00    -0.300 N 
ATOM     14  C   UNL     1      -9.034  16.596  68.054  0.00  0.00    +0.108 C 
ATOM     15  C   UNL     1     -10.213  17.518  68.729  0.00  0.00    +0.093 C 
ATOM     16  C   UNL     1     -10.171  18.605  67.498  0.00  0.00    +0.021 C 
ATOM     17  N   UNL     1     -11.367  16.699  68.041  0.00  0.00    -0.216 NA
ATOM     18  C   UNL     1     -11.668  15.754  69.115  0.00  0.00    +0.110 C 
ATOM     19  C   UNL     1     -10.355  15.041  69.419  0.00  0.00    +0.110 C 
ENDBRANCH  12  13
BRANCH   5  20
ATOM     20  C   UNL     1      -9.645  10.714  62.543  0.00  0.00    +0.392 C 
ATOM     21  O   UNL     1      -9.419   9.375  62.196  0.00  0.00    -0.240 OA
ATOM     22  O   UNL     1      -8.667  11.482  62.293  0.00  0.00    -0.240 OA
ENDBRANCH   5  20
BRANCH  11  23
ATOM     23  C   UNL     1      -9.704  10.184  67.380  0.00  0.00    +0.086 C 
ATOM     24  C   UNL     1     -10.512   8.847  67.187  0.00  0.00    +0.024 C 
ATOM     25  C   UNL     1     -10.079   9.413  68.432  0.00  0.00    +0.024 C 
ENDBRANCH  11  23
BRANCH   1  27
ATOM     26  C   UNL     1      -7.830  12.506  68.495  0.00  0.00    +0.253 C 
ATOM     27  O   UNL     1      -9.101  12.357  68.377  0.00  0.00    -0.469 OA
ENDBRANCH   1  27
TORSDOF 4
ENDMDL
MODEL 6
REMARK VINA RESULT:      -6.2      1.924      2.590
REMARK  Name = 
REMARK  4 active torsions:
REMARK  status: ('A' for Active; 'I' for Inactive)
REMARK    1  A    between atoms: O_2  and  C_3
REMARK    2  A    between atoms: C_4  and  N_5
REMARK    3  A    between atoms: C_18  and  C_19
REMARK    4  A    between atoms: N_23  and  C_24
REMARK                            x       y       z     vdW  Elec       q    Type
REMARK                         _______ _______ _______ _____ _____    ______ ____
ROOT
ATOM      1  C   UNL     1      -8.522  16.636  68.329  0.00  0.00    +0.170 A 
ATOM      2  C   UNL     1      -9.674  16.373  67.594  0.00  0.00    +0.099 A 
ATOM      3  C   UNL     1      -9.807  16.958  66.337  0.00  0.00    +0.060 A 
ATOM      4  C   UNL     1     -10.813  16.413  65.543  0.00  0.00    +0.205 A 
ATOM      5  C   UNL     1     -11.291  15.120  65.733  0.00  0.00    +0.136 A 
ATOM      6  C   UNL     1     -11.140  14.646  67.032  0.00  0.00    +0.086 A 
ATOM      7  O   UNL     1     -11.049  16.983  64.465  0.00  0.00    -0.286 OA
ATOM      8  C   UNL     1      -8.701  17.604  65.788  0.00  0.00    +0.036 A 
ATOM      9  C   UNL     1      -7.443  17.400  66.335  0.00  0.00    +0.157 A 
ATOM     10  F   UNL     1      -6.314  17.208  65.637  0.00  0.00    -0.203 F 
ATOM     11  N   UNL     1     -10.469  15.347  67.987  0.00  0.00    -0.325 N 
ATOM     12  C   UNL     1      -7.389  17.154  67.703  0.00  0.00    +0.112 A 
ENDROOT
BRANCH  12  13
ATOM     13  N   UNL     1      -6.319  17.703  68.448  0.00  0.00    -0.300 N 
ATOM     14  C   UNL     1      -5.023  17.855  67.794  0.00  0.00    +0.108 C 
ATOM     15  C   UNL     1      -4.671  19.456  67.869  0.00  0.00    +0.093 C 
ATOM     16  C   UNL     1      -4.016  19.459  66.363  0.00  0.00    +0.021 C 
ATOM     17  N   UNL     1      -6.082  19.882  67.317  0.00  0.00    -0.216 NA
ATOM     18  C   UNL     1      -6.780  20.106  68.581  0.00  0.00    +0.110 C 
ATOM     19  C   UNL     1      -6.669  18.797  69.354  0.00  0.00    +0.110 C 
ENDBRANCH  12  13
BRANCH   5  20
ATOM     20  C   UNL     1     -11.458  14.203  64.591  0.00  0.00    +0.392 C 
ATOM     21  O   UNL     1     -12.739  13.659  64.426  0.00  0.00    -0.240 OA
ATOM     22  O   UNL     1     -10.520  13.358  64.463  0.00  0.00    -0.240 OA
ENDBRANCH   5  20
BRANCH  11  23
ATOM     23  C   UNL     1     -10.597  15.023  69.310  0.00  0.00    +0.086 C 
ATOM     24  C   UNL     1     -12.083  15.376  69.692  0.00  0.00    +0.024 C 
ATOM     25  C   UNL     1     -10.975  15.245  70.594  0.00  0.00    +0.024 C 
ENDBRANCH  11  23
BRANCH   1  27
ATOM     26  C   UNL     1      -7.341  15.087  69.637  0.00  0.00    +0.253 C 
ATOM     27  O   UNL     1      -8.309  15.921  69.507  0.00  0.00    -0.469 OA
ENDBRANCH   1  27
TORSDOF 4
ENDMDL
MODEL 7
REMARK VINA RESULT:      -6.1      4.600      8.088
REMARK  Name = 
REMARK  4 active torsions:
REMARK  status: ('A' for Active; 'I' for Inactive)
REMARK    1  A    between atoms: O_2  and  C_3
REMARK    2  A    between atoms: C_4  and  N_5
REMARK    3  A    between atoms: C_18  and  C_19
REMARK    4  A    between atoms: N_23  and  C_24
REMARK                            x       y       z     vdW  Elec       q    Type
REMARK                         _______ _______ _______ _____ _____    ______ ____
ROOT
ATOM      1  C   UNL     1     -11.294  10.206  70.338  0.00  0.00    +0.170 A 
ATOM      2  C   UNL     1     -10.895  11.097  69.345  0.00  0.00    +0.099 A 
ATOM      3  C   UNL     1      -9.976  10.662  68.393  0.00  0.00    +0.060 A 
ATOM      4  C   UNL     1      -9.864  11.480  67.273  0.00  0.00    +0.205 A 
ATOM      5  C   UNL     1     -10.887  12.336  66.873  0.00  0.00    +0.136 A 
ATOM      6  C   UNL     1     -11.726  12.737  67.907  0.00  0.00    +0.086 A 
ATOM      7  O   UNL     1      -8.970  11.199  66.458  0.00  0.00    -0.286 OA
ATOM      8  C   UNL     1      -9.659   9.306  68.353  0.00  0.00    +0.036 A 
ATOM      9  C   UNL     1     -10.457   8.391  69.022  0.00  0.00    +0.157 A 
ATOM     10  F   UNL     1     -10.850   7.202  68.541  0.00  0.00    -0.203 F 
ATOM     11  N   UNL     1     -11.620  12.229  69.166  0.00  0.00    -0.325 N 
ATOM     12  C   UNL     1     -11.078   8.838  70.185  0.00  0.00    +0.112 A 
ENDROOT
BRANCH  12  13
ATOM     13  N   UNL     1     -11.196   7.944  71.275  0.00  0.00    -0.300 N 
ATOM     14  C   UNL     1     -11.347   6.521  70.994  0.00  0.00    +0.108 C 
ATOM     15  C   UNL     1     -10.079   5.784  71.731  0.00  0.00    +0.093 C 
ATOM     16  C   UNL     1      -9.883   4.719  70.495  0.00  0.00    +0.021 C 
ATOM     17  N   UNL     1      -9.029   6.779  71.112  0.00  0.00    -0.216 NA
ATOM     18  C   UNL     1      -8.938   7.746  72.205  0.00  0.00    +0.110 C 
ATOM     19  C   UNL     1     -10.360   8.244  72.437  0.00  0.00    +0.110 C 
ENDBRANCH  12  13
BRANCH   5  20
ATOM     20  C   UNL     1     -11.317  12.389  65.464  0.00  0.00    +0.392 C 
ATOM     21  O   UNL     1     -10.700  13.367  64.672  0.00  0.00    -0.240 OA
ATOM     22  O   UNL     1     -12.574  12.315  65.303  0.00  0.00    -0.240 OA
ENDBRANCH   5  20
BRANCH  11  23
ATOM     23  C   UNL     1     -12.230  12.848  70.222  0.00  0.00    +0.086 C 
ATOM     24  C   UNL     1     -12.040  14.392  69.978  0.00  0.00    +0.024 C 
ATOM     25  C   UNL     1     -12.312  13.751  71.232  0.00  0.00    +0.024 C 
ENDBRANCH  11  23
BRANCH   1  27
ATOM     26  C   UNL     1     -13.430   9.912  71.263  0.00  0.00    +0.253 C 
ATOM     27  O   UNL     1     -12.336  10.581  71.185  0.00  0.00    -0.469 OA
ENDBRANCH   1  27
TORSDOF 4
ENDMDL
MODEL 8
REMARK VINA RESULT:      -6.1      4.381      6.716
REMARK  Name = 
REMARK  4 active torsions:
REMARK  status: ('A' for Active; 'I' for Inactive)
REMARK    1  A    between atoms: O_2  and  C_3
REMARK    2  A    between atoms: C_4  and  N_5
REMARK    3  A    between atoms: C_18  and  C_19
REMARK    4  A    between atoms: N_23  and  C_24
REMARK                            x       y       z     vdW  Elec       q    Type
REMARK                         _______ _______ _______ _____ _____    ______ ____
ROOT
ATOM      1  C   UNL     1      -9.955  10.323  68.875  0.00  0.00    +0.170 A 
ATOM      2  C   UNL     1     -10.676   9.953  70.007  0.00  0.00    +0.099 A 
ATOM      3  C   UNL     1     -11.616  10.845  70.516  0.00  0.00    +0.060 A 
ATOM      4  C   UNL     1     -12.503  10.296  71.438  0.00  0.00    +0.205 A 
ATOM      5  C   UNL     1     -12.785   8.933  71.476  0.00  0.00    +0.136 A 
ATOM      6  C   UNL     1     -11.765   8.130  70.975  0.00  0.00    +0.086 A 
ATOM      7  O   UNL     1     -13.277  11.081  72.009  0.00  0.00    -0.286 OA
ATOM      8  C   UNL     1     -11.939  11.968  69.757  0.00  0.00    +0.036 A 
ATOM      9  C   UNL     1     -11.573  12.026  68.421  0.00  0.00    +0.157 A 
ATOM     10  F   UNL     1     -12.348  12.469  67.421  0.00  0.00    -0.203 F 
ATOM     11  N   UNL     1     -10.654   8.651  70.388  0.00  0.00    -0.325 N 
ATOM     12  C   UNL     1     -10.399  11.367  68.066  0.00  0.00    +0.112 A 
ENDROOT
BRANCH  12  13
ATOM     13  N   UNL     1      -9.560  11.959  67.094  0.00  0.00    -0.300 N 
ATOM     14  C   UNL     1     -10.147  12.902  66.149  0.00  0.00    +0.108 C 
ATOM     15  C   UNL     1      -9.332  14.311  66.360  0.00  0.00    +0.093 C 
ATOM     16  C   UNL     1     -10.692  15.214  66.165  0.00  0.00    +0.021 C 
ATOM     17  N   UNL     1      -9.509  14.281  67.923  0.00  0.00    -0.216 NA
ATOM     18  C   UNL     1      -8.249  13.643  68.298  0.00  0.00    +0.110 C 
ATOM     19  C   UNL     1      -8.216  12.317  67.546  0.00  0.00    +0.110 C 
ENDBRANCH  12  13
BRANCH   5  20
ATOM     20  C   UNL     1     -14.176   8.454  71.559  0.00  0.00    +0.392 C 
ATOM     21  O   UNL     1     -14.825   8.669  72.783  0.00  0.00    -0.240 OA
ATOM     22  O   UNL     1     -14.353   7.292  71.080  0.00  0.00    -0.240 OA
ENDBRANCH   5  20
BRANCH  11  23
ATOM     23  C   UNL     1      -9.542   7.879  70.188  0.00  0.00    +0.086 C 
ATOM     24  C   UNL     1      -9.221   7.228  71.586  0.00  0.00    +0.024 C 
ATOM     25  C   UNL     1      -8.307   7.407  70.495  0.00  0.00    +0.024 C 
ENDBRANCH  11  23
BRANCH   1  27
ATOM     26  C   UNL     1      -9.395   8.897  67.097  0.00  0.00    +0.253 C 
ATOM     27  O   UNL     1      -9.141   9.368  68.265  0.00  0.00    -0.469 OA
ENDBRANCH   1  27
TORSDOF 4
ENDMDL
MODEL 9
REMARK VINA RESULT:      -5.9      1.723      2.061
REMARK  Name = 
REMARK  4 active torsions:
REMARK  status: ('A' for Active; 'I' for Inactive)
REMARK    1  A    between atoms: O_2  and  C_3
REMARK    2  A    between atoms: C_4  and  N_5
REMARK    3  A    between atoms: C_18  and  C_19
REMARK    4  A    between atoms: N_23  and  C_24
REMARK                            x       y       z     vdW  Elec       q    Type
REMARK                         _______ _______ _______ _____ _____    ______ ____
ROOT
ATOM      1  C   UNL     1     -10.543  15.156  68.333  0.00  0.00    +0.170 A 
ATOM      2  C   UNL     1     -11.047  14.003  67.736  0.00  0.00    +0.099 A 
ATOM      3  C   UNL     1     -10.893  13.846  66.361  0.00  0.00    +0.060 A 
ATOM      4  C   UNL     1     -11.132  12.558  65.890  0.00  0.00    +0.205 A 
ATOM      5  C   UNL     1     -11.025  11.436  66.708  0.00  0.00    +0.136 A 
ATOM      6  C   UNL     1     -11.231  11.699  68.058  0.00  0.00    +0.086 A 
ATOM      7  O   UNL     1     -11.128  12.400  64.659  0.00  0.00    -0.286 OA
ATOM      8  C   UNL     1     -10.066  14.739  65.682  0.00  0.00    +0.036 A 
ATOM      9  C   UNL     1      -9.195  15.550  66.395  0.00  0.00    +0.157 A 
ATOM     10  F   UNL     1      -7.922  15.806  66.062  0.00  0.00    -0.203 F 
ATOM     11  N   UNL     1     -11.394  12.963  68.535  0.00  0.00    -0.325 N 
ATOM     12  C   UNL     1      -9.607  15.944  67.665  0.00  0.00    +0.112 A 
ENDROOT
BRANCH  12  13
ATOM     13  N   UNL     1      -9.298  17.253  68.100  0.00  0.00    -0.300 N 
ATOM     14  C   UNL     1      -7.968  17.783  67.820  0.00  0.00    +0.108 C 
ATOM     15  C   UNL     1      -8.207  19.139  66.926  0.00  0.00    +0.093 C 
ATOM     16  C   UNL     1      -6.905  18.829  65.972  0.00  0.00    +0.021 C 
ATOM     17  N   UNL     1      -9.182  18.413  65.927  0.00  0.00    -0.216 NA
ATOM     18  C   UNL     1     -10.462  18.750  66.548  0.00  0.00    +0.110 C 
ATOM     19  C   UNL     1     -10.375  18.235  67.980  0.00  0.00    +0.110 C 
ENDBRANCH  12  13
BRANCH   5  20
ATOM     20  C   UNL     1     -10.288  10.243  66.257  0.00  0.00    +0.392 C 
ATOM     21  O   UNL     1     -10.642   9.035  66.875  0.00  0.00    -0.240 OA
ATOM     22  O   UNL     1      -9.036  10.417  66.148  0.00  0.00    -0.240 OA
ENDBRANCH   5  20
BRANCH  11  23
ATOM     23  C   UNL     1     -11.898  13.178  69.789  0.00  0.00    +0.086 C 
ATOM     24  C   UNL     1     -12.037  11.751  70.440  0.00  0.00    +0.024 C 
ATOM     25  C   UNL     1     -12.737  12.941  70.829  0.00  0.00    +0.024 C 
ENDBRANCH  11  23
BRANCH   1  27
ATOM     26  C   UNL     1     -11.236  16.112  70.360  0.00  0.00    +0.253 C 
ATOM     27  O   UNL     1     -10.543  15.237  69.725  0.00  0.00    -0.469 OA
ENDBRANCH   1  27
TORSDOF 4
ENDMDL
