MODEL 1
REMARK VINA RESULT:      -6.0      0.000      0.000
REMARK  Name = 
REMARK  2 active torsions:
REMARK  status: ('A' for Active; 'I' for Inactive)
REMARK    1  A    between atoms: N_5  and  C1*_6
REMARK    2  A    between atoms: C4*_10  and  C5*_11
REMARK                            x       y       z     vdW  Elec       q    Type
REMARK                         _______ _______ _______ _____ _____    ______ ____
ROOT
ATOM      1  N   UNL     1     -14.521  14.830  71.757  0.00  0.00    -0.086 NA
ATOM      2  C   UNL     1     -13.193  14.885  71.231  0.00  0.00    +0.262 A 
ATOM      3  N   UNL     1     -12.696  15.946  70.545  0.00  0.00    -0.156 NA
ATOM      4  C   UNL     1     -11.870  15.768  69.467  0.00  0.00    +0.355 A 
ATOM      5  O   UNL     1     -11.536  16.694  68.697  0.00  0.00    -0.244 OA
ATOM      6  N   UNL     1     -12.074  14.644  68.895  0.00  0.00    -0.239 N 
ATOM      7  C   UNL     1     -11.998  13.568  69.734  0.00  0.00    +0.187 A 
ATOM      8  N   UNL     1     -12.599  13.700  70.943  0.00  0.00    -0.190 NA
ENDROOT
BRANCH   6   9
ATOM      9  C1* UNL     1     -11.350  14.099  67.614  0.00  0.00    +0.212 C 
ATOM     10  O4* UNL     1     -12.524  14.169  66.623  0.00  0.00    -0.332 OA
ATOM     11  C4* UNL     1     -11.303  13.822  65.781  0.00  0.00    +0.180 C 
ATOM     12  C3* UNL     1     -11.335  12.170  66.274  0.00  0.00    +0.186 C 
ATOM     13  O3* UNL     1      -9.864  12.240  66.605  0.00  0.00    -0.220 OA
ATOM     14  C2* UNL     1     -11.749  12.510  67.826  0.00  0.00    +0.090 C 
BRANCH  11  15
ATOM     15  C5* UNL     1     -12.038  13.519  64.357  0.00  0.00    +0.214 C 
ATOM     16  O5* UNL     1     -12.616  14.568  63.842  0.00  0.00    -0.218 OA
ENDBRANCH  11  15
ENDBRANCH   6   9
TORSDOF 2
ENDMDL
MODEL 2
REMARK VINA RESULT:      -5.9      2.960      5.805
REMARK  Name = 
REMARK  2 active torsions:
REMARK  status: ('A' for Active; 'I' for Inactive)
REMARK    1  A    between atoms: N_5  and  C1*_6
REMARK    2  A    between atoms: C4*_10  and  C5*_11
REMARK                            x       y       z     vdW  Elec       q    Type
REMARK                         _______ _______ _______ _____ _____    ______ ____
ROOT
ATOM      1  N   UNL     1      -9.107  13.324  67.292  0.00  0.00    -0.086 NA
ATOM      2  C   UNL     1     -10.292  14.089  67.526  0.00  0.00    +0.262 A 
ATOM      3  N   UNL     1     -10.288  15.408  67.850  0.00  0.00    -0.156 NA
ATOM      4  C   UNL     1     -11.175  15.917  68.760  0.00  0.00    +0.355 A 
ATOM      5  O   UNL     1     -11.096  17.073  69.226  0.00  0.00    -0.244 OA
ATOM      6  N   UNL     1     -11.556  15.029  69.597  0.00  0.00    -0.239 N 
ATOM      7  C   UNL     1     -12.062  13.898  69.021  0.00  0.00    +0.187 A 
ATOM      8  N   UNL     1     -11.386  13.409  67.952  0.00  0.00    -0.190 NA
ENDROOT
BRANCH   6   9
ATOM      9  C1* UNL     1     -12.537  15.236  70.803  0.00  0.00    +0.212 C 
ATOM     10  O4* UNL     1     -11.522  15.176  71.956  0.00  0.00    -0.332 OA
ATOM     11  C4* UNL     1     -12.837  15.602  72.597  0.00  0.00    +0.180 C 
ATOM     12  C3* UNL     1     -13.461  13.994  72.570  0.00  0.00    +0.186 C 
ATOM     13  O3* UNL     1     -14.738  14.499  71.943  0.00  0.00    -0.220 OA
ATOM     14  C2* UNL     1     -12.824  13.637  71.099  0.00  0.00    +0.090 C 
BRANCH  11  15
ATOM     15  C5* UNL     1     -12.409  15.520  74.168  0.00  0.00    +0.214 C 
ATOM     16  O5* UNL     1     -12.501  16.663  74.787  0.00  0.00    -0.218 OA
ENDBRANCH  11  15
ENDBRANCH   6   9
TORSDOF 2
ENDMDL
MODEL 3
REMARK VINA RESULT:      -5.8      3.664      5.374
REMARK  Name = 
REMARK  2 active torsions:
REMARK  status: ('A' for Active; 'I' for Inactive)
REMARK    1  A    between atoms: N_5  and  C1*_6
REMARK    2  A    between atoms: C4*_10  and  C5*_11
REMARK                            x       y       z     vdW  Elec       q    Type
REMARK                         _______ _______ _______ _____ _____    ______ ____
ROOT
ATOM      1  N   UNL     1     -11.991  11.608  63.501  0.00  0.00    -0.086 NA
ATOM      2  C   UNL     1     -12.433  12.763  64.217  0.00  0.00    +0.262 A 
ATOM      3  N   UNL     1     -12.479  14.011  63.683  0.00  0.00    -0.156 NA
ATOM      4  C   UNL     1     -12.141  15.112  64.424  0.00  0.00    +0.355 A 
ATOM      5  O   UNL     1     -11.991  16.251  63.934  0.00  0.00    -0.244 OA
ATOM      6  N   UNL     1     -11.319  14.819  65.358  0.00  0.00    -0.239 N 
ATOM      7  C   UNL     1     -11.738  13.807  66.175  0.00  0.00    +0.187 A 
ATOM      8  N   UNL     1     -12.302  12.734  65.568  0.00  0.00    -0.190 NA
ENDROOT
BRANCH   6   9
ATOM      9  C1* UNL     1     -10.678  15.814  66.389  0.00  0.00    +0.212 C 
ATOM     10  O4* UNL     1      -9.365  16.117  65.649  0.00  0.00    -0.332 OA
ATOM     11  C4* UNL     1      -9.400  17.084  66.826  0.00  0.00    +0.180 C 
ATOM     12  C3* UNL     1      -8.920  15.863  67.946  0.00  0.00    +0.186 C 
ATOM     13  O3* UNL     1     -10.057  16.252  68.859  0.00  0.00    -0.220 OA
ATOM     14  C2* UNL     1      -9.826  14.686  67.243  0.00  0.00    +0.090 C 
BRANCH  11  15
ATOM     15  C5* UNL     1      -7.899  17.708  66.705  0.00  0.00    +0.214 C 
ATOM     16  O5* UNL     1      -7.506  17.870  65.473  0.00  0.00    -0.218 OA
ENDBRANCH  11  15
ENDBRANCH   6   9
TORSDOF 2
ENDMDL
MODEL 4
REMARK VINA RESULT:      -5.7      2.380      3.541
REMARK  Name = 
REMARK  2 active torsions:
REMARK  status: ('A' for Active; 'I' for Inactive)
REMARK    1  A    between atoms: N_5  and  C1*_6
REMARK    2  A    between atoms: C4*_10  and  C5*_11
REMARK                            x       y       z     vdW  Elec       q    Type
REMARK                         _______ _______ _______ _____ _____    ______ ____
ROOT
ATOM      1  N   UNL     1     -12.456  15.852  74.957  0.00  0.00    -0.086 NA
ATOM      2  C   UNL     1     -12.854  16.202  73.629  0.00  0.00    +0.262 A 
ATOM      3  N   UNL     1     -13.969  15.720  73.023  0.00  0.00    -0.156 NA
ATOM      4  C   UNL     1     -13.970  15.397  71.692  0.00  0.00    +0.355 A 
ATOM      5  O   UNL     1     -14.904  14.784  71.134  0.00  0.00    -0.244 OA
ATOM      6  N   UNL     1     -12.802  15.077  71.283  0.00  0.00    -0.239 N 
ATOM      7  C   UNL     1     -11.842  16.015  71.544  0.00  0.00    +0.187 A 
ATOM      8  N   UNL     1     -11.870  16.583  72.775  0.00  0.00    -0.190 NA
ENDROOT
BRANCH   6   9
ATOM      9  C1* UNL     1     -12.409  14.616  69.836  0.00  0.00    +0.212 C 
ATOM     10  O4* UNL     1     -11.897  13.203  70.162  0.00  0.00    -0.332 OA
ATOM     11  C4* UNL     1     -11.932  13.281  68.640  0.00  0.00    +0.180 C 
ATOM     12  C3* UNL     1     -10.472  14.197  68.575  0.00  0.00    +0.186 C 
ATOM     13  O3* UNL     1     -11.139  15.195  67.660  0.00  0.00    -0.220 OA
ATOM     14  C2* UNL     1     -10.830  15.099  69.899  0.00  0.00    +0.090 C 
BRANCH  11  15
ATOM     15  C5* UNL     1     -11.188  11.875  68.284  0.00  0.00    +0.214 C 
ATOM     16  O5* UNL     1     -12.010  10.942  67.893  0.00  0.00    -0.218 OA
ENDBRANCH  11  15
ENDBRANCH   6   9
TORSDOF 2
ENDMDL
MODEL 5
REMARK VINA RESULT:      -5.7      3.718      5.606
REMARK  Name = 
REMARK  2 active torsions:
REMARK  status: ('A' for Active; 'I' for Inactive)
REMARK    1  A    between atoms: N_5  and  C1*_6
REMARK    2  A    between atoms: C4*_10  and  C5*_11
REMARK                            x       y       z     vdW  Elec       q    Type
REMARK                         _______ _______ _______ _____ _____    ______ ____
ROOT
ATOM      1  N   UNL     1     -12.298  11.925  63.520  0.00  0.00    -0.086 NA
ATOM      2  C   UNL     1     -12.341  13.089  64.349  0.00  0.00    +0.262 A 
ATOM      3  N   UNL     1     -12.427  14.356  63.868  0.00  0.00    -0.156 NA
ATOM      4  C   UNL     1     -11.740  15.385  64.455  0.00  0.00    +0.355 A 
ATOM      5  O   UNL     1     -11.640  16.522  63.948  0.00  0.00    -0.244 OA
ATOM      6  N   UNL     1     -10.687  14.971  65.051  0.00  0.00    -0.239 N 
ATOM      7  C   UNL     1     -10.914  13.973  65.957  0.00  0.00    +0.187 A 
ATOM      8  N   UNL     1     -11.765  12.990  65.574  0.00  0.00    -0.190 NA
ENDROOT
BRANCH   6   9
ATOM      9  C1* UNL     1      -9.630  15.851  65.807  0.00  0.00    +0.212 C 
ATOM     10  O4* UNL     1      -8.841  14.733  66.507  0.00  0.00    -0.332 OA
ATOM     11  C4* UNL     1      -8.049  16.010  66.761  0.00  0.00    +0.180 C 
ATOM     12  C3* UNL     1      -9.132  16.529  67.999  0.00  0.00    +0.186 C 
ATOM     13  O3* UNL     1      -9.227  17.887  67.347  0.00  0.00    -0.220 OA
ATOM     14  C2* UNL     1     -10.477  16.006  67.216  0.00  0.00    +0.090 C 
BRANCH  11  15
ATOM     15  C5* UNL     1      -6.949  15.436  67.820  0.00  0.00    +0.214 C 
ATOM     16  O5* UNL     1      -5.839  15.055  67.254  0.00  0.00    -0.218 OA
ENDBRANCH  11  15
ENDBRANCH   6   9
TORSDOF 2
ENDMDL
MODEL 6
REMARK VINA RESULT:      -5.6      1.254      1.354
REMARK  Name = 
REMARK  2 active torsions:
REMARK  status: ('A' for Active; 'I' for Inactive)
REMARK    1  A    between atoms: N_5  and  C1*_6
REMARK    2  A    between atoms: C4*_10  and  C5*_11
REMARK                            x       y       z     vdW  Elec       q    Type
REMARK                         _______ _______ _______ _____ _____    ______ ____
ROOT
ATOM      1  N   UNL     1     -13.746  13.943  71.930  0.00  0.00    -0.086 NA
ATOM      2  C   UNL     1     -12.586  14.206  71.138  0.00  0.00    +0.262 A 
ATOM      3  N   UNL     1     -12.245  15.440  70.684  0.00  0.00    -0.156 NA
ATOM      4  C   UNL     1     -11.712  15.613  69.434  0.00  0.00    +0.355 A 
ATOM      5  O   UNL     1     -11.553  16.733  68.904  0.00  0.00    -0.244 OA
ATOM      6  N   UNL     1     -12.079  14.688  68.632  0.00  0.00    -0.239 N 
ATOM      7  C   UNL     1     -11.829  13.423  69.084  0.00  0.00    +0.187 A 
ATOM      8  N   UNL     1     -12.112  13.180  70.387  0.00  0.00    -0.190 NA
ENDROOT
BRANCH   6   9
ATOM      9  C1* UNL     1     -11.705  14.562  67.113  0.00  0.00    +0.212 C 
ATOM     10  O4* UNL     1     -12.224  13.138  66.853  0.00  0.00    -0.332 OA
ATOM     11  C4* UNL     1     -11.844  13.688  65.484  0.00  0.00    +0.180 C 
ATOM     12  C3* UNL     1     -10.161  13.424  65.757  0.00  0.00    +0.186 C 
ATOM     13  O3* UNL     1      -9.867  14.837  65.316  0.00  0.00    -0.220 OA
ATOM     14  C2* UNL     1     -10.218  13.878  67.335  0.00  0.00    +0.090 C 
BRANCH  11  15
ATOM     15  C5* UNL     1     -12.017  12.332  64.594  0.00  0.00    +0.214 C 
ATOM     16  O5* UNL     1     -13.127  12.302  63.912  0.00  0.00    -0.218 OA
ENDBRANCH  11  15
ENDBRANCH   6   9
TORSDOF 2
ENDMDL
MODEL 7
REMARK VINA RESULT:      -5.6      2.078      2.750
REMARK  Name = 
REMARK  2 active torsions:
REMARK  status: ('A' for Active; 'I' for Inactive)
REMARK    1  A    between atoms: N_5  and  C1*_6
REMARK    2  A    between atoms: C4*_10  and  C5*_11
REMARK                            x       y       z     vdW  Elec       q    Type
REMARK                         _______ _______ _______ _____ _____    ______ ____
ROOT
ATOM      1  N   UNL     1     -12.830  10.386  70.773  0.00  0.00    -0.086 NA
ATOM      2  C   UNL     1     -11.956  11.324  70.142  0.00  0.00    +0.262 A 
ATOM      3  N   UNL     1     -12.065  12.670  70.282  0.00  0.00    -0.156 NA
ATOM      4  C   UNL     1     -11.840  13.514  69.227  0.00  0.00    +0.355 A 
ATOM      5  O   UNL     1     -12.103  14.735  69.254  0.00  0.00    -0.244 OA
ATOM      6  N   UNL     1     -12.072  12.942  68.108  0.00  0.00    -0.239 N 
ATOM      7  C   UNL     1     -11.397  11.767  67.929  0.00  0.00    +0.187 A 
ATOM      8  N   UNL     1     -11.357  10.925  68.992  0.00  0.00    -0.190 NA
ENDROOT
BRANCH   6   9
ATOM      9  C1* UNL     1     -11.961  13.590  66.683  0.00  0.00    +0.212 C 
ATOM     10  O4* UNL     1     -12.098  12.321  65.827  0.00  0.00    -0.332 OA
ATOM     11  C4* UNL     1     -12.144  13.481  64.841  0.00  0.00    +0.180 C 
ATOM     12  C3* UNL     1     -10.435  13.703  64.902  0.00  0.00    +0.186 C 
ATOM     13  O3* UNL     1     -10.634  15.180  65.136  0.00  0.00    -0.220 OA
ATOM     14  C2* UNL     1     -10.327  13.412  66.514  0.00  0.00    +0.090 C 
BRANCH  11  15
ATOM     15  C5* UNL     1     -12.090  12.646  63.442  0.00  0.00    +0.214 C 
ATOM     16  O5* UNL     1     -13.145  11.906  63.242  0.00  0.00    -0.218 OA
ENDBRANCH  11  15
ENDBRANCH   6   9
TORSDOF 2
ENDMDL
MODEL 8
REMARK VINA RESULT:      -5.6      3.258      4.259
REMARK  Name = 
REMARK  2 active torsions:
REMARK  status: ('A' for Active; 'I' for Inactive)
REMARK    1  A    between atoms: N_5  and  C1*_6
REMARK    2  A    between atoms: C4*_10  and  C5*_11
REMARK                            x       y       z     vdW  Elec       q    Type
REMARK                         _______ _______ _______ _____ _____    ______ ____
ROOT
ATOM      1  N   UNL     1      -9.033  18.959  66.089  0.00  0.00    -0.086 NA
ATOM      2  C   UNL     1     -10.083  18.021  66.335  0.00  0.00    +0.262 A 
ATOM      3  N   UNL     1     -10.248  17.363  67.512  0.00  0.00    -0.156 NA
ATOM      4  C   UNL     1     -10.646  16.053  67.542  0.00  0.00    +0.355 A 
ATOM      5  O   UNL     1     -10.636  15.355  68.578  0.00  0.00    -0.244 OA
ATOM      6  N   UNL     1     -10.310  15.433  66.476  0.00  0.00    -0.239 N 
ATOM      7  C   UNL     1     -10.734  16.031  65.323  0.00  0.00    +0.187 A 
ATOM      8  N   UNL     1     -10.596  17.379  65.255  0.00  0.00    -0.190 NA
ENDROOT
BRANCH   6   9
ATOM      9  C1* UNL     1     -10.558  13.917  66.156  0.00  0.00    +0.212 C 
ATOM     10  O4* UNL     1     -10.391  13.961  64.628  0.00  0.00    -0.332 OA
ATOM     11  C4* UNL     1     -10.490  12.482  64.983  0.00  0.00    +0.180 C 
ATOM     12  C3* UNL     1     -12.203  12.561  65.169  0.00  0.00    +0.186 C 
ATOM     13  O3* UNL     1     -12.091  11.864  66.503  0.00  0.00    -0.220 OA
ATOM     14  C2* UNL     1     -12.184  14.039  65.886  0.00  0.00    +0.090 C 
BRANCH  11  15
ATOM     15  C5* UNL     1     -10.579  11.853  63.481  0.00  0.00    +0.214 C 
ATOM     16  O5* UNL     1     -10.006  10.687  63.377  0.00  0.00    -0.218 OA
ENDBRANCH  11  15
ENDBRANCH   6   9
TORSDOF 2
ENDMDL
MODEL 9
REMARK VINA RESULT:      -5.5      3.460      5.251
REMARK  Name = 
REMARK  2 active torsions:
REMARK  status: ('A' for Active; 'I' for Inactive)
REMARK    1  A    between atoms: N_5  and  C1*_6
REMARK    2  A    between atoms: C4*_10  and  C5*_11
REMARK                            x       y       z     vdW  Elec       q    Type
REMARK                         _______ _______ _______ _____ _____    ______ ____
ROOT
ATOM      1  N   UNL     1     -12.785  12.406  63.501  0.00  0.00    -0.086 NA
ATOM      2  C   UNL     1     -11.856  12.594  64.571  0.00  0.00    +0.262 A 
ATOM      3  N   UNL     1     -12.205  12.589  65.883  0.00  0.00    -0.156 NA
ATOM      4  C   UNL     1     -11.625  13.452  66.774  0.00  0.00    +0.355 A 
ATOM      5  O   UNL     1     -12.036  13.613  67.943  0.00  0.00    -0.244 OA
ATOM      6  N   UNL     1     -11.215  14.518  66.200  0.00  0.00    -0.239 N 
ATOM      7  C   UNL     1     -10.380  14.297  65.141  0.00  0.00    +0.187 A 
ATOM      8  N   UNL     1     -10.733  13.302  64.290  0.00  0.00    -0.190 NA
ENDROOT
BRANCH   6   9
ATOM      9  C1* UNL     1     -10.531  15.751  66.890  0.00  0.00    +0.212 C 
ATOM     10  O4* UNL     1     -10.520  16.721  65.697  0.00  0.00    -0.332 OA
ATOM     11  C4* UNL     1     -10.070  17.547  66.896  0.00  0.00    +0.180 C 
ATOM     12  C3* UNL     1      -8.477  16.889  66.852  0.00  0.00    +0.186 C 
ATOM     13  O3* UNL     1      -8.557  16.594  68.330  0.00  0.00    -0.220 OA
ATOM     14  C2* UNL     1      -8.978  15.371  66.474  0.00  0.00    +0.090 C 
BRANCH  11  15
ATOM     15  C5* UNL     1      -9.636  18.918  66.128  0.00  0.00    +0.214 C 
ATOM     16  O5* UNL     1     -10.645  19.697  65.853  0.00  0.00    -0.218 OA
ENDBRANCH  11  15
ENDBRANCH   6   9
TORSDOF 2
ENDMDL
