MODEL 1
REMARK VINA RESULT:      -6.4      0.000      0.000
REMARK  Name = 
REMARK  6 active torsions:
REMARK  status: ('A' for Active; 'I' for Inactive)
REMARK    1  A    between atoms: C_7  and  C_8
REMARK    2  A    between atoms: C_8  and  S_9
REMARK    3  A    between atoms: S_9  and  C_10
REMARK    4  A    between atoms: C_10  and  C_11
REMARK    5  A    between atoms: C_11  and  C_12
REMARK    6  A    between atoms: N_14  and  S_15
REMARK                            x       y       z     vdW  Elec       q    Type
REMARK                         _______ _______ _______ _____ _____    ______ ____
ROOT
ATOM      1  C   UNL     1      -8.718  17.906  68.676  0.00  0.00    +0.104 C 
ENDROOT
BRANCH   1   8
ATOM      2  N   UNL     1      -4.826  19.340  71.935  0.00  0.00    +0.136 NA
ATOM      3  C   UNL     1      -4.813  20.585  71.565  0.00  0.00    +0.541 C 
ATOM      4  N   UNL     1      -5.440  20.994  70.347  0.00  0.00    -0.033 NA
ATOM      5  C   UNL     1      -5.895  19.929  69.502  0.00  0.00    +0.273 A 
ATOM      6  S   UNL     1      -4.978  18.855  68.522  0.00  0.00    -0.029 S 
ATOM      7  C   UNL     1      -6.296  18.002  67.820  0.00  0.00    +0.055 A 
ATOM      8  C   UNL     1      -7.336  18.483  68.611  0.00  0.00    +0.080 A 
ATOM      9  N   UNL     1      -7.115  19.782  68.928  0.00  0.00    -0.209 NA
ATOM     10  N   UNL     1      -3.837  21.420  72.192  0.00  0.00    +0.136 NA
ENDBRANCH   1   8
BRANCH   1  11
ATOM     11  S   UNL     1      -8.607  16.122  68.451  0.00  0.00    -0.133 S 
BRANCH  11  12
ATOM     12  C   UNL     1      -9.977  15.259  69.268  0.00  0.00    +0.071 C 
BRANCH  12  13
ATOM     13  C   UNL     1     -11.038  16.277  69.668  0.00  0.00    +0.140 C 
BRANCH  13  14
ATOM     14  C   UNL     1     -11.884  15.616  70.697  0.00  0.00    +0.420 C 
ATOM     15  N   UNL     1     -11.717  15.952  72.078  0.00  0.00    +0.143 NA
ATOM     16  N   UNL     1     -12.748  14.693  70.396  0.00  0.00    +0.194 NA
BRANCH  15  17
ATOM     17  S   UNL     1     -12.974  15.520  73.161  0.00  0.00    +0.246 S 
ATOM     18  O   UNL     1     -13.161  14.043  73.279  0.00  0.00    -0.112 OA
ATOM     19  O   UNL     1     -14.273  16.126  72.679  0.00  0.00    -0.112 OA
ATOM     20  N   UNL     1     -12.575  16.150  74.725  0.00  0.00    +0.079 NA
ENDBRANCH  15  17
ENDBRANCH  13  14
ENDBRANCH  12  13
ENDBRANCH  11  12
ENDBRANCH   1  11
TORSDOF 6
ENDMDL
MODEL 2
REMARK VINA RESULT:      -6.3      4.117      5.000
REMARK  Name = 
REMARK  6 active torsions:
REMARK  status: ('A' for Active; 'I' for Inactive)
REMARK    1  A    between atoms: C_7  and  C_8
REMARK    2  A    between atoms: C_8  and  S_9
REMARK    3  A    between atoms: S_9  and  C_10
REMARK    4  A    between atoms: C_10  and  C_11
REMARK    5  A    between atoms: C_11  and  C_12
REMARK    6  A    between atoms: N_14  and  S_15
REMARK                            x       y       z     vdW  Elec       q    Type
REMARK                         _______ _______ _______ _____ _____    ______ ____
ROOT
ATOM      1  C   UNL     1      -7.950  16.595  68.820  0.00  0.00    +0.104 C 
ENDROOT
BRANCH   1   8
ATOM      2  N   UNL     1      -4.583  19.353  71.800  0.00  0.00    +0.136 NA
ATOM      3  C   UNL     1      -5.067  20.516  71.482  0.00  0.00    +0.541 C 
ATOM      4  N   UNL     1      -5.911  20.671  70.339  0.00  0.00    -0.033 NA
ATOM      5  C   UNL     1      -6.014  19.518  69.491  0.00  0.00    +0.273 A 
ATOM      6  S   UNL     1      -4.860  18.871  68.395  0.00  0.00    -0.029 S 
ATOM      7  C   UNL     1      -5.826  17.593  67.770  0.00  0.00    +0.055 A 
ATOM      8  C   UNL     1      -6.893  17.646  68.664  0.00  0.00    +0.080 A 
ATOM      9  N   UNL     1      -7.140  18.931  69.015  0.00  0.00    -0.209 NA
ATOM     10  N   UNL     1      -4.416  21.650  72.060  0.00  0.00    +0.136 NA
ENDBRANCH   1   8
BRANCH   1  11
ATOM     11  S   UNL     1      -9.549  17.325  68.426  0.00  0.00    -0.133 S 
BRANCH  11  12
ATOM     12  C   UNL     1      -9.795  17.469  66.635  0.00  0.00    +0.071 C 
BRANCH  12  13
ATOM     13  C   UNL     1      -9.263  16.213  65.957  0.00  0.00    +0.140 C 
BRANCH  13  14
ATOM     14  C   UNL     1     -10.419  15.595  65.256  0.00  0.00    +0.420 C 
ATOM     15  N   UNL     1     -10.667  14.191  65.391  0.00  0.00    +0.143 NA
ATOM     16  N   UNL     1     -11.198  16.277  64.470  0.00  0.00    +0.194 NA
BRANCH  15  17
ATOM     17  S   UNL     1     -12.217  13.609  64.948  0.00  0.00    +0.246 S 
ATOM     18  O   UNL     1     -13.327  14.500  65.404  0.00  0.00    -0.112 OA
ATOM     19  O   UNL     1     -12.425  12.241  65.557  0.00  0.00    -0.112 OA
ATOM     20  N   UNL     1     -12.276  13.501  63.219  0.00  0.00    +0.079 NA
ENDBRANCH  15  17
ENDBRANCH  13  14
ENDBRANCH  12  13
ENDBRANCH  11  12
ENDBRANCH   1  11
TORSDOF 6
ENDMDL
MODEL 3
REMARK VINA RESULT:      -6.2      4.505      6.360
REMARK  Name = 
REMARK  6 active torsions:
REMARK  status: ('A' for Active; 'I' for Inactive)
REMARK    1  A    between atoms: C_7  and  C_8
REMARK    2  A    between atoms: C_8  and  S_9
REMARK    3  A    between atoms: S_9  and  C_10
REMARK    4  A    between atoms: C_10  and  C_11
REMARK    5  A    between atoms: C_11  and  C_12
REMARK    6  A    between atoms: N_14  and  S_15
REMARK                            x       y       z     vdW  Elec       q    Type
REMARK                         _______ _______ _______ _____ _____    ______ ____
ROOT
ATOM      1  C   UNL     1      -9.029  17.103  67.067  0.00  0.00    +0.104 C 
ENDROOT
BRANCH   1   8
ATOM      2  N   UNL     1     -11.967  12.854  68.133  0.00  0.00    +0.136 NA
ATOM      3  C   UNL     1     -11.141  12.002  67.607  0.00  0.00    +0.541 C 
ATOM      4  N   UNL     1     -10.108  12.435  66.718  0.00  0.00    -0.033 NA
ATOM      5  C   UNL     1     -10.182  13.810  66.314  0.00  0.00    +0.273 A 
ATOM      6  S   UNL     1     -11.270  14.562  65.217  0.00  0.00    -0.029 S 
ATOM      7  C   UNL     1     -10.597  16.142  65.271  0.00  0.00    +0.055 A 
ATOM      8  C   UNL     1      -9.720  15.988  66.342  0.00  0.00    +0.080 A 
ATOM      9  N   UNL     1      -9.195  14.740  66.335  0.00  0.00    -0.209 NA
ATOM     10  N   UNL     1     -11.545  10.631  67.631  0.00  0.00    +0.136 NA
ENDBRANCH   1   8
BRANCH   1  11
ATOM     11  S   UNL     1     -10.073  17.632  68.437  0.00  0.00    -0.133 S 
BRANCH  11  12
ATOM     12  C   UNL     1     -11.248  16.336  68.920  0.00  0.00    +0.071 C 
BRANCH  12  13
ATOM     13  C   UNL     1     -10.686  15.577  70.115  0.00  0.00    +0.140 C 
BRANCH  13  14
ATOM     14  C   UNL     1     -11.761  15.563  71.143  0.00  0.00    +0.420 C 
ATOM     15  N   UNL     1     -13.128  15.717  70.747  0.00  0.00    +0.143 NA
ATOM     16  N   UNL     1     -11.503  15.467  72.414  0.00  0.00    +0.194 NA
BRANCH  15  17
ATOM     17  S   UNL     1     -14.339  15.261  71.870  0.00  0.00    +0.246 S 
ATOM     18  O   UNL     1     -15.705  15.210  71.267  0.00  0.00    -0.112 OA
ATOM     19  O   UNL     1     -14.360  16.255  73.009  0.00  0.00    -0.112 OA
ATOM     20  N   UNL     1     -13.947  13.684  72.473  0.00  0.00    +0.079 NA
ENDBRANCH  15  17
ENDBRANCH  13  14
ENDBRANCH  12  13
ENDBRANCH  11  12
ENDBRANCH   1  11
TORSDOF 6
ENDMDL
MODEL 4
REMARK VINA RESULT:      -6.1      5.120      8.789
REMARK  Name = 
REMARK  6 active torsions:
REMARK  status: ('A' for Active; 'I' for Inactive)
REMARK    1  A    between atoms: C_7  and  C_8
REMARK    2  A    between atoms: C_8  and  S_9
REMARK    3  A    between atoms: S_9  and  C_10
REMARK    4  A    between atoms: C_10  and  C_11
REMARK    5  A    between atoms: C_11  and  C_12
REMARK    6  A    between atoms: N_14  and  S_15
REMARK                            x       y       z     vdW  Elec       q    Type
REMARK                         _______ _______ _______ _____ _____    ______ ____
ROOT
ATOM      1  C   UNL     1      -7.760  17.629  66.132  0.00  0.00    +0.104 C 
ENDROOT
BRANCH   1   8
ATOM      2  N   UNL     1     -10.342  13.208  64.864  0.00  0.00    +0.136 NA
ATOM      3  C   UNL     1     -11.387  13.812  64.386  0.00  0.00    +0.541 C 
ATOM      4  N   UNL     1     -11.634  15.190  64.679  0.00  0.00    -0.033 NA
ATOM      5  C   UNL     1     -10.772  15.773  65.667  0.00  0.00    +0.273 A 
ATOM      6  S   UNL     1     -10.763  15.542  67.370  0.00  0.00    -0.029 S 
ATOM      7  C   UNL     1      -9.508  16.655  67.745  0.00  0.00    +0.055 A 
ATOM      8  C   UNL     1      -9.043  16.928  66.461  0.00  0.00    +0.080 A 
ATOM      9  N   UNL     1     -10.077  16.934  65.586  0.00  0.00    -0.209 NA
ATOM     10  N   UNL     1     -12.443  12.972  63.917  0.00  0.00    +0.136 NA
ENDBRANCH   1   8
BRANCH   1  11
ATOM     11  S   UNL     1      -7.959  19.386  66.480  0.00  0.00    -0.133 S 
BRANCH  11  12
ATOM     12  C   UNL     1      -6.609  20.020  67.514  0.00  0.00    +0.071 C 
BRANCH  12  13
ATOM     13  C   UNL     1      -6.753  19.452  68.920  0.00  0.00    +0.140 C 
BRANCH  13  14
ATOM     14  C   UNL     1      -5.500  19.800  69.641  0.00  0.00    +0.420 C 
ATOM     15  N   UNL     1      -5.409  21.036  70.357  0.00  0.00    +0.143 NA
ATOM     16  N   UNL     1      -4.445  19.040  69.605  0.00  0.00    +0.194 NA
BRANCH  15  17
ATOM     17  S   UNL     1      -4.154  21.198  71.513  0.00  0.00    +0.246 S 
ATOM     18  O   UNL     1      -3.988  19.985  72.369  0.00  0.00    -0.112 OA
ATOM     19  O   UNL     1      -4.456  22.375  72.412  0.00  0.00    -0.112 OA
ATOM     20  N   UNL     1      -2.671  21.475  70.659  0.00  0.00    +0.079 NA
ENDBRANCH  15  17
ENDBRANCH  13  14
ENDBRANCH  12  13
ENDBRANCH  11  12
ENDBRANCH   1  11
TORSDOF 6
ENDMDL
MODEL 5
REMARK VINA RESULT:      -6.0      5.162      8.362
REMARK  Name = 
REMARK  6 active torsions:
REMARK  status: ('A' for Active; 'I' for Inactive)
REMARK    1  A    between atoms: C_7  and  C_8
REMARK    2  A    between atoms: C_8  and  S_9
REMARK    3  A    between atoms: S_9  and  C_10
REMARK    4  A    between atoms: C_10  and  C_11
REMARK    5  A    between atoms: C_11  and  C_12
REMARK    6  A    between atoms: N_14  and  S_15
REMARK                            x       y       z     vdW  Elec       q    Type
REMARK                         _______ _______ _______ _____ _____    ______ ____
ROOT
ATOM      1  C   UNL     1     -11.897  11.916  70.208  0.00  0.00    +0.104 C 
ENDROOT
BRANCH   1   8
ATOM      2  N   UNL     1     -11.793  14.669  65.710  0.00  0.00    +0.136 NA
ATOM      3  C   UNL     1     -12.316  13.729  64.982  0.00  0.00    +0.541 C 
ATOM      4  N   UNL     1     -12.359  12.379  65.449  0.00  0.00    -0.033 NA
ATOM      5  C   UNL     1     -11.625  12.122  66.655  0.00  0.00    +0.273 A 
ATOM      6  S   UNL     1      -9.926  12.018  66.889  0.00  0.00    -0.029 S 
ATOM      7  C   UNL     1      -9.949  11.610  68.559  0.00  0.00    +0.055 A 
ATOM      8  C   UNL     1     -11.295  11.832  68.838  0.00  0.00    +0.080 A 
ATOM      9  N   UNL     1     -12.053  11.482  67.771  0.00  0.00    -0.209 NA
ATOM     10  N   UNL     1     -12.469  14.018  63.591  0.00  0.00    +0.136 NA
ENDBRANCH   1   8
BRANCH   1  11
ATOM     11  S   UNL     1     -12.250  13.644  70.576  0.00  0.00    -0.133 S 
BRANCH  11  12
ATOM     12  C   UNL     1     -11.610  14.746  69.285  0.00  0.00    +0.071 C 
BRANCH  12  13
ATOM     13  C   UNL     1     -11.223  16.078  69.916  0.00  0.00    +0.140 C 
BRANCH  13  14
ATOM     14  C   UNL     1     -10.347  16.767  68.932  0.00  0.00    +0.420 C 
ATOM     15  N   UNL     1     -10.915  17.696  68.001  0.00  0.00    +0.143 NA
ATOM     16  N   UNL     1      -9.074  16.522  68.844  0.00  0.00    +0.194 NA
BRANCH  15  17
ATOM     17  S   UNL     1      -9.851  18.777  67.204  0.00  0.00    +0.246 S 
ATOM     18  O   UNL     1      -8.871  19.422  68.130  0.00  0.00    -0.112 OA
ATOM     19  O   UNL     1     -10.659  19.866  66.535  0.00  0.00    -0.112 OA
ATOM     20  N   UNL     1      -8.969  17.881  66.011  0.00  0.00    +0.079 NA
ENDBRANCH  15  17
ENDBRANCH  13  14
ENDBRANCH  12  13
ENDBRANCH  11  12
ENDBRANCH   1  11
TORSDOF 6
ENDMDL
MODEL 6
REMARK VINA RESULT:      -6.0      4.798      7.306
REMARK  Name = 
REMARK  6 active torsions:
REMARK  status: ('A' for Active; 'I' for Inactive)
REMARK    1  A    between atoms: C_7  and  C_8
REMARK    2  A    between atoms: C_8  and  S_9
REMARK    3  A    between atoms: S_9  and  C_10
REMARK    4  A    between atoms: C_10  and  C_11
REMARK    5  A    between atoms: C_11  and  C_12
REMARK    6  A    between atoms: N_14  and  S_15
REMARK                            x       y       z     vdW  Elec       q    Type
REMARK                         _______ _______ _______ _____ _____    ______ ____
ROOT
ATOM      1  C   UNL     1     -10.464  15.895  65.442  0.00  0.00    +0.104 C 
ENDROOT
BRANCH   1   8
ATOM      2  N   UNL     1     -11.665  11.339  67.813  0.00  0.00    +0.136 NA
ATOM      3  C   UNL     1     -10.855  10.616  67.101  0.00  0.00    +0.541 C 
ATOM      4  N   UNL     1     -10.316  11.113  65.874  0.00  0.00    -0.033 NA
ATOM      5  C   UNL     1     -10.878  12.349  65.412  0.00  0.00    +0.273 A 
ATOM      6  S   UNL     1     -12.418  12.646  64.710  0.00  0.00    -0.029 S 
ATOM      7  C   UNL     1     -12.209  14.323  64.396  0.00  0.00    +0.055 A 
ATOM      8  C   UNL     1     -11.028  14.549  65.099  0.00  0.00    +0.080 A 
ATOM      9  N   UNL     1     -10.220  13.465  65.009  0.00  0.00    -0.209 NA
ATOM     10  N   UNL     1     -10.851   9.214  67.378  0.00  0.00    +0.136 NA
ENDBRANCH   1   8
BRANCH   1  11
ATOM     11  S   UNL     1      -9.918  15.869  67.158  0.00  0.00    -0.133 S 
BRANCH  11  12
ATOM     12  C   UNL     1     -11.318  15.723  68.303  0.00  0.00    +0.071 C 
BRANCH  12  13
ATOM     13  C   UNL     1     -10.963  16.415  69.613  0.00  0.00    +0.140 C 
BRANCH  13  14
ATOM     14  C   UNL     1     -11.728  15.712  70.677  0.00  0.00    +0.420 C 
ATOM     15  N   UNL     1     -11.722  16.223  72.014  0.00  0.00    +0.143 NA
ATOM     16  N   UNL     1     -12.371  14.605  70.452  0.00  0.00    +0.194 NA
BRANCH  15  17
ATOM     17  S   UNL     1     -12.937  15.665  73.086  0.00  0.00    +0.246 S 
ATOM     18  O   UNL     1     -12.951  16.401  74.386  0.00  0.00    -0.112 OA
ATOM     19  O   UNL     1     -12.709  14.198  73.374  0.00  0.00    -0.112 OA
ATOM     20  N   UNL     1     -14.474  15.882  72.316  0.00  0.00    +0.079 NA
ENDBRANCH  15  17
ENDBRANCH  13  14
ENDBRANCH  12  13
ENDBRANCH  11  12
ENDBRANCH   1  11
TORSDOF 6
ENDMDL
MODEL 7
REMARK VINA RESULT:      -6.0      5.459      7.981
REMARK  Name = 
REMARK  6 active torsions:
REMARK  status: ('A' for Active; 'I' for Inactive)
REMARK    1  A    between atoms: C_7  and  C_8
REMARK    2  A    between atoms: C_8  and  S_9
REMARK    3  A    between atoms: S_9  and  C_10
REMARK    4  A    between atoms: C_10  and  C_11
REMARK    5  A    between atoms: C_11  and  C_12
REMARK    6  A    between atoms: N_14  and  S_15
REMARK                            x       y       z     vdW  Elec       q    Type
REMARK                         _______ _______ _______ _____ _____    ______ ____
ROOT
ATOM      1  C   UNL     1     -10.177  17.496  68.832  0.00  0.00    +0.104 C 
ENDROOT
BRANCH   1   8
ATOM      2  N   UNL     1     -10.080  12.227  68.622  0.00  0.00    +0.136 NA
ATOM      3  C   UNL     1     -11.241  12.108  68.052  0.00  0.00    +0.541 C 
ATOM      4  N   UNL     1     -12.168  13.196  68.045  0.00  0.00    -0.033 NA
ATOM      5  C   UNL     1     -11.804  14.319  68.859  0.00  0.00    +0.273 A 
ATOM      6  S   UNL     1     -11.831  14.472  70.571  0.00  0.00    -0.029 S 
ATOM      7  C   UNL     1     -11.339  16.116  70.663  0.00  0.00    +0.055 A 
ATOM      8  C   UNL     1     -10.962  16.324  69.339  0.00  0.00    +0.080 A 
ATOM      9  N   UNL     1     -11.778  15.629  68.510  0.00  0.00    -0.209 NA
ATOM     10  N   UNL     1     -11.689  10.774  67.804  0.00  0.00    +0.136 NA
ENDBRANCH   1   8
BRANCH   1  11
ATOM     11  S   UNL     1      -8.606  16.899  68.184  0.00  0.00    -0.133 S 
BRANCH  11  12
ATOM     12  C   UNL     1      -8.709  16.542  66.408  0.00  0.00    +0.071 C 
BRANCH  12  13
ATOM     13  C   UNL     1      -8.994  15.058  66.216  0.00  0.00    +0.140 C 
BRANCH  13  14
ATOM     14  C   UNL     1     -10.215  14.973  65.372  0.00  0.00    +0.420 C 
ATOM     15  N   UNL     1     -10.741  13.693  65.006  0.00  0.00    +0.143 NA
ATOM     16  N   UNL     1     -10.808  16.030  64.901  0.00  0.00    +0.194 NA
BRANCH  15  17
ATOM     17  S   UNL     1     -12.353  13.628  64.428  0.00  0.00    +0.246 S 
ATOM     18  O   UNL     1     -12.494  14.140  63.031  0.00  0.00    -0.112 OA
ATOM     19  O   UNL     1     -13.237  14.460  65.330  0.00  0.00    -0.112 OA
ATOM     20  N   UNL     1     -12.869  11.974  64.460  0.00  0.00    +0.079 NA
ENDBRANCH  15  17
ENDBRANCH  13  14
ENDBRANCH  12  13
ENDBRANCH  11  12
ENDBRANCH   1  11
TORSDOF 6
ENDMDL
MODEL 8
REMARK VINA RESULT:      -6.0      4.235      4.861
REMARK  Name = 
REMARK  6 active torsions:
REMARK  status: ('A' for Active; 'I' for Inactive)
REMARK    1  A    between atoms: C_7  and  C_8
REMARK    2  A    between atoms: C_8  and  S_9
REMARK    3  A    between atoms: S_9  and  C_10
REMARK    4  A    between atoms: C_10  and  C_11
REMARK    5  A    between atoms: C_11  and  C_12
REMARK    6  A    between atoms: N_14  and  S_15
REMARK                            x       y       z     vdW  Elec       q    Type
REMARK                         _______ _______ _______ _____ _____    ______ ____
ROOT
ATOM      1  C   UNL     1      -7.959  17.808  68.508  0.00  0.00    +0.104 C 
ENDROOT
BRANCH   1   8
ATOM      2  N   UNL     1      -3.705  19.419  71.178  0.00  0.00    +0.136 NA
ATOM      3  C   UNL     1      -4.213  20.557  71.539  0.00  0.00    +0.541 C 
ATOM      4  N   UNL     1      -5.370  21.083  70.883  0.00  0.00    -0.033 NA
ATOM      5  C   UNL     1      -5.787  20.373  69.709  0.00  0.00    +0.273 A 
ATOM      6  S   UNL     1      -5.070  20.344  68.147  0.00  0.00    -0.029 S 
ATOM      7  C   UNL     1      -6.239  19.346  67.376  0.00  0.00    +0.055 A 
ATOM      8  C   UNL     1      -6.962  18.927  68.490  0.00  0.00    +0.080 A 
ATOM      9  N   UNL     1      -7.030  19.927  69.402  0.00  0.00    -0.209 NA
ATOM     10  N   UNL     1      -3.365  21.414  72.307  0.00  0.00    +0.136 NA
ENDBRANCH   1   8
BRANCH   1  11
ATOM     11  S   UNL     1      -9.606  18.502  68.286  0.00  0.00    -0.133 S 
BRANCH  11  12
ATOM     12  C   UNL     1     -10.636  17.453  67.223  0.00  0.00    +0.071 C 
BRANCH  12  13
ATOM     13  C   UNL     1      -9.771  16.867  66.114  0.00  0.00    +0.140 C 
BRANCH  13  14
ATOM     14  C   UNL     1     -10.648  15.952  65.338  0.00  0.00    +0.420 C 
ATOM     15  N   UNL     1     -10.702  14.561  65.674  0.00  0.00    +0.143 NA
ATOM     16  N   UNL     1     -11.343  16.357  64.317  0.00  0.00    +0.194 NA
BRANCH  15  17
ATOM     17  S   UNL     1     -12.020  13.646  65.072  0.00  0.00    +0.246 S 
ATOM     18  O   UNL     1     -11.908  13.353  63.612  0.00  0.00    -0.112 OA
ATOM     19  O   UNL     1     -13.303  14.410  65.307  0.00  0.00    -0.112 OA
ATOM     20  N   UNL     1     -12.065  12.141  65.932  0.00  0.00    +0.079 NA
ENDBRANCH  15  17
ENDBRANCH  13  14
ENDBRANCH  12  13
ENDBRANCH  11  12
ENDBRANCH   1  11
TORSDOF 6
ENDMDL
MODEL 9
REMARK VINA RESULT:      -6.0      3.915      7.885
REMARK  Name = 
REMARK  6 active torsions:
REMARK  status: ('A' for Active; 'I' for Inactive)
REMARK    1  A    between atoms: C_7  and  C_8
REMARK    2  A    between atoms: C_8  and  S_9
REMARK    3  A    between atoms: S_9  and  C_10
REMARK    4  A    between atoms: C_10  and  C_11
REMARK    5  A    between atoms: C_11  and  C_12
REMARK    6  A    between atoms: N_14  and  S_15
REMARK                            x       y       z     vdW  Elec       q    Type
REMARK                         _______ _______ _______ _____ _____    ______ ____
ROOT
ATOM      1  C   UNL     1     -10.431  18.034  67.828  0.00  0.00    +0.104 C 
ENDROOT
BRANCH   1   8
ATOM      2  N   UNL     1     -13.712  15.676  71.219  0.00  0.00    +0.136 NA
ATOM      3  C   UNL     1     -12.776  15.228  72.000  0.00  0.00    +0.541 C 
ATOM      4  N   UNL     1     -11.418  15.172  71.558  0.00  0.00    -0.033 NA
ATOM      5  C   UNL     1     -11.213  15.452  70.166  0.00  0.00    +0.273 A 
ATOM      6  S   UNL     1     -11.568  14.474  68.798  0.00  0.00    -0.029 S 
ATOM      7  C   UNL     1     -10.935  15.524  67.593  0.00  0.00    +0.055 A 
ATOM      8  C   UNL     1     -10.721  16.664  68.364  0.00  0.00    +0.080 A 
ATOM      9  N   UNL     1     -10.324  16.313  69.611  0.00  0.00    -0.209 NA
ATOM     10  N   UNL     1     -13.206  14.450  73.119  0.00  0.00    +0.136 NA
ENDBRANCH   1   8
BRANCH   1  11
ATOM     11  S   UNL     1      -8.908  17.966  66.869  0.00  0.00    -0.133 S 
BRANCH  11  12
ATOM     12  C   UNL     1      -7.714  19.215  67.422  0.00  0.00    +0.071 C 
BRANCH  12  13
ATOM     13  C   UNL     1      -7.841  19.390  68.930  0.00  0.00    +0.140 C 
BRANCH  13  14
ATOM     14  C   UNL     1      -6.453  19.446  69.462  0.00  0.00    +0.420 C 
ATOM     15  N   UNL     1      -6.019  20.594  70.199  0.00  0.00    +0.143 NA
ATOM     16  N   UNL     1      -5.586  18.503  69.239  0.00  0.00    +0.194 NA
BRANCH  15  17
ATOM     17  S   UNL     1      -4.604  20.440  71.154  0.00  0.00    +0.246 S 
ATOM     18  O   UNL     1      -3.370  20.228  70.339  0.00  0.00    -0.112 OA
ATOM     19  O   UNL     1      -4.763  19.263  72.090  0.00  0.00    -0.112 OA
ATOM     20  N   UNL     1      -4.413  21.899  72.070  0.00  0.00    +0.079 NA
ENDBRANCH  15  17
ENDBRANCH  13  14
ENDBRANCH  12  13
ENDBRANCH  11  12
ENDBRANCH   1  11
TORSDOF 6
ENDMDL
