MODEL 1
REMARK VINA RESULT:      -3.8      0.000      0.000
REMARK  Name = 
REMARK  7 active torsions:
REMARK  status: ('A' for Active; 'I' for Inactive)
REMARK    1  A    between atoms: C_2  and  C_3
REMARK    2  A    between atoms: C_3  and  N_4
REMARK    3  A    between atoms: N_4  and  C_5
REMARK    4  A    between atoms: C_5  and  C_6
REMARK    5  A    between atoms: C_6  and  N_7
REMARK    6  A    between atoms: N_7  and  C_8
REMARK    7  A    between atoms: C_8  and  C_9
REMARK                            x       y       z     vdW  Elec       q    Type
REMARK                         _______ _______ _______ _____ _____    ______ ____
ROOT
ATOM      1  C   UNL     1     -12.018  15.922  71.267  0.00  0.00    +0.108 C 
ENDROOT
BRANCH   1   2
ATOM      2  N   UNL     1     -13.435  15.636  71.435  0.00  0.00    -0.215 NA
BRANCH   2   3
ATOM      3  C   UNL     1     -13.742  15.808  72.851  0.00  0.00    +0.109 C 
BRANCH   3   5
ATOM      4  N   UNL     1     -12.495  16.027  74.860  0.00  0.00    -0.130 NA
ATOM      5  C   UNL     1     -12.559  15.242  73.628  0.00  0.00    +0.128 C 
ENDBRANCH   3   5
ENDBRANCH   2   3
ENDBRANCH   1   2
BRANCH   1   6
ATOM      6  C   UNL     1     -11.611  15.362  69.909  0.00  0.00    +0.108 C 
BRANCH   6   7
ATOM      7  N   UNL     1     -11.559  16.515  69.011  0.00  0.00    -0.215 NA
BRANCH   7   8
ATOM      8  C   UNL     1     -10.202  16.840  68.645  0.00  0.00    +0.109 C 
BRANCH   8   9
ATOM      9  C   UNL     1      -9.964  18.309  68.468  0.00  0.00    +0.128 C 
ATOM     10  N   UNL     1     -10.885  18.944  67.559  0.00  0.00    -0.130 NA
ENDBRANCH   8   9
ENDBRANCH   7   8
ENDBRANCH   6   7
ENDBRANCH   1   6
TORSDOF 7
ENDMDL
MODEL 2
REMARK VINA RESULT:      -3.7      2.806      6.219
REMARK  Name = 
REMARK  7 active torsions:
REMARK  status: ('A' for Active; 'I' for Inactive)
REMARK    1  A    between atoms: C_2  and  C_3
REMARK    2  A    between atoms: C_3  and  N_4
REMARK    3  A    between atoms: N_4  and  C_5
REMARK    4  A    between atoms: C_5  and  C_6
REMARK    5  A    between atoms: C_6  and  N_7
REMARK    6  A    between atoms: N_7  and  C_8
REMARK    7  A    between atoms: C_8  and  C_9
REMARK                            x       y       z     vdW  Elec       q    Type
REMARK                         _______ _______ _______ _____ _____    ______ ____
ROOT
ATOM      1  C   UNL     1     -11.368  14.940  67.302  0.00  0.00    +0.108 C 
ENDROOT
BRANCH   1   2
ATOM      2  N   UNL     1     -12.046  14.011  66.409  0.00  0.00    -0.215 NA
BRANCH   2   3
ATOM      3  C   UNL     1     -11.921  14.548  65.058  0.00  0.00    +0.109 C 
BRANCH   3   5
ATOM      4  N   UNL     1     -11.322  16.687  64.219  0.00  0.00    -0.130 NA
ATOM      5  C   UNL     1     -10.850  15.631  65.113  0.00  0.00    +0.128 C 
ENDBRANCH   3   5
ENDBRANCH   2   3
ENDBRANCH   1   2
BRANCH   1   6
ATOM      6  C   UNL     1     -11.878  14.653  68.709  0.00  0.00    +0.108 C 
BRANCH   6   7
ATOM      7  N   UNL     1     -12.080  15.965  69.325  0.00  0.00    -0.215 NA
BRANCH   7   8
ATOM      8  C   UNL     1     -12.158  15.868  70.763  0.00  0.00    +0.109 C 
BRANCH   8   9
ATOM      9  C   UNL     1     -13.458  15.309  71.256  0.00  0.00    +0.128 C 
ATOM     10  N   UNL     1     -13.919  15.904  72.486  0.00  0.00    -0.130 NA
ENDBRANCH   8   9
ENDBRANCH   7   8
ENDBRANCH   6   7
ENDBRANCH   1   6
TORSDOF 7
ENDMDL
MODEL 3
REMARK VINA RESULT:      -3.6      0.559      5.334
REMARK  Name = 
REMARK  7 active torsions:
REMARK  status: ('A' for Active; 'I' for Inactive)
REMARK    1  A    between atoms: C_2  and  C_3
REMARK    2  A    between atoms: C_3  and  N_4
REMARK    3  A    between atoms: N_4  and  C_5
REMARK    4  A    between atoms: C_5  and  C_6
REMARK    5  A    between atoms: C_6  and  N_7
REMARK    6  A    between atoms: N_7  and  C_8
REMARK    7  A    between atoms: C_8  and  C_9
REMARK                            x       y       z     vdW  Elec       q    Type
REMARK                         _______ _______ _______ _____ _____    ______ ____
ROOT
ATOM      1  C   UNL     1     -12.058  14.918  69.661  0.00  0.00    +0.108 C 
ENDROOT
BRANCH   1   2
ATOM      2  N   UNL     1     -11.600  15.844  68.635  0.00  0.00    -0.215 NA
BRANCH   2   3
ATOM      3  C   UNL     1     -10.651  16.751  69.270  0.00  0.00    +0.109 C 
BRANCH   3   5
ATOM      4  N   UNL     1     -10.820  18.513  67.687  0.00  0.00    -0.130 NA
ATOM      5  C   UNL     1      -9.909  17.466  68.147  0.00  0.00    +0.128 C 
ENDBRANCH   3   5
ENDBRANCH   2   3
ENDBRANCH   1   2
BRANCH   1   6
ATOM      6  C   UNL     1     -12.205  15.720  70.948  0.00  0.00    +0.108 C 
BRANCH   6   7
ATOM      7  N   UNL     1     -13.626  15.653  71.290  0.00  0.00    -0.215 NA
BRANCH   7   8
ATOM      8  C   UNL     1     -13.825  15.589  72.717  0.00  0.00    +0.109 C 
BRANCH   8   9
ATOM      9  C   UNL     1     -12.551  15.451  73.494  0.00  0.00    +0.128 C 
ATOM     10  N   UNL     1     -12.510  16.252  74.693  0.00  0.00    -0.130 NA
ENDBRANCH   8   9
ENDBRANCH   7   8
ENDBRANCH   6   7
ENDBRANCH   1   6
TORSDOF 7
ENDMDL
MODEL 4
REMARK VINA RESULT:      -3.6      2.273      2.973
REMARK  Name = 
REMARK  7 active torsions:
REMARK  status: ('A' for Active; 'I' for Inactive)
REMARK    1  A    between atoms: C_2  and  C_3
REMARK    2  A    between atoms: C_3  and  N_4
REMARK    3  A    between atoms: N_4  and  C_5
REMARK    4  A    between atoms: C_5  and  C_6
REMARK    5  A    between atoms: C_6  and  N_7
REMARK    6  A    between atoms: N_7  and  C_8
REMARK    7  A    between atoms: C_8  and  C_9
REMARK                            x       y       z     vdW  Elec       q    Type
REMARK                         _______ _______ _______ _____ _____    ______ ____
ROOT
ATOM      1  C   UNL     1     -12.012  15.925  71.355  0.00  0.00    +0.108 C 
ENDROOT
BRANCH   1   2
ATOM      2  N   UNL     1     -13.431  15.665  71.549  0.00  0.00    -0.215 NA
BRANCH   2   3
ATOM      3  C   UNL     1     -13.709  15.842  72.970  0.00  0.00    +0.109 C 
BRANCH   3   5
ATOM      4  N   UNL     1     -12.489  16.098  74.991  0.00  0.00    -0.130 NA
ATOM      5  C   UNL     1     -12.469  15.373  73.721  0.00  0.00    +0.128 C 
ENDBRANCH   3   5
ENDBRANCH   2   3
ENDBRANCH   1   2
BRANCH   1   6
ATOM      6  C   UNL     1     -11.701  15.620  69.895  0.00  0.00    +0.108 C 
BRANCH   6   7
ATOM      7  N   UNL     1     -12.207  14.267  69.662  0.00  0.00    -0.215 NA
BRANCH   7   8
ATOM      8  C   UNL     1     -11.412  13.566  68.684  0.00  0.00    +0.109 C 
BRANCH   8   9
ATOM      9  C   UNL     1     -11.910  13.728  67.279  0.00  0.00    +0.128 C 
ATOM     10  N   UNL     1     -12.013  12.489  66.550  0.00  0.00    -0.130 NA
ENDBRANCH   8   9
ENDBRANCH   7   8
ENDBRANCH   6   7
ENDBRANCH   1   6
TORSDOF 7
ENDMDL
MODEL 5
REMARK VINA RESULT:      -3.5      2.974      3.807
REMARK  Name = 
REMARK  7 active torsions:
REMARK  status: ('A' for Active; 'I' for Inactive)
REMARK    1  A    between atoms: C_2  and  C_3
REMARK    2  A    between atoms: C_3  and  N_4
REMARK    3  A    between atoms: N_4  and  C_5
REMARK    4  A    between atoms: C_5  and  C_6
REMARK    5  A    between atoms: C_6  and  N_7
REMARK    6  A    between atoms: N_7  and  C_8
REMARK    7  A    between atoms: C_8  and  C_9
REMARK                            x       y       z     vdW  Elec       q    Type
REMARK                         _______ _______ _______ _____ _____    ______ ____
ROOT
ATOM      1  C   UNL     1     -11.768  15.520  69.483  0.00  0.00    +0.108 C 
ENDROOT
BRANCH   1   2
ATOM      2  N   UNL     1     -12.725  15.900  70.512  0.00  0.00    -0.215 NA
BRANCH   2   3
ATOM      3  C   UNL     1     -11.984  16.020  71.763  0.00  0.00    +0.109 C 
BRANCH   3   5
ATOM      4  N   UNL     1     -14.273  15.845  72.371  0.00  0.00    -0.130 NA
ATOM      5  C   UNL     1     -12.927  15.578  72.875  0.00  0.00    +0.128 C 
ENDBRANCH   3   5
ENDBRANCH   2   3
ENDBRANCH   1   2
BRANCH   1   6
ATOM      6  C   UNL     1     -12.109  14.095  69.065  0.00  0.00    +0.108 C 
BRANCH   6   7
ATOM      7  N   UNL     1     -11.970  14.072  67.609  0.00  0.00    -0.215 NA
BRANCH   7   8
ATOM      8  C   UNL     1     -11.773  12.730  67.117  0.00  0.00    +0.109 C 
BRANCH   8   9
ATOM      9  C   UNL     1     -11.672  12.648  65.624  0.00  0.00    +0.128 C 
ATOM     10  N   UNL     1     -12.946  12.692  64.949  0.00  0.00    -0.130 NA
ENDBRANCH   8   9
ENDBRANCH   7   8
ENDBRANCH   6   7
ENDBRANCH   1   6
TORSDOF 7
ENDMDL
MODEL 6
REMARK VINA RESULT:      -3.5      3.073      3.652
REMARK  Name = 
REMARK  7 active torsions:
REMARK  status: ('A' for Active; 'I' for Inactive)
REMARK    1  A    between atoms: C_2  and  C_3
REMARK    2  A    between atoms: C_3  and  N_4
REMARK    3  A    between atoms: N_4  and  C_5
REMARK    4  A    between atoms: C_5  and  C_6
REMARK    5  A    between atoms: C_6  and  N_7
REMARK    6  A    between atoms: N_7  and  C_8
REMARK    7  A    between atoms: C_8  and  C_9
REMARK                            x       y       z     vdW  Elec       q    Type
REMARK                         _______ _______ _______ _____ _____    ______ ____
ROOT
ATOM      1  C   UNL     1     -11.963  13.775  68.467  0.00  0.00    +0.108 C 
ENDROOT
BRANCH   1   2
ATOM      2  N   UNL     1     -11.688  14.577  69.650  0.00  0.00    -0.215 NA
BRANCH   2   3
ATOM      3  C   UNL     1     -12.724  14.268  70.629  0.00  0.00    +0.109 C 
BRANCH   3   5
ATOM      4  N   UNL     1     -14.479  15.499  71.651  0.00  0.00    -0.130 NA
ATOM      5  C   UNL     1     -13.050  15.571  71.349  0.00  0.00    +0.128 C 
ENDBRANCH   3   5
ENDBRANCH   2   3
ENDBRANCH   1   2
BRANCH   1   6
ATOM      6  C   UNL     1     -11.561  14.613  67.260  0.00  0.00    +0.108 C 
BRANCH   6   7
ATOM      7  N   UNL     1     -12.415  14.154  66.164  0.00  0.00    -0.215 NA
BRANCH   7   8
ATOM      8  C   UNL     1     -11.771  14.323  64.885  0.00  0.00    +0.109 C 
BRANCH   8   9
ATOM      9  C   UNL     1     -10.953  15.575  64.786  0.00  0.00    +0.128 C 
ATOM     10  N   UNL     1     -11.590  16.631  64.038  0.00  0.00    -0.130 NA
ENDBRANCH   8   9
ENDBRANCH   7   8
ENDBRANCH   6   7
ENDBRANCH   1   6
TORSDOF 7
ENDMDL
MODEL 7
REMARK VINA RESULT:      -3.5      3.564      6.321
REMARK  Name = 
REMARK  7 active torsions:
REMARK  status: ('A' for Active; 'I' for Inactive)
REMARK    1  A    between atoms: C_2  and  C_3
REMARK    2  A    between atoms: C_3  and  N_4
REMARK    3  A    between atoms: N_4  and  C_5
REMARK    4  A    between atoms: C_5  and  C_6
REMARK    5  A    between atoms: C_6  and  N_7
REMARK    6  A    between atoms: N_7  and  C_8
REMARK    7  A    between atoms: C_8  and  C_9
REMARK                            x       y       z     vdW  Elec       q    Type
REMARK                         _______ _______ _______ _____ _____    ______ ____
ROOT
ATOM      1  C   UNL     1     -11.547  12.195  68.531  0.00  0.00    +0.108 C 
ENDROOT
BRANCH   1   2
ATOM      2  N   UNL     1     -12.001  12.293  67.152  0.00  0.00    -0.215 NA
BRANCH   2   3
ATOM      3  C   UNL     1     -11.696  13.645  66.696  0.00  0.00    +0.109 C 
BRANCH   3   5
ATOM      4  N   UNL     1     -12.928  12.644  64.929  0.00  0.00    -0.130 NA
ATOM      5  C   UNL     1     -12.644  13.942  65.540  0.00  0.00    +0.128 C 
ENDBRANCH   3   5
ENDBRANCH   2   3
ENDBRANCH   1   2
BRANCH   1   6
ATOM      6  C   UNL     1     -11.897  13.515  69.208  0.00  0.00    +0.108 C 
BRANCH   6   7
ATOM      7  N   UNL     1     -12.286  13.163  70.573  0.00  0.00    -0.215 NA
BRANCH   7   8
ATOM      8  C   UNL     1     -12.556  14.337  71.367  0.00  0.00    +0.109 C 
BRANCH   8   9
ATOM      9  C   UNL     1     -14.011  14.542  71.659  0.00  0.00    +0.128 C 
ATOM     10  N   UNL     1     -14.306  15.799  72.302  0.00  0.00    -0.130 NA
ENDBRANCH   8   9
ENDBRANCH   7   8
ENDBRANCH   6   7
ENDBRANCH   1   6
TORSDOF 7
ENDMDL
MODEL 8
REMARK VINA RESULT:      -3.5      1.687      5.659
REMARK  Name = 
REMARK  7 active torsions:
REMARK  status: ('A' for Active; 'I' for Inactive)
REMARK    1  A    between atoms: C_2  and  C_3
REMARK    2  A    between atoms: C_3  and  N_4
REMARK    3  A    between atoms: N_4  and  C_5
REMARK    4  A    between atoms: C_5  and  C_6
REMARK    5  A    between atoms: C_6  and  N_7
REMARK    6  A    between atoms: N_7  and  C_8
REMARK    7  A    between atoms: C_8  and  C_9
REMARK                            x       y       z     vdW  Elec       q    Type
REMARK                         _______ _______ _______ _____ _____    ______ ____
ROOT
ATOM      1  C   UNL     1     -11.285  16.170  70.200  0.00  0.00    +0.108 C 
ENDROOT
BRANCH   1   2
ATOM      2  N   UNL     1     -11.838  16.193  68.853  0.00  0.00    -0.215 NA
BRANCH   2   3
ATOM      3  C   UNL     1     -10.955  15.390  68.014  0.00  0.00    +0.109 C 
BRANCH   3   5
ATOM      4  N   UNL     1     -11.204  14.473  65.838  0.00  0.00    -0.130 NA
ATOM      5  C   UNL     1     -11.851  14.513  67.149  0.00  0.00    +0.128 C 
ENDBRANCH   3   5
ENDBRANCH   2   3
ENDBRANCH   1   2
BRANCH   1   6
ATOM      6  C   UNL     1     -12.067  15.121  70.981  0.00  0.00    +0.108 C 
BRANCH   6   7
ATOM      7  N   UNL     1     -13.150  15.852  71.639  0.00  0.00    -0.215 NA
BRANCH   7   8
ATOM      8  C   UNL     1     -13.501  15.253  72.904  0.00  0.00    +0.109 C 
BRANCH   8   9
ATOM      9  C   UNL     1     -12.406  15.325  73.925  0.00  0.00    +0.128 C 
ATOM     10  N   UNL     1     -12.521  16.445  74.826  0.00  0.00    -0.130 NA
ENDBRANCH   8   9
ENDBRANCH   7   8
ENDBRANCH   6   7
ENDBRANCH   1   6
TORSDOF 7
ENDMDL
MODEL 9
REMARK VINA RESULT:      -3.5      4.235      6.297
REMARK  Name = 
REMARK  7 active torsions:
REMARK  status: ('A' for Active; 'I' for Inactive)
REMARK    1  A    between atoms: C_2  and  C_3
REMARK    2  A    between atoms: C_3  and  N_4
REMARK    3  A    between atoms: N_4  and  C_5
REMARK    4  A    between atoms: C_5  and  C_6
REMARK    5  A    between atoms: C_6  and  N_7
REMARK    6  A    between atoms: N_7  and  C_8
REMARK    7  A    between atoms: C_8  and  C_9
REMARK                            x       y       z     vdW  Elec       q    Type
REMARK                         _______ _______ _______ _____ _____    ______ ____
ROOT
ATOM      1  C   UNL     1     -10.326  14.494  65.904  0.00  0.00    +0.108 C 
ENDROOT
BRANCH   1   2
ATOM      2  N   UNL     1     -11.557  14.053  66.542  0.00  0.00    -0.215 NA
BRANCH   2   3
ATOM      3  C   UNL     1     -12.579  13.988  65.504  0.00  0.00    +0.109 C 
BRANCH   3   5
ATOM      4  N   UNL     1     -12.531  12.841  63.425  0.00  0.00    -0.130 NA
ATOM      5  C   UNL     1     -12.471  12.608  64.868  0.00  0.00    +0.128 C 
ENDBRANCH   3   5
ENDBRANCH   2   3
ENDBRANCH   1   2
BRANCH   1   6
ATOM      6  C   UNL     1     -10.641  15.802  65.189  0.00  0.00    +0.108 C 
BRANCH   6   7
ATOM      7  N   UNL     1      -9.662  16.767  65.690  0.00  0.00    -0.215 NA
BRANCH   7   8
ATOM      8  C   UNL     1     -10.295  17.817  66.450  0.00  0.00    +0.109 C 
BRANCH   8   9
ATOM      9  C   UNL     1     -10.105  17.685  67.930  0.00  0.00    +0.128 C 
ATOM     10  N   UNL     1     -11.163  16.963  68.592  0.00  0.00    -0.130 NA
ENDBRANCH   8   9
ENDBRANCH   7   8
ENDBRANCH   6   7
ENDBRANCH   1   6
TORSDOF 7
ENDMDL
