MODEL 1
REMARK VINA RESULT:      -8.1      0.000      0.000
REMARK  Name = 
REMARK  4 active torsions:
REMARK  status: ('A' for Active; 'I' for Inactive)
REMARK    1  A    between atoms: N_4  and  N_5
REMARK    2  A    between atoms: C_6  and  C_7
REMARK    3  A    between atoms: C_10  and  C_11
REMARK    4  A    between atoms: C_14  and  N_15
REMARK                            x       y       z     vdW  Elec       q    Type
REMARK                         _______ _______ _______ _____ _____    ______ ____
ROOT
ATOM      1  C   UNL     1      -9.202  17.026  67.867  0.00  0.00    +0.166 A 
ATOM      2  O   UNL     1      -8.005  17.414  67.464  0.00  0.00    -0.452 OA
ATOM      3  C   UNL     1      -7.650  18.372  68.280  0.00  0.00    +0.145 A 
ATOM      4  C   UNL     1      -8.820  19.052  68.601  0.00  0.00    +0.041 A 
ATOM      5  C   UNL     1      -9.807  18.085  68.532  0.00  0.00    +0.042 A 
ENDROOT
BRANCH   3   6
ATOM      6  C   UNL     1      -6.324  18.975  68.465  0.00  0.00    +0.035 A 
ATOM      7  C   UNL     1      -6.150  20.354  68.403  0.00  0.00    +0.009 A 
ATOM      8  C   UNL     1      -5.278  21.018  69.259  0.00  0.00    +0.075 A 
ATOM      9  C   UNL     1      -4.616  20.320  70.262  0.00  0.00    +0.290 A 
ATOM     10  C   UNL     1      -4.494  18.954  70.036  0.00  0.00    +0.075 A 
ATOM     11  C   UNL     1      -5.292  18.297  69.104  0.00  0.00    +0.009 A 
BRANCH   9  12
ATOM     12  N   UNL     1      -4.487  20.858  71.585  0.00  0.00    +0.081 N 
ATOM     13  O   UNL     1      -3.761  20.121  72.492  0.00  0.00    -0.576 OA
ATOM     14  O   UNL     1      -4.552  22.090  71.811  0.00  0.00    +0.041 OA
ENDBRANCH   9  12
ENDBRANCH   3   6
BRANCH   1  16
ATOM     15  N   UNL     1      -9.564  15.359  66.153  0.00  0.00    -0.169 NA
ATOM     16  C   UNL     1      -9.953  15.930  67.241  0.00  0.00    +0.155 C 
BRANCH  15  22
ATOM     17  O   UNL     1     -13.067  12.665  64.875  0.00  0.00    -0.271 OA
ATOM     18  C   UNL     1     -12.217  13.530  64.544  0.00  0.00    +0.272 C 
ATOM     19  N   UNL     1     -12.464  14.844  64.035  0.00  0.00    -0.125 NA
ATOM     20  C   UNL     1     -11.389  15.668  64.484  0.00  0.00    +0.349 C 
ATOM     21  O   UNL     1     -11.317  16.908  64.255  0.00  0.00    -0.249 OA
ATOM     22  N   UNL     1     -10.522  14.858  65.276  0.00  0.00    -0.154 N 
ATOM     23  C   UNL     1     -10.749  13.499  64.828  0.00  0.00    +0.208 C 
ENDBRANCH  15  22
ENDBRANCH   1  16
TORSDOF 4
ENDMDL
MODEL 2
REMARK VINA RESULT:      -7.7      1.607      9.127
REMARK  Name = 
REMARK  4 active torsions:
REMARK  status: ('A' for Active; 'I' for Inactive)
REMARK    1  A    between atoms: N_4  and  N_5
REMARK    2  A    between atoms: C_6  and  C_7
REMARK    3  A    between atoms: C_10  and  C_11
REMARK    4  A    between atoms: C_14  and  N_15
REMARK                            x       y       z     vdW  Elec       q    Type
REMARK                         _______ _______ _______ _____ _____    ______ ____
ROOT
ATOM      1  C   UNL     1      -8.371  18.712  68.407  0.00  0.00    +0.166 A 
ATOM      2  O   UNL     1      -8.426  17.410  68.622  0.00  0.00    -0.452 OA
ATOM      3  C   UNL     1      -9.420  16.974  67.892  0.00  0.00    +0.145 A 
ATOM      4  C   UNL     1     -10.372  17.986  67.898  0.00  0.00    +0.041 A 
ATOM      5  C   UNL     1      -9.633  19.149  68.023  0.00  0.00    +0.042 A 
ENDROOT
BRANCH   3   6
ATOM      6  C   UNL     1      -9.760  15.588  67.541  0.00  0.00    +0.035 A 
ATOM      7  C   UNL     1     -10.847  14.947  68.126  0.00  0.00    +0.009 A 
ATOM      8  C   UNL     1     -11.670  14.097  67.397  0.00  0.00    +0.075 A 
ATOM      9  C   UNL     1     -11.472  13.930  66.032  0.00  0.00    +0.290 A 
ATOM     10  C   UNL     1     -10.190  14.236  65.590  0.00  0.00    +0.075 A 
ATOM     11  C   UNL     1      -9.319  15.002  66.359  0.00  0.00    +0.009 A 
BRANCH   9  12
ATOM     12  N   UNL     1     -12.575  13.900  65.116  0.00  0.00    +0.081 N 
ATOM     13  O   UNL     1     -12.586  14.849  64.119  0.00  0.00    -0.576 OA
ATOM     14  O   UNL     1     -13.208  12.845  64.871  0.00  0.00    +0.041 OA
ENDBRANCH   9  12
ENDBRANCH   3   6
BRANCH   1  16
ATOM     15  N   UNL     1      -6.097  19.360  68.911  0.00  0.00    -0.169 NA
ATOM     16  C   UNL     1      -7.361  19.592  69.009  0.00  0.00    +0.155 C 
BRANCH  15  22
ATOM     17  O   UNL     1      -4.546  22.171  72.207  0.00  0.00    -0.271 OA
ATOM     18  C   UNL     1      -4.394  21.100  71.565  0.00  0.00    +0.272 C 
ATOM     19  N   UNL     1      -4.386  19.767  72.083  0.00  0.00    -0.125 NA
ATOM     20  C   UNL     1      -4.913  18.925  71.061  0.00  0.00    +0.349 C 
ATOM     21  O   UNL     1      -5.094  17.683  71.203  0.00  0.00    -0.249 OA
ATOM     22  N   UNL     1      -5.258  19.752  69.951  0.00  0.00    -0.154 N 
ATOM     23  C   UNL     1      -4.429  20.934  70.080  0.00  0.00    +0.208 C 
ENDBRANCH  15  22
ENDBRANCH   1  16
TORSDOF 4
ENDMDL
MODEL 3
REMARK VINA RESULT:      -7.3      5.560      9.666
REMARK  Name = 
REMARK  4 active torsions:
REMARK  status: ('A' for Active; 'I' for Inactive)
REMARK    1  A    between atoms: N_4  and  N_5
REMARK    2  A    between atoms: C_6  and  C_7
REMARK    3  A    between atoms: C_10  and  C_11
REMARK    4  A    between atoms: C_14  and  N_15
REMARK                            x       y       z     vdW  Elec       q    Type
REMARK                         _______ _______ _______ _____ _____    ______ ____
ROOT
ATOM      1  C   UNL     1     -11.418  13.168  67.686  0.00  0.00    +0.166 A 
ATOM      2  O   UNL     1     -11.972  12.904  68.856  0.00  0.00    -0.452 OA
ATOM      3  C   UNL     1     -11.632  11.673  69.138  0.00  0.00    +0.145 A 
ATOM      4  C   UNL     1     -11.594  10.999  67.923  0.00  0.00    +0.041 A 
ATOM      5  C   UNL     1     -11.237  11.970  67.005  0.00  0.00    +0.042 A 
ENDROOT
BRANCH   3   6
ATOM      6  C   UNL     1     -11.742  10.962  70.419  0.00  0.00    +0.035 A 
ATOM      7  C   UNL     1     -12.758  11.263  71.319  0.00  0.00    +0.009 A 
ATOM      8  C   UNL     1     -13.401  10.272  72.052  0.00  0.00    +0.075 A 
ATOM      9  C   UNL     1     -13.094   8.933  71.837  0.00  0.00    +0.290 A 
ATOM     10  C   UNL     1     -11.845   8.707  71.270  0.00  0.00    +0.075 A 
ATOM     11  C   UNL     1     -11.146   9.722  70.623  0.00  0.00    +0.009 A 
BRANCH   9  12
ATOM     12  N   UNL     1     -14.121   7.934  71.771  0.00  0.00    +0.081 N 
ATOM     13  O   UNL     1     -13.712   6.621  71.701  0.00  0.00    -0.576 OA
ATOM     14  O   UNL     1     -15.265   8.123  72.246  0.00  0.00    +0.041 OA
ENDBRANCH   9  12
ENDBRANCH   3   6
BRANCH   1  16
ATOM     15  N   UNL     1     -10.485  15.115  66.599  0.00  0.00    -0.169 NA
ATOM     16  C   UNL     1     -11.519  14.471  67.016  0.00  0.00    +0.155 C 
BRANCH  15  22
ATOM     17  O   UNL     1      -8.926  19.337  67.554  0.00  0.00    -0.271 OA
ATOM     18  C   UNL     1      -9.845  18.628  67.070  0.00  0.00    +0.272 C 
ATOM     19  N   UNL     1     -10.334  18.633  65.726  0.00  0.00    -0.125 NA
ATOM     20  C   UNL     1     -10.767  17.305  65.441  0.00  0.00    +0.349 C 
ATOM     21  O   UNL     1     -11.212  16.941  64.316  0.00  0.00    -0.249 OA
ATOM     22  N   UNL     1     -10.514  16.507  66.597  0.00  0.00    -0.154 N 
ATOM     23  C   UNL     1     -10.488  17.438  67.707  0.00  0.00    +0.208 C 
ENDBRANCH  15  22
ENDBRANCH   1  16
TORSDOF 4
ENDMDL
MODEL 4
REMARK VINA RESULT:      -7.1      2.786      3.249
REMARK  Name = 
REMARK  4 active torsions:
REMARK  status: ('A' for Active; 'I' for Inactive)
REMARK    1  A    between atoms: N_4  and  N_5
REMARK    2  A    between atoms: C_6  and  C_7
REMARK    3  A    between atoms: C_10  and  C_11
REMARK    4  A    between atoms: C_14  and  N_15
REMARK                            x       y       z     vdW  Elec       q    Type
REMARK                         _______ _______ _______ _____ _____    ______ ____
ROOT
ATOM      1  C   UNL     1      -9.574  17.959  68.276  0.00  0.00    +0.166 A 
ATOM      2  O   UNL     1      -8.267  17.799  68.168  0.00  0.00    -0.452 OA
ATOM      3  C   UNL     1      -7.750  18.987  68.349  0.00  0.00    +0.145 A 
ATOM      4  C   UNL     1      -8.653  19.885  67.795  0.00  0.00    +0.041 A 
ATOM      5  C   UNL     1      -9.884  19.275  67.954  0.00  0.00    +0.042 A 
ENDROOT
BRANCH   3   6
ATOM      6  C   UNL     1      -6.348  19.347  68.600  0.00  0.00    +0.035 A 
ATOM      7  C   UNL     1      -5.936  20.675  68.581  0.00  0.00    +0.009 A 
ATOM      8  C   UNL     1      -5.000  21.161  69.486  0.00  0.00    +0.075 A 
ATOM      9  C   UNL     1      -4.511  20.340  70.496  0.00  0.00    +0.290 A 
ATOM     10  C   UNL     1      -4.617  18.978  70.239  0.00  0.00    +0.075 A 
ATOM     11  C   UNL     1      -5.476  18.487  69.261  0.00  0.00    +0.009 A 
BRANCH   9  12
ATOM     12  N   UNL     1      -4.347  20.823  71.836  0.00  0.00    +0.081 N 
ATOM     13  O   UNL     1      -3.501  20.113  72.657  0.00  0.00    -0.576 OA
ATOM     14  O   UNL     1      -4.508  22.031  72.133  0.00  0.00    +0.041 OA
ENDBRANCH   9  12
ENDBRANCH   3   6
BRANCH   1  16
ATOM     15  N   UNL     1     -11.478  16.680  69.040  0.00  0.00    -0.169 NA
ATOM     16  C   UNL     1     -10.537  16.855  68.177  0.00  0.00    +0.155 C 
BRANCH  15  22
ATOM     17  O   UNL     1     -11.087  12.103  69.287  0.00  0.00    -0.271 OA
ATOM     18  C   UNL     1     -11.821  13.115  69.421  0.00  0.00    +0.272 C 
ATOM     19  N   UNL     1     -12.476  13.566  70.610  0.00  0.00    -0.125 NA
ATOM     20  C   UNL     1     -12.543  14.988  70.529  0.00  0.00    +0.349 C 
ATOM     21  O   UNL     1     -13.019  15.718  71.443  0.00  0.00    -0.249 OA
ATOM     22  N   UNL     1     -11.909  15.385  69.314  0.00  0.00    -0.154 N 
ATOM     23  C   UNL     1     -11.995  14.232  68.441  0.00  0.00    +0.208 C 
ENDBRANCH  15  22
ENDBRANCH   1  16
TORSDOF 4
ENDMDL
MODEL 5
REMARK VINA RESULT:      -6.9      2.118      2.443
REMARK  Name = 
REMARK  4 active torsions:
REMARK  status: ('A' for Active; 'I' for Inactive)
REMARK    1  A    between atoms: N_4  and  N_5
REMARK    2  A    between atoms: C_6  and  C_7
REMARK    3  A    between atoms: C_10  and  C_11
REMARK    4  A    between atoms: C_14  and  N_15
REMARK                            x       y       z     vdW  Elec       q    Type
REMARK                         _______ _______ _______ _____ _____    ______ ____
ROOT
ATOM      1  C   UNL     1      -9.804  17.929  67.385  0.00  0.00    +0.166 A 
ATOM      2  O   UNL     1      -8.516  18.216  67.327  0.00  0.00    -0.452 OA
ATOM      3  C   UNL     1      -8.404  19.432  67.794  0.00  0.00    +0.145 A 
ATOM      4  C   UNL     1      -9.554  20.103  67.394  0.00  0.00    +0.041 A 
ATOM      5  C   UNL     1     -10.523  19.117  67.340  0.00  0.00    +0.042 A 
ENDROOT
BRANCH   3   6
ATOM      6  C   UNL     1      -7.189  20.148  68.204  0.00  0.00    +0.035 A 
ATOM      7  C   UNL     1      -6.343  19.625  69.177  0.00  0.00    +0.009 A 
ATOM      8  C   UNL     1      -4.961  19.731  69.075  0.00  0.00    +0.075 A 
ATOM      9  C   UNL     1      -4.384  20.297  67.944  0.00  0.00    +0.290 A 
ATOM     10  C   UNL     1      -5.221  21.145  67.228  0.00  0.00    +0.075 A 
ATOM     11  C   UNL     1      -6.602  21.119  67.399  0.00  0.00    +0.009 A 
BRANCH   9  12
ATOM     12  N   UNL     1      -3.226  19.717  67.327  0.00  0.00    +0.081 N 
ATOM     13  O   UNL     1      -2.302  20.585  66.792  0.00  0.00    -0.576 OA
ATOM     14  O   UNL     1      -2.786  18.593  67.665  0.00  0.00    +0.041 OA
ENDBRANCH   9  12
ENDBRANCH   3   6
BRANCH   1  16
ATOM     15  N   UNL     1      -9.808  15.879  66.101  0.00  0.00    -0.169 NA
ATOM     16  C   UNL     1     -10.364  16.630  66.988  0.00  0.00    +0.155 C 
BRANCH  15  22
ATOM     17  O   UNL     1     -12.698  12.406  65.234  0.00  0.00    -0.271 OA
ATOM     18  C   UNL     1     -12.000  13.347  64.777  0.00  0.00    +0.272 C 
ATOM     19  N   UNL     1     -12.450  14.489  64.042  0.00  0.00    -0.125 NA
ATOM     20  C   UNL     1     -11.566  15.560  64.364  0.00  0.00    +0.349 C 
ATOM     21  O   UNL     1     -11.705  16.736  63.924  0.00  0.00    -0.249 OA
ATOM     22  N   UNL     1     -10.612  15.070  65.304  0.00  0.00    -0.154 N 
ATOM     23  C   UNL     1     -10.568  13.636  65.094  0.00  0.00    +0.208 C 
ENDBRANCH  15  22
ENDBRANCH   1  16
TORSDOF 4
ENDMDL
MODEL 6
REMARK VINA RESULT:      -6.9      5.564      8.746
REMARK  Name = 
REMARK  4 active torsions:
REMARK  status: ('A' for Active; 'I' for Inactive)
REMARK    1  A    between atoms: N_4  and  N_5
REMARK    2  A    between atoms: C_6  and  C_7
REMARK    3  A    between atoms: C_10  and  C_11
REMARK    4  A    between atoms: C_14  and  N_15
REMARK                            x       y       z     vdW  Elec       q    Type
REMARK                         _______ _______ _______ _____ _____    ______ ____
ROOT
ATOM      1  C   UNL     1     -11.758  15.092  70.061  0.00  0.00    +0.166 A 
ATOM      2  O   UNL     1     -11.220  13.888  69.974  0.00  0.00    -0.452 OA
ATOM      3  C   UNL     1     -12.137  13.059  70.401  0.00  0.00    +0.145 A 
ATOM      4  C   UNL     1     -12.821  13.733  71.406  0.00  0.00    +0.041 A 
ATOM      5  C   UNL     1     -12.741  15.065  71.041  0.00  0.00    +0.042 A 
ENDROOT
BRANCH   3   6
ATOM      6  C   UNL     1     -12.182  11.597  70.275  0.00  0.00    +0.035 A 
ATOM      7  C   UNL     1     -11.248  10.916  69.500  0.00  0.00    +0.009 A 
ATOM      8  C   UNL     1     -10.721   9.694  69.899  0.00  0.00    +0.075 A 
ATOM      9  C   UNL     1     -11.057   9.157  71.137  0.00  0.00    +0.290 A 
ATOM     10  C   UNL     1     -12.252   9.629  71.668  0.00  0.00    +0.075 A 
ATOM     11  C   UNL     1     -12.844  10.800  71.203  0.00  0.00    +0.009 A 
BRANCH   9  12
ATOM     12  N   UNL     1     -10.069   8.550  71.980  0.00  0.00    +0.081 N 
ATOM     13  O   UNL     1      -8.781   9.021  71.873  0.00  0.00    -0.576 OA
ATOM     14  O   UNL     1     -10.366   8.019  73.077  0.00  0.00    +0.041 OA
ENDBRANCH   9  12
ENDBRANCH   3   6
BRANCH   1  16
ATOM     15  N   UNL     1     -11.232  16.833  68.468  0.00  0.00    -0.169 NA
ATOM     16  C   UNL     1     -11.071  16.319  69.638  0.00  0.00    +0.155 C 
BRANCH  15  22
ATOM     17  O   UNL     1      -7.588  17.340  65.706  0.00  0.00    -0.271 OA
ATOM     18  C   UNL     1      -8.333  17.843  66.586  0.00  0.00    +0.272 C 
ATOM     19  N   UNL     1      -9.134  19.023  66.479  0.00  0.00    -0.125 NA
ATOM     20  C   UNL     1     -10.276  18.821  67.307  0.00  0.00    +0.349 C 
ATOM     21  O   UNL     1     -11.222  19.653  67.409  0.00  0.00    -0.249 OA
ATOM     22  N   UNL     1     -10.172  17.520  67.883  0.00  0.00    -0.154 N 
ATOM     23  C   UNL     1      -8.757  17.207  67.870  0.00  0.00    +0.208 C 
ENDBRANCH  15  22
ENDBRANCH   1  16
TORSDOF 4
ENDMDL
MODEL 7
REMARK VINA RESULT:      -6.8      2.583      2.908
REMARK  Name = 
REMARK  4 active torsions:
REMARK  status: ('A' for Active; 'I' for Inactive)
REMARK    1  A    between atoms: N_4  and  N_5
REMARK    2  A    between atoms: C_6  and  C_7
REMARK    3  A    between atoms: C_10  and  C_11
REMARK    4  A    between atoms: C_14  and  N_15
REMARK                            x       y       z     vdW  Elec       q    Type
REMARK                         _______ _______ _______ _____ _____    ______ ____
ROOT
ATOM      1  C   UNL     1      -9.317  17.430  66.353  0.00  0.00    +0.166 A 
ATOM      2  O   UNL     1      -8.232  18.019  65.883  0.00  0.00    -0.452 OA
ATOM      3  C   UNL     1      -8.318  19.269  66.258  0.00  0.00    +0.145 A 
ATOM      4  C   UNL     1      -9.671  19.585  66.225  0.00  0.00    +0.041 A 
ATOM      5  C   UNL     1     -10.309  18.391  66.506  0.00  0.00    +0.042 A 
ENDROOT
BRANCH   3   6
ATOM      6  C   UNL     1      -7.276  20.305  66.243  0.00  0.00    +0.035 A 
ATOM      7  C   UNL     1      -6.840  20.899  67.423  0.00  0.00    +0.009 A 
ATOM      8  C   UNL     1      -5.502  21.210  67.631  0.00  0.00    +0.075 A 
ATOM      9  C   UNL     1      -4.545  20.855  66.686  0.00  0.00    +0.290 A 
ATOM     10  C   UNL     1      -5.043  20.657  65.403  0.00  0.00    +0.075 A 
ATOM     11  C   UNL     1      -6.399  20.447  65.173  0.00  0.00    +0.009 A 
BRANCH   9  12
ATOM     12  N   UNL     1      -3.281  20.301  67.076  0.00  0.00    +0.081 N 
ATOM     13  O   UNL     1      -2.371  21.163  67.646  0.00  0.00    -0.576 OA
ATOM     14  O   UNL     1      -3.149  19.091  67.378  0.00  0.00    +0.041 OA
ENDBRANCH   9  12
ENDBRANCH   3   6
BRANCH   1  16
ATOM     15  N   UNL     1      -9.939  15.485  65.057  0.00  0.00    -0.169 NA
ATOM     16  C   UNL     1      -9.598  15.998  66.190  0.00  0.00    +0.155 C 
BRANCH  15  22
ATOM     17  O   UNL     1     -12.065  11.819  66.846  0.00  0.00    -0.271 OA
ATOM     18  C   UNL     1     -11.844  12.529  65.832  0.00  0.00    +0.272 C 
ATOM     19  N   UNL     1     -12.798  13.254  65.051  0.00  0.00    -0.125 NA
ATOM     20  C   UNL     1     -12.127  14.407  64.547  0.00  0.00    +0.349 C 
ATOM     21  O   UNL     1     -12.693  15.298  63.854  0.00  0.00    -0.249 OA
ATOM     22  N   UNL     1     -10.791  14.384  65.046  0.00  0.00    -0.154 N 
ATOM     23  C   UNL     1     -10.512  12.992  65.336  0.00  0.00    +0.208 C 
ENDBRANCH  15  22
ENDBRANCH   1  16
TORSDOF 4
ENDMDL
MODEL 8
REMARK VINA RESULT:      -6.8      4.511      5.974
REMARK  Name = 
REMARK  4 active torsions:
REMARK  status: ('A' for Active; 'I' for Inactive)
REMARK    1  A    between atoms: N_4  and  N_5
REMARK    2  A    between atoms: C_6  and  C_7
REMARK    3  A    between atoms: C_10  and  C_11
REMARK    4  A    between atoms: C_14  and  N_15
REMARK                            x       y       z     vdW  Elec       q    Type
REMARK                         _______ _______ _______ _____ _____    ______ ____
ROOT
ATOM      1  C   UNL     1     -10.989  15.112  68.399  0.00  0.00    +0.166 A 
ATOM      2  O   UNL     1     -10.200  16.168  68.312  0.00  0.00    -0.452 OA
ATOM      3  C   UNL     1      -9.590  16.059  67.160  0.00  0.00    +0.145 A 
ATOM      4  C   UNL     1      -9.393  14.697  66.961  0.00  0.00    +0.041 A 
ATOM      5  C   UNL     1     -10.458  14.099  67.611  0.00  0.00    +0.042 A 
ENDROOT
BRANCH   3   6
ATOM      6  C   UNL     1      -8.812  17.072  66.435  0.00  0.00    +0.035 A 
ATOM      7  C   UNL     1      -9.322  18.348  66.220  0.00  0.00    +0.009 A 
ATOM      8  C   UNL     1      -8.517  19.478  66.299  0.00  0.00    +0.075 A 
ATOM      9  C   UNL     1      -7.185  19.363  66.681  0.00  0.00    +0.290 A 
ATOM     10  C   UNL     1      -6.632  18.103  66.484  0.00  0.00    +0.075 A 
ATOM     11  C   UNL     1      -7.431  16.979  66.300  0.00  0.00    +0.009 A 
BRANCH   9  12
ATOM     12  N   UNL     1      -6.589  20.291  67.598  0.00  0.00    +0.081 N 
ATOM     13  O   UNL     1      -6.554  21.612  67.215  0.00  0.00    -0.576 OA
ATOM     14  O   UNL     1      -6.563  20.081  68.834  0.00  0.00    +0.041 OA
ENDBRANCH   9  12
ENDBRANCH   3   6
BRANCH   1  16
ATOM     15  N   UNL     1     -12.512  15.817  70.140  0.00  0.00    -0.169 NA
ATOM     16  C   UNL     1     -11.891  14.866  69.531  0.00  0.00    +0.155 C 
BRANCH  15  22
ATOM     17  O   UNL     1     -12.157  16.860  74.607  0.00  0.00    -0.271 OA
ATOM     18  C   UNL     1     -12.631  16.094  73.729  0.00  0.00    +0.272 C 
ATOM     19  N   UNL     1     -14.010  15.843  73.444  0.00  0.00    -0.125 NA
ATOM     20  C   UNL     1     -14.098  15.569  72.047  0.00  0.00    +0.349 C 
ATOM     21  O   UNL     1     -15.187  15.351  71.445  0.00  0.00    -0.249 OA
ATOM     22  N   UNL     1     -12.786  15.681  71.498  0.00  0.00    -0.154 N 
ATOM     23  C   UNL     1     -11.883  15.446  72.608  0.00  0.00    +0.208 C 
ENDBRANCH  15  22
ENDBRANCH   1  16
TORSDOF 4
ENDMDL
MODEL 9
REMARK VINA RESULT:      -6.8      4.069      5.015
REMARK  Name = 
REMARK  4 active torsions:
REMARK  status: ('A' for Active; 'I' for Inactive)
REMARK    1  A    between atoms: N_4  and  N_5
REMARK    2  A    between atoms: C_6  and  C_7
REMARK    3  A    between atoms: C_10  and  C_11
REMARK    4  A    between atoms: C_14  and  N_15
REMARK                            x       y       z     vdW  Elec       q    Type
REMARK                         _______ _______ _______ _____ _____    ______ ____
ROOT
ATOM      1  C   UNL     1     -10.147  16.792  68.870  0.00  0.00    +0.166 A 
ATOM      2  O   UNL     1      -8.837  16.928  68.969  0.00  0.00    -0.452 OA
ATOM      3  C   UNL     1      -8.503  17.807  68.060  0.00  0.00    +0.145 A 
ATOM      4  C   UNL     1      -9.366  17.598  66.991  0.00  0.00    +0.041 A 
ATOM      5  C   UNL     1     -10.528  17.128  67.577  0.00  0.00    +0.042 A 
ENDROOT
BRANCH   3   6
ATOM      6  C   UNL     1      -7.232  18.528  67.905  0.00  0.00    +0.035 A 
ATOM      7  C   UNL     1      -7.211  19.888  67.614  0.00  0.00    +0.009 A 
ATOM      8  C   UNL     1      -6.276  20.742  68.188  0.00  0.00    +0.075 A 
ATOM      9  C   UNL     1      -5.383  20.264  69.140  0.00  0.00    +0.290 A 
ATOM     10  C   UNL     1      -5.165  18.892  69.093  0.00  0.00    +0.075 A 
ATOM     11  C   UNL     1      -6.042  18.038  68.432  0.00  0.00    +0.009 A 
BRANCH   9  12
ATOM     12  N   UNL     1      -5.083  21.015  70.324  0.00  0.00    +0.081 N 
ATOM     13  O   UNL     1      -5.850  20.758  71.437  0.00  0.00    -0.576 OA
ATOM     14  O   UNL     1      -3.939  21.478  70.546  0.00  0.00    +0.041 OA
ENDBRANCH   9  12
ENDBRANCH   3   6
BRANCH   1  16
ATOM     15  N   UNL     1     -12.102  16.258  70.189  0.00  0.00    -0.169 NA
ATOM     16  C   UNL     1     -10.941  15.920  69.745  0.00  0.00    +0.155 C 
BRANCH  15  22
ATOM     17  O   UNL     1     -12.345  16.276  74.784  0.00  0.00    -0.271 OA
ATOM     18  C   UNL     1     -12.639  15.698  73.706  0.00  0.00    +0.272 C 
ATOM     19  N   UNL     1     -13.945  15.414  73.197  0.00  0.00    -0.125 NA
ATOM     20  C   UNL     1     -13.852  15.460  71.775  0.00  0.00    +0.349 C 
ATOM     21  O   UNL     1     -14.840  15.304  71.004  0.00  0.00    -0.249 OA
ATOM     22  N   UNL     1     -12.506  15.795  71.438  0.00  0.00    -0.154 N 
ATOM     23  C   UNL     1     -11.711  15.382  72.577  0.00  0.00    +0.208 C 
ENDBRANCH  15  22
ENDBRANCH   1  16
TORSDOF 4
ENDMDL
