MODEL 1
REMARK VINA RESULT:      -7.0      0.000      0.000
REMARK  Name = 
REMARK  2 active torsions:
REMARK  status: ('A' for Active; 'I' for Inactive)
REMARK    1  A    between atoms: C_2  and  O_4
REMARK    2  A    between atoms: O_4  and  C_5
REMARK                            x       y       z     vdW  Elec       q    Type
REMARK                         _______ _______ _______ _____ _____    ______ ____
ROOT
ATOM      1  C   UNL     1     -11.625  14.443  70.584  0.00  0.00    +0.197 C 
ATOM      2  C   UNL     1     -11.080  15.003  69.157  0.00  0.00    +0.032 A 
ATOM      3  C   UNL     1     -11.524  14.857  67.917  0.00  0.00    +0.059 A 
ATOM      4  C   UNL     1     -10.894  15.665  66.967  0.00  0.00    +0.015 A 
ATOM      5  C   UNL     1      -9.911  16.583  67.335  0.00  0.00    +0.001 A 
ATOM      6  C   UNL     1      -9.630  16.803  68.678  0.00  0.00    -0.000 A 
ATOM      7  N   UNL     1     -11.568  13.535  67.346  0.00  0.00    -0.220 N 
ATOM      8  C   UNL     1     -11.799  13.431  65.948  0.00  0.00    +0.350 C 
ATOM      9  O   UNL     1     -11.103  12.637  65.299  0.00  0.00    -0.248 OA
ATOM     10  N   UNL     1     -13.026  14.000  65.479  0.00  0.00    -0.069 NA
ATOM     11  C   UNL     1     -11.669  12.255  67.988  0.00  0.00    +0.056 A 
ATOM     12  C   UNL     1     -11.666  12.240  69.387  0.00  0.00    -0.004 A 
ATOM     13  C   UNL     1     -11.473  11.063  70.035  0.00  0.00    -0.003 A 
ATOM     14  C   UNL     1     -10.827  10.067  69.309  0.00  0.00    -0.000 A 
ATOM     15  C   UNL     1     -10.909  10.066  67.919  0.00  0.00    +0.001 A 
ATOM     16  C   UNL     1     -11.347  11.184  67.215  0.00  0.00    +0.015 A 
ATOM     17  C   UNL     1     -10.499  16.197  69.577  0.00  0.00    +0.000 A 
ATOM     18  C   UNL     1     -12.609  13.215  70.023  0.00  0.00    +0.076 C 
ENDROOT
BRANCH   1  19
ATOM     19  O   UNL     1     -12.819  15.464  70.571  0.00  0.00    -0.447 OA
BRANCH  19  21
ATOM     20  C   UNL     1     -12.784  15.349  72.806  0.00  0.00    +0.121 C 
ATOM     21  C   UNL     1     -13.329  15.720  71.848  0.00  0.00    +0.318 C 
ATOM     22  O   UNL     1     -14.596  15.677  71.896  0.00  0.00    -0.250 OA
ENDBRANCH  19  21
ENDBRANCH   1  19
TORSDOF 2
ENDMDL
MODEL 2
REMARK VINA RESULT:      -6.9      2.099      4.362
REMARK  Name = 
REMARK  2 active torsions:
REMARK  status: ('A' for Active; 'I' for Inactive)
REMARK    1  A    between atoms: C_2  and  O_4
REMARK    2  A    between atoms: O_4  and  C_5
REMARK                            x       y       z     vdW  Elec       q    Type
REMARK                         _______ _______ _______ _____ _____    ______ ____
ROOT
ATOM      1  C   UNL     1     -11.052  16.308  67.984  0.00  0.00    +0.197 C 
ATOM      2  C   UNL     1     -11.626  15.150  68.972  0.00  0.00    +0.032 A 
ATOM      3  C   UNL     1     -11.274  13.886  69.158  0.00  0.00    +0.059 A 
ATOM      4  C   UNL     1     -11.880  13.260  70.250  0.00  0.00    +0.015 A 
ATOM      5  C   UNL     1     -12.746  13.955  71.094  0.00  0.00    +0.001 A 
ATOM      6  C   UNL     1     -12.922  15.325  70.937  0.00  0.00    -0.000 A 
ATOM      7  N   UNL     1     -11.391  12.963  68.058  0.00  0.00    -0.220 N 
ATOM      8  C   UNL     1     -11.256  11.578  68.345  0.00  0.00    +0.350 C 
ATOM      9  O   UNL     1     -12.062  10.793  67.827  0.00  0.00    -0.248 OA
ATOM     10  N   UNL     1     -10.010  11.186  68.933  0.00  0.00    -0.069 NA
ATOM     11  C   UNL     1     -11.375  13.205  66.643  0.00  0.00    +0.056 A 
ATOM     12  C   UNL     1     -11.295  14.538  66.225  0.00  0.00    -0.004 A 
ATOM     13  C   UNL     1     -11.560  14.841  64.928  0.00  0.00    -0.003 A 
ATOM     14  C   UNL     1     -12.341  13.920  64.236  0.00  0.00    -0.000 A 
ATOM     15  C   UNL     1     -12.343  12.586  64.631  0.00  0.00    +0.001 A 
ATOM     16  C   UNL     1     -11.844  12.191  65.869  0.00  0.00    +0.015 A 
ATOM     17  C   UNL     1     -12.063  15.937  70.033  0.00  0.00    +0.000 A 
ATOM     18  C   UNL     1     -10.226  15.341  66.901  0.00  0.00    +0.076 C 
ENDROOT
BRANCH   1  19
ATOM     19  O   UNL     1      -9.768  16.483  68.873  0.00  0.00    -0.447 OA
BRANCH  19  21
ATOM     20  C   UNL     1      -9.804  18.665  68.380  0.00  0.00    +0.121 C 
ATOM     21  C   UNL     1      -9.190  17.750  68.750  0.00  0.00    +0.318 C 
ATOM     22  O   UNL     1      -7.986  17.711  68.352  0.00  0.00    -0.250 OA
ENDBRANCH  19  21
ENDBRANCH   1  19
TORSDOF 2
ENDMDL
MODEL 3
REMARK VINA RESULT:      -6.9      1.995      5.114
REMARK  Name = 
REMARK  2 active torsions:
REMARK  status: ('A' for Active; 'I' for Inactive)
REMARK    1  A    between atoms: C_2  and  O_4
REMARK    2  A    between atoms: O_4  and  C_5
REMARK                            x       y       z     vdW  Elec       q    Type
REMARK                         _______ _______ _______ _____ _____    ______ ____
ROOT
ATOM      1  C   UNL     1     -11.597  11.834  67.602  0.00  0.00    +0.197 C 
ATOM      2  C   UNL     1     -11.617  13.164  66.665  0.00  0.00    +0.032 A 
ATOM      3  C   UNL     1     -10.921  14.290  66.705  0.00  0.00    +0.059 A 
ATOM      4  C   UNL     1     -11.085  15.124  65.597  0.00  0.00    +0.015 A 
ATOM      5  C   UNL     1     -11.888  14.749  64.520  0.00  0.00    +0.001 A 
ATOM      6  C   UNL     1     -12.440  13.474  64.474  0.00  0.00    -0.000 A 
ATOM      7  N   UNL     1     -11.041  15.140  67.862  0.00  0.00    -0.220 N 
ATOM      8  C   UNL     1     -10.495  16.449  67.775  0.00  0.00    +0.350 C 
ATOM      9  O   UNL     1     -11.168  17.393  68.212  0.00  0.00    -0.248 OA
ATOM     10  N   UNL     1      -9.091  16.517  67.499  0.00  0.00    -0.069 NA
ATOM     11  C   UNL     1     -11.406  14.817  69.212  0.00  0.00    +0.056 A 
ATOM     12  C   UNL     1     -11.766  13.491  69.476  0.00  0.00    -0.004 A 
ATOM     13  C   UNL     1     -12.384  13.194  70.648  0.00  0.00    -0.003 A 
ATOM     14  C   UNL     1     -13.038  14.250  71.275  0.00  0.00    -0.000 A 
ATOM     15  C   UNL     1     -12.609  15.555  71.050  0.00  0.00    +0.001 A 
ATOM     16  C   UNL     1     -11.761  15.872  69.993  0.00  0.00    +0.015 A 
ATOM     17  C   UNL     1     -11.993  12.594  65.451  0.00  0.00    +0.000 A 
ATOM     18  C   UNL     1     -10.815  12.467  68.936  0.00  0.00    +0.076 C 
ENDROOT
BRANCH   1  19
ATOM     19  O   UNL     1     -10.235  11.366  66.972  0.00  0.00    -0.447 OA
BRANCH  19  21
ATOM     20  C   UNL     1      -9.887   9.469  65.837  0.00  0.00    +0.121 C 
ATOM     21  C   UNL     1     -10.140   9.976  66.853  0.00  0.00    +0.318 C 
ATOM     22  O   UNL     1     -10.982   9.356  67.571  0.00  0.00    -0.250 OA
ENDBRANCH  19  21
ENDBRANCH   1  19
TORSDOF 2
ENDMDL
MODEL 4
REMARK VINA RESULT:      -6.9      1.145      1.294
REMARK  Name = 
REMARK  2 active torsions:
REMARK  status: ('A' for Active; 'I' for Inactive)
REMARK    1  A    between atoms: C_2  and  O_4
REMARK    2  A    between atoms: O_4  and  C_5
REMARK                            x       y       z     vdW  Elec       q    Type
REMARK                         _______ _______ _______ _____ _____    ______ ____
ROOT
ATOM      1  C   UNL     1     -10.908  14.574  69.533  0.00  0.00    +0.197 C 
ATOM      2  C   UNL     1     -10.397  15.200  68.121  0.00  0.00    +0.032 A 
ATOM      3  C   UNL     1     -10.898  15.152  66.895  0.00  0.00    +0.059 A 
ATOM      4  C   UNL     1     -10.271  15.990  65.970  0.00  0.00    +0.015 A 
ATOM      5  C   UNL     1      -9.233  16.841  66.350  0.00  0.00    +0.001 A 
ATOM      6  C   UNL     1      -8.888  16.963  67.690  0.00  0.00    -0.000 A 
ATOM      7  N   UNL     1     -11.026  13.872  66.246  0.00  0.00    -0.220 N 
ATOM      8  C   UNL     1     -11.318  13.866  64.856  0.00  0.00    +0.350 C 
ATOM      9  O   UNL     1     -10.687  13.086  64.129  0.00  0.00    -0.248 OA
ATOM     10  N   UNL     1     -12.537  14.517  64.477  0.00  0.00    -0.069 NA
ATOM     11  C   UNL     1     -11.158  12.559  66.811  0.00  0.00    +0.056 A 
ATOM     12  C   UNL     1     -11.098  12.456  68.205  0.00  0.00    -0.004 A 
ATOM     13  C   UNL     1     -10.932  11.232  68.771  0.00  0.00    -0.003 A 
ATOM     14  C   UNL     1     -10.363  10.258  67.957  0.00  0.00    -0.000 A 
ATOM     15  C   UNL     1     -10.503  10.348  66.575  0.00  0.00    +0.001 A 
ATOM     16  C   UNL     1     -10.917  11.527  65.960  0.00  0.00    +0.015 A 
ATOM     17  C   UNL     1      -9.746  16.338  68.587  0.00  0.00    +0.000 A 
ATOM     18  C   UNL     1     -11.969  13.427  68.941  0.00  0.00    +0.076 C 
ENDROOT
BRANCH   1  19
ATOM     19  O   UNL     1     -12.054  15.644  69.636  0.00  0.00    -0.447 OA
BRANCH  19  21
ATOM     20  C   UNL     1     -11.769  15.654  71.855  0.00  0.00    +0.121 C 
ATOM     21  C   UNL     1     -12.467  15.874  70.952  0.00  0.00    +0.318 C 
ATOM     22  O   UNL     1     -13.694  15.611  71.141  0.00  0.00    -0.250 OA
ENDBRANCH  19  21
ENDBRANCH   1  19
TORSDOF 2
ENDMDL
MODEL 5
REMARK VINA RESULT:      -6.8      1.898      5.170
REMARK  Name = 
REMARK  2 active torsions:
REMARK  status: ('A' for Active; 'I' for Inactive)
REMARK    1  A    between atoms: C_2  and  O_4
REMARK    2  A    between atoms: O_4  and  C_5
REMARK                            x       y       z     vdW  Elec       q    Type
REMARK                         _______ _______ _______ _____ _____    ______ ____
ROOT
ATOM      1  C   UNL     1     -11.219  10.849  67.791  0.00  0.00    +0.197 C 
ATOM      2  C   UNL     1     -11.647  12.330  67.271  0.00  0.00    +0.032 A 
ATOM      3  C   UNL     1     -11.337  13.546  67.697  0.00  0.00    +0.059 A 
ATOM      4  C   UNL     1     -11.746  14.586  66.860  0.00  0.00    +0.015 A 
ATOM      5  C   UNL     1     -12.385  14.331  65.647  0.00  0.00    +0.001 A 
ATOM      6  C   UNL     1     -12.512  13.025  65.188  0.00  0.00    -0.000 A 
ATOM      7  N   UNL     1     -11.723  13.935  69.029  0.00  0.00    -0.220 N 
ATOM      8  C   UNL     1     -11.611  15.310  69.371  0.00  0.00    +0.350 C 
ATOM      9  O   UNL     1     -12.547  15.836  69.988  0.00  0.00    -0.248 OA
ATOM     10  N   UNL     1     -10.296  15.869  69.265  0.00  0.00    -0.069 NA
ATOM     11  C   UNL     1     -11.977  13.130  70.190  0.00  0.00    +0.056 A 
ATOM     12  C   UNL     1     -11.908  11.741  70.031  0.00  0.00    -0.004 A 
ATOM     13  C   UNL     1     -12.410  10.938  71.004  0.00  0.00    -0.003 A 
ATOM     14  C   UNL     1     -13.364  11.515  71.836  0.00  0.00    -0.000 A 
ATOM     15  C   UNL     1     -13.362  12.893  72.034  0.00  0.00    +0.001 A 
ATOM     16  C   UNL     1     -12.648  13.748  71.198  0.00  0.00    +0.015 A 
ATOM     17  C   UNL     1     -11.819  12.066  65.915  0.00  0.00    +0.000 A 
ATOM     18  C   UNL     1     -10.682  11.255  69.320  0.00  0.00    +0.076 C 
ENDROOT
BRANCH   1  19
ATOM     19  O   UNL     1      -9.776  11.016  67.193  0.00  0.00    -0.447 OA
BRANCH  19  21
ATOM     20  C   UNL     1      -9.849   8.843  66.662  0.00  0.00    +0.121 C 
ATOM     21  C   UNL     1      -9.203   9.800  66.807  0.00  0.00    +0.318 C 
ATOM     22  O   UNL     1      -8.057   9.606  67.314  0.00  0.00    -0.250 OA
ENDBRANCH  19  21
ENDBRANCH   1  19
TORSDOF 2
ENDMDL
MODEL 6
REMARK VINA RESULT:      -6.5      2.568      3.824
REMARK  Name = 
REMARK  2 active torsions:
REMARK  status: ('A' for Active; 'I' for Inactive)
REMARK    1  A    between atoms: C_2  and  O_4
REMARK    2  A    between atoms: O_4  and  C_5
REMARK                            x       y       z     vdW  Elec       q    Type
REMARK                         _______ _______ _______ _____ _____    ______ ____
ROOT
ATOM      1  C   UNL     1     -10.713  10.975  68.746  0.00  0.00    +0.197 C 
ATOM      2  C   UNL     1     -11.060  12.324  67.905  0.00  0.00    +0.032 A 
ATOM      3  C   UNL     1     -11.748  12.524  66.791  0.00  0.00    +0.059 A 
ATOM      4  C   UNL     1     -11.997  13.864  66.484  0.00  0.00    +0.015 A 
ATOM      5  C   UNL     1     -11.585  14.889  67.334  0.00  0.00    +0.001 A 
ATOM      6  C   UNL     1     -11.029  14.588  68.572  0.00  0.00    -0.000 A 
ATOM      7  N   UNL     1     -11.283  11.918  65.569  0.00  0.00    -0.220 N 
ATOM      8  C   UNL     1     -11.879  12.349  64.353  0.00  0.00    +0.350 C 
ATOM      9  O   UNL     1     -11.137  12.575  63.387  0.00  0.00    -0.248 OA
ATOM     10  N   UNL     1     -13.296  12.163  64.258  0.00  0.00    -0.069 NA
ATOM     11  C   UNL     1     -10.475  10.749  65.367  0.00  0.00    +0.056 A 
ATOM     12  C   UNL     1      -9.995  10.100  66.509  0.00  0.00    -0.004 A 
ATOM     13  C   UNL     1      -9.009   9.175  66.379  0.00  0.00    -0.003 A 
ATOM     14  C   UNL     1      -8.227   9.277  65.233  0.00  0.00    -0.000 A 
ATOM     15  C   UNL     1      -8.758   9.862  64.088  0.00  0.00    +0.001 A 
ATOM     16  C   UNL     1      -9.922  10.623  64.131  0.00  0.00    +0.015 A 
ATOM     17  C   UNL     1     -11.089  13.251  68.943  0.00  0.00    +0.000 A 
ATOM     18  C   UNL     1     -11.029   9.840  67.561  0.00  0.00    +0.076 C 
ENDROOT
BRANCH   1  19
ATOM     19  O   UNL     1     -12.187  10.887  69.284  0.00  0.00    -0.447 OA
BRANCH  19  21
ATOM     20  C   UNL     1     -12.904  10.949  71.403  0.00  0.00    +0.121 C 
ATOM     21  C   UNL     1     -12.259  10.413  70.598  0.00  0.00    +0.318 C 
ATOM     22  O   UNL     1     -11.160   9.936  71.016  0.00  0.00    -0.250 OA
ENDBRANCH  19  21
ENDBRANCH   1  19
TORSDOF 2
ENDMDL
MODEL 7
REMARK VINA RESULT:      -6.5      2.091      4.312
REMARK  Name = 
REMARK  2 active torsions:
REMARK  status: ('A' for Active; 'I' for Inactive)
REMARK    1  A    between atoms: C_2  and  O_4
REMARK    2  A    between atoms: O_4  and  C_5
REMARK                            x       y       z     vdW  Elec       q    Type
REMARK                         _______ _______ _______ _____ _____    ______ ____
ROOT
ATOM      1  C   UNL     1     -12.011  13.746  68.502  0.00  0.00    +0.197 C 
ATOM      2  C   UNL     1     -11.491  12.254  68.891  0.00  0.00    +0.032 A 
ATOM      3  C   UNL     1     -10.400  11.579  68.560  0.00  0.00    +0.059 A 
ATOM      4  C   UNL     1     -10.210  10.386  69.261  0.00  0.00    +0.015 A 
ATOM      5  C   UNL     1     -11.092   9.988  70.265  0.00  0.00    +0.001 A 
ATOM      6  C   UNL     1     -12.110  10.839  70.676  0.00  0.00    -0.000 A 
ATOM      7  N   UNL     1     -10.172  11.263  67.173  0.00  0.00    -0.220 N 
ATOM      8  C   UNL     1      -9.145  10.329  66.871  0.00  0.00    +0.350 C 
ATOM      9  O   UNL     1      -9.384   9.451  66.030  0.00  0.00    -0.248 OA
ATOM     10  N   UNL     1      -7.832  10.688  67.315  0.00  0.00    -0.069 NA
ATOM     11  C   UNL     1     -10.642  11.922  65.986  0.00  0.00    +0.056 A 
ATOM     12  C   UNL     1     -11.506  13.009  66.160  0.00  0.00    -0.004 A 
ATOM     13  C   UNL     1     -12.197  13.481  65.090  0.00  0.00    -0.003 A 
ATOM     14  C   UNL     1     -12.372  12.589  64.037  0.00  0.00    -0.000 A 
ATOM     15  C   UNL     1     -11.454  11.561  63.846  0.00  0.00    +0.001 A 
ATOM     16  C   UNL     1     -10.546  11.201  64.838  0.00  0.00    +0.015 A 
ATOM     17  C   UNL     1     -12.059  12.127  70.156  0.00  0.00    +0.000 A 
ATOM     18  C   UNL     1     -11.046  14.019  67.166  0.00  0.00    +0.076 C 
ENDROOT
BRANCH   1  19
ATOM     19  O   UNL     1     -10.950  14.405  69.456  0.00  0.00    -0.447 OA
BRANCH  19  21
ATOM     20  C   UNL     1     -11.670  15.750  71.093  0.00  0.00    +0.121 C 
ATOM     21  C   UNL     1     -11.373  15.633  69.974  0.00  0.00    +0.318 C 
ATOM     22  O   UNL     1     -12.072  16.304  69.156  0.00  0.00    -0.250 OA
ENDBRANCH  19  21
ENDBRANCH   1  19
TORSDOF 2
ENDMDL
MODEL 8
REMARK VINA RESULT:      -6.5      2.409      4.247
REMARK  Name = 
REMARK  2 active torsions:
REMARK  status: ('A' for Active; 'I' for Inactive)
REMARK    1  A    between atoms: C_2  and  O_4
REMARK    2  A    between atoms: O_4  and  C_5
REMARK                            x       y       z     vdW  Elec       q    Type
REMARK                         _______ _______ _______ _____ _____    ______ ____
ROOT
ATOM      1  C   UNL     1     -10.456  16.427  69.151  0.00  0.00    +0.197 C 
ATOM      2  C   UNL     1      -9.747  14.983  68.906  0.00  0.00    +0.032 A 
ATOM      3  C   UNL     1     -10.221  13.820  68.485  0.00  0.00    +0.059 A 
ATOM      4  C   UNL     1      -9.251  12.853  68.211  0.00  0.00    +0.015 A 
ATOM      5  C   UNL     1      -7.891  13.137  68.332  0.00  0.00    +0.001 A 
ATOM      6  C   UNL     1      -7.471  14.433  68.605  0.00  0.00    -0.000 A 
ATOM      7  N   UNL     1     -11.232  13.156  69.268  0.00  0.00    -0.220 N 
ATOM      8  C   UNL     1     -11.536  11.808  68.940  0.00  0.00    +0.350 C 
ATOM      9  O   UNL     1     -11.658  10.995  69.868  0.00  0.00    -0.248 OA
ATOM     10  N   UNL     1     -12.000  11.585  67.604  0.00  0.00    -0.069 NA
ATOM     11  C   UNL     1     -12.191  13.698  70.188  0.00  0.00    +0.056 A 
ATOM     12  C   UNL     1     -12.129  15.073  70.438  0.00  0.00    -0.004 A 
ATOM     13  C   UNL     1     -12.811  15.585  71.495  0.00  0.00    -0.003 A 
ATOM     14  C   UNL     1     -13.116  14.687  72.513  0.00  0.00    -0.000 A 
ATOM     15  C   UNL     1     -13.243  13.332  72.221  0.00  0.00    +0.001 A 
ATOM     16  C   UNL     1     -12.777  12.799  71.023  0.00  0.00    +0.015 A 
ATOM     17  C   UNL     1      -8.465  15.403  68.564  0.00  0.00    +0.000 A 
ATOM     18  C   UNL     1     -12.050  15.928  69.209  0.00  0.00    +0.076 C 
ENDROOT
BRANCH   1  19
ATOM     19  O   UNL     1     -10.549  16.685  67.604  0.00  0.00    -0.447 OA
BRANCH  19  21
ATOM     20  C   UNL     1      -9.748  18.411  66.425  0.00  0.00    +0.121 C 
ATOM     21  C   UNL     1     -10.455  18.040  67.272  0.00  0.00    +0.318 C 
ATOM     22  O   UNL     1     -10.539  18.806  68.280  0.00  0.00    -0.250 OA
ENDBRANCH  19  21
ENDBRANCH   1  19
TORSDOF 2
ENDMDL
MODEL 9
REMARK VINA RESULT:      -6.2      2.832      5.477
REMARK  Name = 
REMARK  2 active torsions:
REMARK  status: ('A' for Active; 'I' for Inactive)
REMARK    1  A    between atoms: C_2  and  O_4
REMARK    2  A    between atoms: O_4  and  C_5
REMARK                            x       y       z     vdW  Elec       q    Type
REMARK                         _______ _______ _______ _____ _____    ______ ____
ROOT
ATOM      1  C   UNL     1     -11.464  16.084  68.671  0.00  0.00    +0.197 C 
ATOM      2  C   UNL     1     -10.389  15.136  67.901  0.00  0.00    +0.032 A 
ATOM      3  C   UNL     1      -9.065  15.086  67.933  0.00  0.00    +0.059 A 
ATOM      4  C   UNL     1      -8.501  13.991  67.276  0.00  0.00    +0.015 A 
ATOM      5  C   UNL     1      -9.299  13.012  66.683  0.00  0.00    +0.001 A 
ATOM      6  C   UNL     1     -10.678  13.043  66.849  0.00  0.00    -0.000 A 
ATOM      7  N   UNL     1      -8.315  16.237  67.500  0.00  0.00    -0.220 N 
ATOM      8  C   UNL     1      -6.918  16.074  67.301  0.00  0.00    +0.350 C 
ATOM      9  O   UNL     1      -6.411  16.568  66.283  0.00  0.00    -0.248 OA
ATOM     10  N   UNL     1      -6.174  15.647  68.448  0.00  0.00    -0.069 NA
ATOM     11  C   UNL     1      -8.687  17.623  67.467  0.00  0.00    +0.056 A 
ATOM     12  C   UNL     1      -9.995  17.942  67.850  0.00  0.00    -0.004 A 
ATOM     13  C   UNL     1     -10.483  19.178  67.569  0.00  0.00    -0.003 A 
ATOM     14  C   UNL     1      -9.857  19.858  66.529  0.00  0.00    -0.000 A 
ATOM     15  C   UNL     1      -8.531  19.570  66.218  0.00  0.00    +0.001 A 
ATOM     16  C   UNL     1      -7.903  18.423  66.696  0.00  0.00    +0.015 A 
ATOM     17  C   UNL     1     -11.149  13.979  67.762  0.00  0.00    +0.000 A 
ATOM     18  C   UNL     1     -10.438  17.317  69.137  0.00  0.00    +0.076 C 
ENDROOT
BRANCH   1  19
ATOM     19  O   UNL     1     -11.227  15.318  70.022  0.00  0.00    -0.447 OA
BRANCH  19  21
ATOM     20  C   UNL     1     -11.792  15.530  72.177  0.00  0.00    +0.121 C 
ATOM     21  C   UNL     1     -12.014  15.807  71.070  0.00  0.00    +0.318 C 
ATOM     22  O   UNL     1     -13.244  15.893  70.770  0.00  0.00    -0.250 OA
ENDBRANCH  19  21
ENDBRANCH   1  19
TORSDOF 2
ENDMDL
