MODEL 1
REMARK VINA RESULT:      -7.1      0.000      0.000
REMARK  Name = 
REMARK  3 active torsions:
REMARK  status: ('A' for Active; 'I' for Inactive)
REMARK    1  A    between atoms: N_10  and  N_11
REMARK    2  A    between atoms: C_12  and  C_14
REMARK    3  A    between atoms: C_19  and  S_20
REMARK                            x       y       z     vdW  Elec       q    Type
REMARK                         _______ _______ _______ _____ _____    ______ ____
ROOT
ATOM      1  N   UNL     1     -10.851   9.979  70.736  0.00  0.00    -0.106 NA
ATOM      2  C   UNL     1     -11.071  10.719  69.532  0.00  0.00    +0.283 C 
ATOM      3  O   UNL     1     -11.005  10.065  68.468  0.00  0.00    -0.267 OA
ENDROOT
BRANCH   1   6
ATOM      4  C   UNL     1     -13.295   8.925  71.919  0.00  0.00    +0.024 C 
ATOM      5  C   UNL     1     -11.842   8.193  72.293  0.00  0.00    +0.099 C 
ATOM      6  N   UNL     1     -11.210   8.639  70.892  0.00  0.00    -0.219 N 
ATOM      7  C   UNL     1     -10.376   7.508  70.609  0.00  0.00    +0.063 A 
ATOM      8  C   UNL     1     -11.105   6.381  70.914  0.00  0.00    -0.006 A 
ATOM      9  C   UNL     1     -10.630   5.118  70.585  0.00  0.00    -0.003 A 
ATOM     10  C   UNL     1      -9.272   4.986  70.331  0.00  0.00    -0.000 A 
ATOM     11  C   UNL     1      -8.457   6.096  70.144  0.00  0.00    +0.001 A 
ATOM     12  C   UNL     1      -9.074   7.341  70.153  0.00  0.00    +0.016 A 
ATOM     13  C   UNL     1     -12.352   6.746  71.632  0.00  0.00    +0.049 C 
ENDBRANCH   1   6
BRANCH   2  14
ATOM     14  C   UNL     1     -11.704  12.030  69.500  0.00  0.00    +0.058 A 
ATOM     15  C   UNL     1     -12.401  12.519  70.595  0.00  0.00    +0.025 A 
ATOM     16  C   UNL     1     -12.542  13.865  70.808  0.00  0.00    +0.136 A 
ATOM     17  C   UNL     1     -11.940  14.777  69.949  0.00  0.00    +0.076 A 
ATOM     18 CL   UNL     1     -11.477  16.358  70.531  0.00  0.00    -0.081 Cl
ATOM     19  C   UNL     1     -11.625  14.315  68.683  0.00  0.00    +0.013 A 
ATOM     20  C   UNL     1     -11.383  12.974  68.531  0.00  0.00    +0.006 A 
BRANCH  16  21
ATOM     21  S   UNL     1     -13.460  14.472  72.158  0.00  0.00    +0.094 S 
ATOM     22  O   UNL     1     -14.321  15.630  71.777  0.00  0.00    -0.150 OA
ATOM     23  O   UNL     1     -14.356  13.352  72.634  0.00  0.00    -0.150 OA
ATOM     24  N   UNL     1     -12.383  14.945  73.437  0.00  0.00    +0.039 NA
ENDBRANCH  16  21
ENDBRANCH   2  14
TORSDOF 3
ENDMDL
MODEL 2
REMARK VINA RESULT:      -7.1      6.778     10.589
REMARK  Name = 
REMARK  3 active torsions:
REMARK  status: ('A' for Active; 'I' for Inactive)
REMARK    1  A    between atoms: N_10  and  N_11
REMARK    2  A    between atoms: C_12  and  C_14
REMARK    3  A    between atoms: C_19  and  S_20
REMARK                            x       y       z     vdW  Elec       q    Type
REMARK                         _______ _______ _______ _____ _____    ______ ____
ROOT
ATOM      1  N   UNL     1      -8.498  17.153  65.841  0.00  0.00    -0.106 NA
ATOM      2  C   UNL     1      -8.142  15.906  66.441  0.00  0.00    +0.283 C 
ATOM      3  O   UNL     1      -7.148  15.928  67.202  0.00  0.00    -0.267 OA
ENDROOT
BRANCH   1   6
ATOM      4  C   UNL     1     -10.460  18.700  67.339  0.00  0.00    +0.024 C 
ATOM      5  C   UNL     1      -9.448  19.500  66.279  0.00  0.00    +0.099 C 
ATOM      6  N   UNL     1      -8.310  18.389  66.464  0.00  0.00    -0.219 N 
ATOM      7  C   UNL     1      -7.134  19.203  66.377  0.00  0.00    +0.063 A 
ATOM      8  C   UNL     1      -7.369  20.336  67.119  0.00  0.00    -0.006 A 
ATOM      9  C   UNL     1      -6.349  21.245  67.372  0.00  0.00    -0.003 A 
ATOM     10  C   UNL     1      -5.235  21.209  66.545  0.00  0.00    -0.000 A 
ATOM     11  C   UNL     1      -5.011  20.149  65.675  0.00  0.00    +0.001 A 
ATOM     12  C   UNL     1      -5.914  19.093  65.719  0.00  0.00    +0.016 A 
ATOM     13  C   UNL     1      -8.797  20.410  67.520  0.00  0.00    +0.049 C 
ENDBRANCH   1   6
BRANCH   2  14
ATOM     14  C   UNL     1      -9.042  14.764  66.514  0.00  0.00    +0.058 A 
ATOM     15  C   UNL     1     -10.125  14.646  65.655  0.00  0.00    +0.025 A 
ATOM     16  C   UNL     1     -10.650  13.422  65.333  0.00  0.00    +0.136 A 
ATOM     17  C   UNL     1     -10.070  12.259  65.827  0.00  0.00    +0.076 A 
ATOM     18 CL   UNL     1     -10.201  10.764  64.934  0.00  0.00    -0.081 Cl
ATOM     19  C   UNL     1      -9.298  12.393  66.968  0.00  0.00    +0.013 A 
ATOM     20  C   UNL     1      -8.699  13.604  67.199  0.00  0.00    +0.006 A 
BRANCH  16  21
ATOM     21  S   UNL     1     -12.039  13.283  64.292  0.00  0.00    +0.094 S 
ATOM     22  O   UNL     1     -11.718  12.571  63.020  0.00  0.00    -0.150 OA
ATOM     23  O   UNL     1     -13.082  12.480  65.035  0.00  0.00    -0.150 OA
ATOM     24  N   UNL     1     -12.664  14.864  63.931  0.00  0.00    +0.039 NA
ENDBRANCH  16  21
ENDBRANCH   2  14
TORSDOF 3
ENDMDL
MODEL 3
REMARK VINA RESULT:      -7.1      5.666      7.744
REMARK  Name = 
REMARK  3 active torsions:
REMARK  status: ('A' for Active; 'I' for Inactive)
REMARK    1  A    between atoms: N_10  and  N_11
REMARK    2  A    between atoms: C_12  and  C_14
REMARK    3  A    between atoms: C_19  and  S_20
REMARK                            x       y       z     vdW  Elec       q    Type
REMARK                         _______ _______ _______ _____ _____    ______ ____
ROOT
ATOM      1  N   UNL     1     -11.436  16.064  68.116  0.00  0.00    -0.106 NA
ATOM      2  C   UNL     1     -10.332  16.779  68.675  0.00  0.00    +0.283 C 
ATOM      3  O   UNL     1      -9.600  16.132  69.456  0.00  0.00    -0.267 OA
ENDROOT
BRANCH   1   6
ATOM      4  C   UNL     1     -11.077  14.799  65.516  0.00  0.00    +0.024 C 
ATOM      5  C   UNL     1     -12.223  14.179  66.559  0.00  0.00    +0.099 C 
ATOM      6  N   UNL     1     -11.405  14.698  67.832  0.00  0.00    -0.219 N 
ATOM      7  C   UNL     1     -11.672  13.641  68.763  0.00  0.00    +0.063 A 
ATOM      8  C   UNL     1     -11.550  12.455  68.077  0.00  0.00    -0.006 A 
ATOM      9  C   UNL     1     -11.582  11.239  68.748  0.00  0.00    -0.003 A 
ATOM     10  C   UNL     1     -12.138  11.219  70.019  0.00  0.00    -0.000 A 
ATOM     11  C   UNL     1     -12.407  12.393  70.712  0.00  0.00    +0.001 A 
ATOM     12  C   UNL     1     -12.030  13.586  70.105  0.00  0.00    +0.016 A 
ATOM     13  C   UNL     1     -11.434  12.707  66.618  0.00  0.00    +0.049 C 
ENDBRANCH   1   6
BRANCH   2  14
ATOM     14  C   UNL     1      -9.823  18.027  68.125  0.00  0.00    +0.058 A 
ATOM     15  C   UNL     1      -8.606  18.551  68.537  0.00  0.00    +0.025 A 
ATOM     16  C   UNL     1      -7.871  19.372  67.723  0.00  0.00    +0.136 A 
ATOM     17  C   UNL     1      -8.309  19.659  66.436  0.00  0.00    +0.076 A 
ATOM     18 CL   UNL     1      -7.158  20.046  65.180  0.00  0.00    -0.081 Cl
ATOM     19  C   UNL     1      -9.662  19.492  66.195  0.00  0.00    +0.013 A 
ATOM     20  C   UNL     1     -10.342  18.580  66.960  0.00  0.00    +0.006 A 
BRANCH  16  21
ATOM     21  S   UNL     1      -6.368  20.065  68.264  0.00  0.00    +0.094 S 
ATOM     22  O   UNL     1      -5.184  19.323  67.737  0.00  0.00    -0.150 OA
ATOM     23  O   UNL     1      -6.309  21.482  67.741  0.00  0.00    -0.150 OA
ATOM     24  N   UNL     1      -6.317  20.079  70.001  0.00  0.00    +0.039 NA
ENDBRANCH  16  21
ENDBRANCH   2  14
TORSDOF 3
ENDMDL
MODEL 4
REMARK VINA RESULT:      -7.0      5.686      9.746
REMARK  Name = 
REMARK  3 active torsions:
REMARK  status: ('A' for Active; 'I' for Inactive)
REMARK    1  A    between atoms: N_10  and  N_11
REMARK    2  A    between atoms: C_12  and  C_14
REMARK    3  A    between atoms: C_19  and  S_20
REMARK                            x       y       z     vdW  Elec       q    Type
REMARK                         _______ _______ _______ _____ _____    ______ ____
ROOT
ATOM      1  N   UNL     1      -9.053  16.538  68.311  0.00  0.00    -0.106 NA
ATOM      2  C   UNL     1     -10.341  16.207  68.836  0.00  0.00    +0.283 C 
ATOM      3  O   UNL     1     -10.919  17.112  69.478  0.00  0.00    -0.267 OA
ENDROOT
BRANCH   1   6
ATOM      4  C   UNL     1     -10.291  18.113  66.196  0.00  0.00    +0.024 C 
ATOM      5  C   UNL     1      -8.626  18.097  66.314  0.00  0.00    +0.099 C 
ATOM      6  N   UNL     1      -8.700  17.821  67.889  0.00  0.00    -0.219 N 
ATOM      7  C   UNL     1      -7.564  18.570  68.339  0.00  0.00    +0.063 A 
ATOM      8  C   UNL     1      -7.576  19.770  67.666  0.00  0.00    -0.006 A 
ATOM      9  C   UNL     1      -6.696  20.787  68.011  0.00  0.00    -0.003 A 
ATOM     10  C   UNL     1      -5.564  20.441  68.737  0.00  0.00    -0.000 A 
ATOM     11  C   UNL     1      -5.437  19.192  69.332  0.00  0.00    +0.001 A 
ATOM     12  C   UNL     1      -6.522  18.329  69.227  0.00  0.00    +0.016 A 
ATOM     13  C   UNL     1      -8.587  19.746  66.578  0.00  0.00    +0.049 C 
ENDBRANCH   1   6
BRANCH   2  14
ATOM     14  C   UNL     1     -11.131  15.076  68.371  0.00  0.00    +0.058 A 
ATOM     15  C   UNL     1     -11.392  14.888  67.022  0.00  0.00    +0.025 A 
ATOM     16  C   UNL     1     -11.646  13.641  66.512  0.00  0.00    +0.136 A 
ATOM     17  C   UNL     1     -11.596  12.523  67.336  0.00  0.00    +0.076 A 
ATOM     18 CL   UNL     1     -11.193  10.959  66.672  0.00  0.00    -0.081 Cl
ATOM     19  C   UNL     1     -11.752  12.751  68.692  0.00  0.00    +0.013 A 
ATOM     20  C   UNL     1     -11.384  13.977  69.184  0.00  0.00    +0.006 A 
BRANCH  16  21
ATOM     21  S   UNL     1     -12.020  13.418  64.826  0.00  0.00    +0.094 S 
ATOM     22  O   UNL     1     -10.869  12.848  64.065  0.00  0.00    -0.150 OA
ATOM     23  O   UNL     1     -13.171  12.441  64.745  0.00  0.00    -0.150 OA
ATOM     24  N   UNL     1     -12.489  14.935  64.121  0.00  0.00    +0.039 NA
ENDBRANCH  16  21
ENDBRANCH   2  14
TORSDOF 3
ENDMDL
MODEL 5
REMARK VINA RESULT:      -6.9      5.862      8.062
REMARK  Name = 
REMARK  3 active torsions:
REMARK  status: ('A' for Active; 'I' for Inactive)
REMARK    1  A    between atoms: N_10  and  N_11
REMARK    2  A    between atoms: C_12  and  C_14
REMARK    3  A    between atoms: C_19  and  S_20
REMARK                            x       y       z     vdW  Elec       q    Type
REMARK                         _______ _______ _______ _____ _____    ______ ____
ROOT
ATOM      1  N   UNL     1     -11.504  16.408  68.600  0.00  0.00    -0.106 NA
ATOM      2  C   UNL     1     -10.220  16.976  68.869  0.00  0.00    +0.283 C 
ATOM      3  O   UNL     1      -9.387  16.215  69.410  0.00  0.00    -0.267 OA
ENDROOT
BRANCH   1   6
ATOM      4  C   UNL     1     -12.355  14.263  70.378  0.00  0.00    +0.024 C 
ATOM      5  C   UNL     1     -11.126  13.962  69.288  0.00  0.00    +0.099 C 
ATOM      6  N   UNL     1     -11.699  15.063  68.278  0.00  0.00    -0.219 N 
ATOM      7  C   UNL     1     -11.392  14.448  67.020  0.00  0.00    +0.063 A 
ATOM      8  C   UNL     1     -11.719  13.117  67.129  0.00  0.00    -0.006 A 
ATOM      9  C   UNL     1     -11.696  12.287  66.015  0.00  0.00    -0.003 A 
ATOM     10  C   UNL     1     -10.963  12.705  64.914  0.00  0.00    -0.000 A 
ATOM     11  C   UNL     1     -10.491  14.008  64.808  0.00  0.00    +0.001 A 
ATOM     12  C   UNL     1     -10.846  14.892  65.821  0.00  0.00    +0.016 A 
ATOM     13  C   UNL     1     -12.026  12.769  68.539  0.00  0.00    +0.049 C 
ENDBRANCH   1   6
BRANCH   2  14
ATOM     14  C   UNL     1      -9.736  18.197  68.242  0.00  0.00    +0.058 A 
ATOM     15  C   UNL     1      -8.517  18.755  68.600  0.00  0.00    +0.025 A 
ATOM     16  C   UNL     1      -7.807  19.537  67.727  0.00  0.00    +0.136 A 
ATOM     17  C   UNL     1      -8.275  19.749  66.436  0.00  0.00    +0.076 A 
ATOM     18 CL   UNL     1      -7.153  20.078  65.137  0.00  0.00    -0.081 Cl
ATOM     19  C   UNL     1      -9.630  19.557  66.233  0.00  0.00    +0.013 A 
ATOM     20  C   UNL     1     -10.285  18.681  67.060  0.00  0.00    +0.006 A 
BRANCH  16  21
ATOM     21  S   UNL     1      -6.301  20.272  68.199  0.00  0.00    +0.094 S 
ATOM     22  O   UNL     1      -6.160  21.659  67.663  0.00  0.00    -0.150 OA
ATOM     23  O   UNL     1      -6.287  20.345  69.709  0.00  0.00    -0.150 OA
ATOM     24  N   UNL     1      -4.971  19.299  67.647  0.00  0.00    +0.039 NA
ENDBRANCH  16  21
ENDBRANCH   2  14
TORSDOF 3
ENDMDL
MODEL 6
REMARK VINA RESULT:      -6.9      7.013     10.867
REMARK  Name = 
REMARK  3 active torsions:
REMARK  status: ('A' for Active; 'I' for Inactive)
REMARK    1  A    between atoms: N_10  and  N_11
REMARK    2  A    between atoms: C_12  and  C_14
REMARK    3  A    between atoms: C_19  and  S_20
REMARK                            x       y       z     vdW  Elec       q    Type
REMARK                         _______ _______ _______ _____ _____    ______ ____
ROOT
ATOM      1  N   UNL     1      -8.327  17.784  65.838  0.00  0.00    -0.106 NA
ATOM      2  C   UNL     1      -8.192  16.406  66.194  0.00  0.00    +0.283 C 
ATOM      3  O   UNL     1      -7.048  16.041  66.547  0.00  0.00    -0.267 OA
ENDROOT
BRANCH   1   6
ATOM      4  C   UNL     1      -8.849  19.128  68.370  0.00  0.00    +0.024 C 
ATOM      5  C   UNL     1      -8.378  20.045  67.056  0.00  0.00    +0.099 C 
ATOM      6  N   UNL     1      -7.582  18.807  66.427  0.00  0.00    -0.219 N 
ATOM      7  C   UNL     1      -6.471  19.489  65.828  0.00  0.00    +0.063 A 
ATOM      8  C   UNL     1      -6.038  20.430  66.733  0.00  0.00    -0.006 A 
ATOM      9  C   UNL     1      -4.863  21.138  66.513  0.00  0.00    -0.003 A 
ATOM     10  C   UNL     1      -4.370  21.182  65.216  0.00  0.00    -0.000 A 
ATOM     11  C   UNL     1      -4.862  20.343  64.224  0.00  0.00    +0.001 A 
ATOM     12  C   UNL     1      -5.820  19.410  64.603  0.00  0.00    +0.016 A 
ATOM     13  C   UNL     1      -7.003  20.558  67.854  0.00  0.00    +0.049 C 
ENDBRANCH   1   6
BRANCH   2  14
ATOM     14  C   UNL     1      -9.321  15.545  66.515  0.00  0.00    +0.058 A 
ATOM     15  C   UNL     1     -10.170  15.073  65.524  0.00  0.00    +0.025 A 
ATOM     16  C   UNL     1     -10.871  13.906  65.683  0.00  0.00    +0.136 A 
ATOM     17  C   UNL     1     -10.706  13.139  66.830  0.00  0.00    +0.076 A 
ATOM     18 CL   UNL     1     -10.963  11.412  66.777  0.00  0.00    -0.081 Cl
ATOM     19  C   UNL     1     -10.213  13.796  67.944  0.00  0.00    +0.013 A 
ATOM     20  C   UNL     1      -9.423  14.899  67.742  0.00  0.00    +0.006 A 
BRANCH  16  21
ATOM     21  S   UNL     1     -11.971  13.344  64.455  0.00  0.00    +0.094 S 
ATOM     22  O   UNL     1     -13.135  12.612  65.037  0.00  0.00    -0.150 OA
ATOM     23  O   UNL     1     -12.493  14.560  63.725  0.00  0.00    -0.150 OA
ATOM     24  N   UNL     1     -11.131  12.307  63.342  0.00  0.00    +0.039 NA
ENDBRANCH  16  21
ENDBRANCH   2  14
TORSDOF 3
ENDMDL
MODEL 7
REMARK VINA RESULT:      -6.8      4.196      5.318
REMARK  Name = 
REMARK  3 active torsions:
REMARK  status: ('A' for Active; 'I' for Inactive)
REMARK    1  A    between atoms: N_10  and  N_11
REMARK    2  A    between atoms: C_12  and  C_14
REMARK    3  A    between atoms: C_19  and  S_20
REMARK                            x       y       z     vdW  Elec       q    Type
REMARK                         _______ _______ _______ _____ _____    ______ ____
ROOT
ATOM      1  N   UNL     1     -11.754  12.641  67.241  0.00  0.00    -0.106 NA
ATOM      2  C   UNL     1     -10.992  13.340  68.228  0.00  0.00    +0.283 C 
ATOM      3  O   UNL     1      -9.753  13.163  68.191  0.00  0.00    -0.267 OA
ENDROOT
BRANCH   1   6
ATOM      4  C   UNL     1     -12.325  14.086  64.777  0.00  0.00    +0.024 C 
ATOM      5  C   UNL     1     -12.319  12.417  64.745  0.00  0.00    +0.099 C 
ATOM      6  N   UNL     1     -11.278  12.357  65.960  0.00  0.00    -0.219 N 
ATOM      7  C   UNL     1     -10.506  11.209  65.585  0.00  0.00    +0.063 A 
ATOM      8  C   UNL     1     -10.261  11.307  64.236  0.00  0.00    -0.006 A 
ATOM      9  C   UNL     1      -9.388  10.429  63.607  0.00  0.00    -0.003 A 
ATOM     10  C   UNL     1      -9.100   9.234  64.251  0.00  0.00    -0.000 A 
ATOM     11  C   UNL     1      -9.442   9.027  65.582  0.00  0.00    +0.001 A 
ATOM     12  C   UNL     1     -10.022  10.093  66.259  0.00  0.00    +0.016 A 
ATOM     13  C   UNL     1     -11.068  12.401  63.638  0.00  0.00    +0.049 C 
ENDBRANCH   1   6
BRANCH   2  14
ATOM     14  C   UNL     1     -11.505  14.474  68.984  0.00  0.00    +0.058 A 
ATOM     15  C   UNL     1     -12.625  14.351  69.793  0.00  0.00    +0.025 A 
ATOM     16  C   UNL     1     -12.819  15.174  70.872  0.00  0.00    +0.136 A 
ATOM     17  C   UNL     1     -11.862  16.124  71.209  0.00  0.00    +0.076 A 
ATOM     18 CL   UNL     1     -11.692  16.649  72.867  0.00  0.00    -0.081 Cl
ATOM     19  C   UNL     1     -10.998  16.513  70.201  0.00  0.00    +0.013 A 
ATOM     20  C   UNL     1     -10.744  15.619  69.193  0.00  0.00    +0.006 A 
BRANCH  16  21
ATOM     21  S   UNL     1     -14.250  15.046  71.855  0.00  0.00    +0.094 S 
ATOM     22  O   UNL     1     -14.287  16.081  72.930  0.00  0.00    -0.150 OA
ATOM     23  O   UNL     1     -15.441  15.261  70.949  0.00  0.00    -0.150 OA
ATOM     24  N   UNL     1     -14.335  13.464  72.569  0.00  0.00    +0.039 NA
ENDBRANCH  16  21
ENDBRANCH   2  14
TORSDOF 3
ENDMDL
MODEL 8
REMARK VINA RESULT:      -6.7      6.606     10.100
REMARK  Name = 
REMARK  3 active torsions:
REMARK  status: ('A' for Active; 'I' for Inactive)
REMARK    1  A    between atoms: N_10  and  N_11
REMARK    2  A    between atoms: C_12  and  C_14
REMARK    3  A    between atoms: C_19  and  S_20
REMARK                            x       y       z     vdW  Elec       q    Type
REMARK                         _______ _______ _______ _____ _____    ______ ____
ROOT
ATOM      1  N   UNL     1      -8.728  17.724  68.007  0.00  0.00    -0.106 NA
ATOM      2  C   UNL     1      -9.480  17.266  66.881  0.00  0.00    +0.283 C 
ATOM      3  O   UNL     1      -8.998  17.531  65.756  0.00  0.00    -0.267 OA
ENDROOT
BRANCH   1   6
ATOM      4  C   UNL     1      -6.816  15.702  68.871  0.00  0.00    +0.024 C 
ATOM      5  C   UNL     1      -6.557  17.292  69.310  0.00  0.00    +0.099 C 
ATOM      6  N   UNL     1      -7.335  17.819  68.015  0.00  0.00    -0.219 N 
ATOM      7  C   UNL     1      -6.572  18.995  67.712  0.00  0.00    +0.063 A 
ATOM      8  C   UNL     1      -5.244  18.663  67.853  0.00  0.00    -0.006 A 
ATOM      9  C   UNL     1      -4.247  19.547  67.461  0.00  0.00    -0.003 A 
ATOM     10  C   UNL     1      -4.589  20.884  67.320  0.00  0.00    -0.000 A 
ATOM     11  C   UNL     1      -5.916  21.296  67.302  0.00  0.00    +0.001 A 
ATOM     12  C   UNL     1      -6.886  20.302  67.363  0.00  0.00    +0.016 A 
ATOM     13  C   UNL     1      -5.105  17.327  68.485  0.00  0.00    +0.049 C 
ENDBRANCH   1   6
BRANCH   2  14
ATOM     14  C   UNL     1     -10.511  16.242  66.967  0.00  0.00    +0.058 A 
ATOM     15  C   UNL     1     -10.924  15.540  65.844  0.00  0.00    +0.025 A 
ATOM     16  C   UNL     1     -11.457  14.282  65.945  0.00  0.00    +0.136 A 
ATOM     17  C   UNL     1     -11.550  13.658  67.183  0.00  0.00    +0.076 A 
ATOM     18 CL   UNL     1     -11.517  11.915  67.294  0.00  0.00    -0.081 Cl
ATOM     19  C   UNL     1     -11.538  14.486  68.292  0.00  0.00    +0.013 A 
ATOM     20  C   UNL     1     -10.898  15.694  68.184  0.00  0.00    +0.006 A 
BRANCH  16  21
ATOM     21  S   UNL     1     -12.016  13.425  64.536  0.00  0.00    +0.094 S 
ATOM     22  O   UNL     1     -13.136  12.490  64.855  0.00  0.00    -0.150 OA
ATOM     23  O   UNL     1     -12.525  14.456  63.554  0.00  0.00    -0.150 OA
ATOM     24  N   UNL     1     -10.703  12.537  63.826  0.00  0.00    +0.039 NA
ENDBRANCH  16  21
ENDBRANCH   2  14
TORSDOF 3
ENDMDL
MODEL 9
REMARK VINA RESULT:      -6.6      1.330      2.705
REMARK  Name = 
REMARK  3 active torsions:
REMARK  status: ('A' for Active; 'I' for Inactive)
REMARK    1  A    between atoms: N_10  and  N_11
REMARK    2  A    between atoms: C_12  and  C_14
REMARK    3  A    between atoms: C_19  and  S_20
REMARK                            x       y       z     vdW  Elec       q    Type
REMARK                         _______ _______ _______ _____ _____    ______ ____
ROOT
ATOM      1  N   UNL     1     -10.285  11.306  69.155  0.00  0.00    -0.106 NA
ATOM      2  C   UNL     1     -11.371  11.975  68.511  0.00  0.00    +0.283 C 
ATOM      3  O   UNL     1     -12.062  11.277  67.735  0.00  0.00    -0.267 OA
ENDROOT
BRANCH   1   6
ATOM      4  C   UNL     1      -8.730   9.133  67.995  0.00  0.00    +0.024 C 
ATOM      5  C   UNL     1     -10.344   8.873  68.332  0.00  0.00    +0.099 C 
ATOM      6  N   UNL     1     -10.313   9.956  69.510  0.00  0.00    -0.219 N 
ATOM      7  C   UNL     1     -11.219   9.352  70.443  0.00  0.00    +0.063 A 
ATOM      8  C   UNL     1     -10.919   8.011  70.489  0.00  0.00    -0.006 A 
ATOM      9  C   UNL     1     -11.512   7.182  71.433  0.00  0.00    -0.003 A 
ATOM     10  C   UNL     1     -12.681   7.625  72.036  0.00  0.00    -0.000 A 
ATOM     11  C   UNL     1     -13.106   8.943  71.916  0.00  0.00    +0.001 A 
ATOM     12  C   UNL     1     -12.272   9.814  71.223  0.00  0.00    +0.016 A 
ATOM     13  C   UNL     1      -9.966   7.652  69.408  0.00  0.00    +0.049 C 
ENDBRANCH   1   6
BRANCH   2  14
ATOM     14  C   UNL     1     -11.918  13.244  68.971  0.00  0.00    +0.058 A 
ATOM     15  C   UNL     1     -12.576  13.345  70.188  0.00  0.00    +0.025 A 
ATOM     16  C   UNL     1     -12.627  14.530  70.874  0.00  0.00    +0.136 A 
ATOM     17  C   UNL     1     -11.973  15.654  70.383  0.00  0.00    +0.076 A 
ATOM     18 CL   UNL     1     -11.404  16.889  71.479  0.00  0.00    -0.081 Cl
ATOM     19  C   UNL     1     -11.696  15.661  69.027  0.00  0.00    +0.013 A 
ATOM     20  C   UNL     1     -11.543  14.453  68.396  0.00  0.00    +0.006 A 
BRANCH  16  21
ATOM     21  S   UNL     1     -13.495  14.662  72.378  0.00  0.00    +0.094 S 
ATOM     22  O   UNL     1     -14.444  15.814  72.379  0.00  0.00    -0.150 OA
ATOM     23  O   UNL     1     -14.293  13.390  72.552  0.00  0.00    -0.150 OA
ATOM     24  N   UNL     1     -12.372  14.834  73.693  0.00  0.00    +0.039 NA
ENDBRANCH  16  21
ENDBRANCH   2  14
TORSDOF 3
ENDMDL
