MODEL 1
REMARK VINA RESULT:      -3.7      0.000      0.000
REMARK  Name = 
REMARK  2 active torsions:
REMARK  status: ('A' for Active; 'I' for Inactive)
REMARK    1  A    between atoms: CA_2  and  CB_3
REMARK    2  A    between atoms: CA_2  and  C_5
REMARK                            x       y       z     vdW  Elec       q    Type
REMARK                         _______ _______ _______ _____ _____    ______ ____
ROOT
ATOM      1  N   SER A   1     -13.883  14.014  72.640  0.00  0.00    -0.118 NA
ATOM      2  CA  SER A   1     -13.624  15.569  72.877  0.00  0.00    +0.227 C 
ENDROOT
BRANCH   2   3
ATOM      3  C   SER A   1     -12.558  15.658  71.651  0.00  0.00    +0.385 C 
ATOM      4  OXT SER A   1     -11.306  15.160  71.949  0.00  0.00    -0.244 OA
ATOM      5  O   SER A   1     -12.995  15.972  70.551  0.00  0.00    -0.244 OA
ENDBRANCH   2   3
BRANCH   2   6
ATOM      6  CB  SER A   1     -12.439  15.358  74.017  0.00  0.00    +0.213 C 
ATOM      7  OG  SER A   1     -12.506  16.363  74.912  0.00  0.00    -0.218 OA
ENDBRANCH   2   6
TORSDOF 2
ENDMDL
MODEL 2
REMARK VINA RESULT:      -3.7      2.070      2.438
REMARK  Name = 
REMARK  2 active torsions:
REMARK  status: ('A' for Active; 'I' for Inactive)
REMARK    1  A    between atoms: CA_2  and  CB_3
REMARK    2  A    between atoms: CA_2  and  C_5
REMARK                            x       y       z     vdW  Elec       q    Type
REMARK                         _______ _______ _______ _____ _____    ______ ____
ROOT
ATOM      1  N   SER A   1     -12.689  15.965  70.809  0.00  0.00    -0.118 NA
ATOM      2  CA  SER A   1     -12.396  14.920  71.976  0.00  0.00    +0.227 C 
ENDROOT
BRANCH   2   3
ATOM      3  C   SER A   1     -13.976  14.599  72.192  0.00  0.00    +0.385 C 
ATOM      4  OXT SER A   1     -14.824  15.597  71.759  0.00  0.00    -0.244 OA
ATOM      5  O   SER A   1     -14.275  13.460  72.532  0.00  0.00    -0.244 OA
ENDBRANCH   2   3
BRANCH   2   6
ATOM      6  CB  SER A   1     -12.363  16.047  73.191  0.00  0.00    +0.213 C 
ATOM      7  OG  SER A   1     -12.352  15.412  74.380  0.00  0.00    -0.218 OA
ENDBRANCH   2   6
TORSDOF 2
ENDMDL
MODEL 3
REMARK VINA RESULT:      -3.7      1.819      1.915
REMARK  Name = 
REMARK  2 active torsions:
REMARK  status: ('A' for Active; 'I' for Inactive)
REMARK    1  A    between atoms: CA_2  and  CB_3
REMARK    2  A    between atoms: CA_2  and  C_5
REMARK                            x       y       z     vdW  Elec       q    Type
REMARK                         _______ _______ _______ _____ _____    ______ ____
ROOT
ATOM      1  N   SER A   1     -14.272  15.924  72.501  0.00  0.00    -0.118 NA
ATOM      2  CA  SER A   1     -12.726  15.587  72.312  0.00  0.00    +0.227 C 
ENDROOT
BRANCH   2   3
ATOM      3  C   SER A   1     -13.029  14.031  71.947  0.00  0.00    +0.385 C 
ATOM      4  OXT SER A   1     -14.130  13.500  72.587  0.00  0.00    -0.244 OA
ATOM      5  O   SER A   1     -12.392  13.537  71.024  0.00  0.00    -0.244 OA
ENDBRANCH   2   3
BRANCH   2   6
ATOM      6  CB  SER A   1     -12.441  15.254  73.910  0.00  0.00    +0.213 C 
ATOM      7  OG  SER A   1     -12.574  16.389  74.626  0.00  0.00    -0.218 OA
ENDBRANCH   2   6
TORSDOF 2
ENDMDL
MODEL 4
REMARK VINA RESULT:      -3.6      6.951      7.957
REMARK  Name = 
REMARK  2 active torsions:
REMARK  status: ('A' for Active; 'I' for Inactive)
REMARK    1  A    between atoms: CA_2  and  CB_3
REMARK    2  A    between atoms: CA_2  and  C_5
REMARK                            x       y       z     vdW  Elec       q    Type
REMARK                         _______ _______ _______ _____ _____    ______ ____
ROOT
ATOM      1  N   SER A   1     -12.558  14.490  63.961  0.00  0.00    -0.118 NA
ATOM      2  CA  SER A   1     -11.158  14.197  64.664  0.00  0.00    +0.227 C 
ENDROOT
BRANCH   2   3
ATOM      3  C   SER A   1     -11.860  13.805  66.078  0.00  0.00    +0.385 C 
ATOM      4  OXT SER A   1     -12.244  12.483  66.175  0.00  0.00    -0.244 OA
ATOM      5  O   SER A   1     -11.816  14.637  66.976  0.00  0.00    -0.244 OA
ENDBRANCH   2   3
BRANCH   2   6
ATOM      6  CB  SER A   1     -10.885  15.765  65.128  0.00  0.00    +0.213 C 
ATOM      7  OG  SER A   1     -11.367  16.595  64.180  0.00  0.00    -0.218 OA
ENDBRANCH   2   6
TORSDOF 2
ENDMDL
MODEL 5
REMARK VINA RESULT:      -3.6      7.650      7.963
REMARK  Name = 
REMARK  2 active torsions:
REMARK  status: ('A' for Active; 'I' for Inactive)
REMARK    1  A    between atoms: CA_2  and  CB_3
REMARK    2  A    between atoms: CA_2  and  C_5
REMARK                            x       y       z     vdW  Elec       q    Type
REMARK                         _______ _______ _______ _____ _____    ______ ____
ROOT
ATOM      1  N   SER A   1     -11.417  14.764  66.611  0.00  0.00    -0.118 NA
ATOM      2  CA  SER A   1     -10.790  14.632  65.152  0.00  0.00    +0.227 C 
ENDROOT
BRANCH   2   3
ATOM      3  C   SER A   1     -10.901  16.231  64.874  0.00  0.00    +0.385 C 
ATOM      4  OXT SER A   1     -10.018  16.999  65.604  0.00  0.00    -0.244 OA
ATOM      5  O   SER A   1     -11.601  16.589  63.934  0.00  0.00    -0.244 OA
ENDBRANCH   2   3
BRANCH   2   6
ATOM      6  CB  SER A   1     -12.226  14.305  64.392  0.00  0.00    +0.213 C 
ATOM      7  OG  SER A   1     -13.151  13.986  65.320  0.00  0.00    -0.218 OA
ENDBRANCH   2   6
TORSDOF 2
ENDMDL
MODEL 6
REMARK VINA RESULT:      -3.6      7.885      8.563
REMARK  Name = 
REMARK  2 active torsions:
REMARK  status: ('A' for Active; 'I' for Inactive)
REMARK    1  A    between atoms: CA_2  and  CB_3
REMARK    2  A    between atoms: CA_2  and  C_5
REMARK                            x       y       z     vdW  Elec       q    Type
REMARK                         _______ _______ _______ _____ _____    ______ ____
ROOT
ATOM      1  N   SER A   1     -12.479  14.291  63.951  0.00  0.00    -0.118 NA
ATOM      2  CA  SER A   1     -11.788  14.546  65.365  0.00  0.00    +0.227 C 
ENDROOT
BRANCH   2   3
ATOM      3  C   SER A   1     -10.968  15.841  64.820  0.00  0.00    +0.385 C 
ATOM      4  OXT SER A   1     -11.661  16.611  63.909  0.00  0.00    -0.244 OA
ATOM      5  O   SER A   1      -9.919  16.119  65.387  0.00  0.00    -0.244 OA
ENDBRANCH   2   3
BRANCH   2   6
ATOM      6  CB  SER A   1     -10.517  13.514  65.107  0.00  0.00    +0.213 C 
ATOM      7  OG  SER A   1     -10.685  12.897  63.919  0.00  0.00    -0.218 OA
ENDBRANCH   2   6
TORSDOF 2
ENDMDL
MODEL 7
REMARK VINA RESULT:      -3.4      1.851      2.492
REMARK  Name = 
REMARK  2 active torsions:
REMARK  status: ('A' for Active; 'I' for Inactive)
REMARK    1  A    between atoms: CA_2  and  CB_3
REMARK    2  A    between atoms: CA_2  and  C_5
REMARK                            x       y       z     vdW  Elec       q    Type
REMARK                         _______ _______ _______ _____ _____    ______ ____
ROOT
ATOM      1  N   SER A   1     -12.625  14.762  73.655  0.00  0.00    -0.118 NA
ATOM      2  CA  SER A   1     -13.355  15.938  72.866  0.00  0.00    +0.227 C 
ENDROOT
BRANCH   2   3
ATOM      3  C   SER A   1     -14.351  14.910  72.094  0.00  0.00    +0.385 C 
ATOM      4  OXT SER A   1     -14.256  13.600  72.518  0.00  0.00    -0.244 OA
ATOM      5  O   SER A   1     -15.205  15.398  71.364  0.00  0.00    -0.244 OA
ENDBRANCH   2   3
BRANCH   2   6
ATOM      6  CB  SER A   1     -12.273  15.980  71.611  0.00  0.00    +0.213 C 
ATOM      7  OG  SER A   1     -11.300  15.074  71.838  0.00  0.00    -0.218 OA
ENDBRANCH   2   6
TORSDOF 2
ENDMDL
MODEL 8
REMARK VINA RESULT:      -3.4      1.684      3.034
REMARK  Name = 
REMARK  2 active torsions:
REMARK  status: ('A' for Active; 'I' for Inactive)
REMARK    1  A    between atoms: CA_2  and  CB_3
REMARK    2  A    between atoms: CA_2  and  C_5
REMARK                            x       y       z     vdW  Elec       q    Type
REMARK                         _______ _______ _______ _____ _____    ______ ____
ROOT
ATOM      1  N   SER A   1     -11.609  14.977  71.791  0.00  0.00    -0.118 NA
ATOM      2  CA  SER A   1     -12.678  16.050  72.288  0.00  0.00    +0.227 C 
ENDROOT
BRANCH   2   3
ATOM      3  C   SER A   1     -12.368  15.750  73.857  0.00  0.00    +0.385 C 
ATOM      4  OXT SER A   1     -12.506  16.845  74.684  0.00  0.00    -0.244 OA
ATOM      5  O   SER A   1     -12.230  14.578  74.186  0.00  0.00    -0.244 OA
ENDBRANCH   2   3
BRANCH   2   6
ATOM      6  CB  SER A   1     -13.971  15.014  72.248  0.00  0.00    +0.213 C 
ATOM      7  OG  SER A   1     -14.962  15.575  71.526  0.00  0.00    -0.218 OA
ENDBRANCH   2   6
TORSDOF 2
ENDMDL
MODEL 9
REMARK VINA RESULT:      -3.4      7.443      8.499
REMARK  Name = 
REMARK  2 active torsions:
REMARK  status: ('A' for Active; 'I' for Inactive)
REMARK    1  A    between atoms: CA_2  and  CB_3
REMARK    2  A    between atoms: CA_2  and  C_5
REMARK                            x       y       z     vdW  Elec       q    Type
REMARK                         _______ _______ _______ _____ _____    ______ ____
ROOT
ATOM      1  N   SER A   1     -10.462  14.350  64.846  0.00  0.00    -0.118 NA
ATOM      2  CA  SER A   1     -10.971  12.839  64.854  0.00  0.00    +0.227 C 
ENDROOT
BRANCH   2   3
ATOM      3  C   SER A   1     -12.222  13.172  63.868  0.00  0.00    +0.385 C 
ATOM      4  OXT SER A   1     -12.902  12.060  63.417  0.00  0.00    -0.244 OA
ATOM      5  O   SER A   1     -12.559  14.346  63.768  0.00  0.00    -0.244 OA
ENDBRANCH   2   3
BRANCH   2   6
ATOM      6  CB  SER A   1     -11.889  12.990  66.225  0.00  0.00    +0.213 C 
ATOM      7  OG  SER A   1     -12.009  11.781  66.810  0.00  0.00    -0.218 OA
ENDBRANCH   2   6
TORSDOF 2
ENDMDL
