MODEL 1
REMARK VINA RESULT:      -7.7      0.000      0.000
REMARK  Name = 
REMARK  4 active torsions:
REMARK  status: ('A' for Active; 'I' for Inactive)
REMARK    1  A    between atoms: C_2  and  C_3
REMARK    2  A    between atoms: C_2  and  C_8
REMARK    3  A    between atoms: C_3  and  C_4
REMARK    4  A    between atoms: C_4  and  C_5
REMARK                            x       y       z     vdW  Elec       q    Type
REMARK                         _______ _______ _______ _____ _____    ______ ____
ROOT
ATOM      1  C   UNL     1      -7.420  17.282  67.953  0.00  0.00    +0.002 C 
ATOM      2  C   UNL     1      -8.836  16.562  67.993  0.00  0.00    +0.028 C 
ATOM      3  C   UNL     1      -8.069  15.209  67.549  0.00  0.00    +0.002 C 
ATOM      4  C   UNL     1      -9.400  14.229  67.878  0.00  0.00    +0.000 C 
ATOM      5  C   UNL     1      -9.988  14.590  66.336  0.00  0.00    +0.003 C 
ATOM      6  C   UNL     1     -10.794  15.881  66.855  0.00  0.00    +0.033 C 
ATOM      7  C   UNL     1     -11.194  13.547  66.489  0.00  0.00    +0.000 C 
ATOM      8  C   UNL     1     -10.571  12.221  65.765  0.00  0.00    +0.003 C 
ATOM      9  C   UNL     1     -10.597  12.943  64.302  0.00  0.00    +0.033 C 
ATOM     10  C   UNL     1     -12.018  12.377  63.688  0.00  0.00    +0.152 C 
ATOM     11  C   UNL     1     -12.879  12.687  65.057  0.00  0.00    +0.033 C 
ATOM     12  O   UNL     1     -12.390  13.738  63.127  0.00  0.00    -0.223 OA
ATOM     13  C   UNL     1      -8.992  12.555  65.995  0.00  0.00    +0.000 C 
ATOM     14  C   UNL     1     -11.575  13.223  67.844  0.00  0.00    +0.000 C 
ATOM     15  C   UNL     1     -12.343  14.000  65.612  0.00  0.00    +0.003 C 
ATOM     16  C   UNL     1      -8.719  12.867  67.392  0.00  0.00    +0.000 C 
ATOM     17  C   UNL     1      -7.471  15.103  69.051  0.00  0.00    +0.000 C 
ATOM     18  C   UNL     1      -9.528  16.225  69.117  0.00  0.00    +0.003 C 
ATOM     19  C   UNL     1      -9.669  17.095  66.715  0.00  0.00    +0.152 C 
ATOM     20  O   UNL     1      -8.771  16.424  65.678  0.00  0.00    -0.223 OA
ATOM     21  C   UNL     1      -7.030  16.512  69.331  0.00  0.00    +0.000 C 
ENDROOT
BRANCH   1  23
ATOM     22  C   UNL     1      -7.647  19.648  67.167  0.00  0.00    +0.000 C 
ATOM     23  C   UNL     1      -7.773  18.831  68.574  0.00  0.00    +0.001 C 
BRANCH  23  24
ATOM     24  C   UNL     1      -6.326  19.324  69.061  0.00  0.00    +0.012 C 
BRANCH  24  25
ATOM     25  C   UNL     1      -6.388  20.046  70.308  0.00  0.00    +0.114 C 
BRANCH  25  26
ATOM     26  C   UNL     1      -5.372  19.919  71.323  0.00  0.00    +0.365 C 
ATOM     27  O   UNL     1      -4.917  21.151  71.822  0.00  0.00    -0.246 OA
ATOM     28  O   UNL     1      -5.043  18.955  72.027  0.00  0.00    -0.246 OA
ENDBRANCH  25  26
ENDBRANCH  24  25
ENDBRANCH  23  24
ENDBRANCH   1  23
TORSDOF 4
ENDMDL
MODEL 2
REMARK VINA RESULT:      -7.4      2.258      7.655
REMARK  Name = 
REMARK  4 active torsions:
REMARK  status: ('A' for Active; 'I' for Inactive)
REMARK    1  A    between atoms: C_2  and  C_3
REMARK    2  A    between atoms: C_2  and  C_8
REMARK    3  A    between atoms: C_3  and  C_4
REMARK    4  A    between atoms: C_4  and  C_5
REMARK                            x       y       z     vdW  Elec       q    Type
REMARK                         _______ _______ _______ _____ _____    ______ ____
ROOT
ATOM      1  C   UNL     1     -10.561  14.915  67.245  0.00  0.00    +0.002 C 
ATOM      2  C   UNL     1      -9.289  15.649  67.853  0.00  0.00    +0.028 C 
ATOM      3  C   UNL     1     -10.052  17.043  67.550  0.00  0.00    +0.002 C 
ATOM      4  C   UNL     1      -8.965  17.949  68.465  0.00  0.00    +0.000 C 
ATOM      5  C   UNL     1      -7.959  18.024  67.110  0.00  0.00    +0.003 C 
ATOM      6  C   UNL     1      -7.185  16.671  67.508  0.00  0.00    +0.033 C 
ATOM      7  C   UNL     1      -6.952  19.033  67.840  0.00  0.00    +0.000 C 
ATOM      8  C   UNL     1      -7.500  20.479  67.311  0.00  0.00    +0.003 C 
ATOM      9  C   UNL     1      -7.016  20.163  65.785  0.00  0.00    +0.033 C 
ATOM     10  C   UNL     1      -5.552  20.920  65.750  0.00  0.00    +0.152 C 
ATOM     11  C   UNL     1      -5.052  20.295  67.188  0.00  0.00    +0.033 C 
ATOM     12  O   UNL     1      -4.904  19.765  65.005  0.00  0.00    -0.223 OA
ATOM     13  C   UNL     1      -9.040  20.040  67.002  0.00  0.00    +0.000 C 
ATOM     14  C   UNL     1      -6.976  19.006  69.284  0.00  0.00    +0.000 C 
ATOM     15  C   UNL     1      -5.572  18.864  67.239  0.00  0.00    +0.003 C 
ATOM     16  C   UNL     1      -9.635  19.366  68.150  0.00  0.00    +0.000 C 
ATOM     17  C   UNL     1     -11.030  16.733  68.804  0.00  0.00    +0.000 C 
ATOM     18  C   UNL     1      -8.955  15.705  69.173  0.00  0.00    +0.003 C 
ATOM     19  C   UNL     1      -8.099  15.496  66.770  0.00  0.00    +0.152 C 
ATOM     20  O   UNL     1      -8.760  16.382  65.716  0.00  0.00    -0.223 OA
ATOM     21  C   UNL     1     -11.378  15.285  68.602  0.00  0.00    +0.000 C 
ENDROOT
BRANCH   1  23
ATOM     22  C   UNL     1      -9.578  12.922  66.091  0.00  0.00    +0.000 C 
ATOM     23  C   UNL     1     -10.221  13.271  67.549  0.00  0.00    +0.001 C 
BRANCH  23  24
ATOM     24  C   UNL     1     -11.615  12.574  67.170  0.00  0.00    +0.012 C 
BRANCH  24  25
ATOM     25  C   UNL     1     -11.665  12.173  65.786  0.00  0.00    +0.114 C 
BRANCH  25  26
ATOM     26  C   UNL     1     -12.689  12.642  64.884  0.00  0.00    +0.365 C 
ATOM     27  O   UNL     1     -13.166  13.926  65.193  0.00  0.00    -0.246 OA
ATOM     28  O   UNL     1     -13.010  12.260  63.751  0.00  0.00    -0.246 OA
ENDBRANCH  25  26
ENDBRANCH  24  25
ENDBRANCH  23  24
ENDBRANCH   1  23
TORSDOF 4
ENDMDL
MODEL 3
REMARK VINA RESULT:      -7.3      1.874      3.094
REMARK  Name = 
REMARK  4 active torsions:
REMARK  status: ('A' for Active; 'I' for Inactive)
REMARK    1  A    between atoms: C_2  and  C_3
REMARK    2  A    between atoms: C_2  and  C_8
REMARK    3  A    between atoms: C_3  and  C_4
REMARK    4  A    between atoms: C_4  and  C_5
REMARK                            x       y       z     vdW  Elec       q    Type
REMARK                         _______ _______ _______ _____ _____    ______ ____
ROOT
ATOM      1  C   UNL     1      -7.489  18.270  69.097  0.00  0.00    +0.002 C 
ATOM      2  C   UNL     1      -8.022  17.384  67.890  0.00  0.00    +0.028 C 
ATOM      3  C   UNL     1      -9.377  17.176  68.748  0.00  0.00    +0.002 C 
ATOM      4  C   UNL     1     -10.219  16.520  67.445  0.00  0.00    +0.000 C 
ATOM      5  C   UNL     1      -9.555  15.016  67.834  0.00  0.00    +0.003 C 
ATOM      6  C   UNL     1      -8.267  15.250  66.900  0.00  0.00    +0.033 C 
ATOM      7  C   UNL     1     -10.448  14.271  66.732  0.00  0.00    +0.000 C 
ATOM      8  C   UNL     1     -11.716  13.763  67.629  0.00  0.00    +0.003 C 
ATOM      9  C   UNL     1     -10.780  12.704  68.446  0.00  0.00    +0.033 C 
ATOM     10  C   UNL     1     -11.062  11.313  67.606  0.00  0.00    +0.152 C 
ATOM     11  C   UNL     1     -10.858  12.014  66.130  0.00  0.00    +0.033 C 
ATOM     12  O   UNL     1      -9.595  10.922  67.640  0.00  0.00    -0.223 OA
ATOM     13  C   UNL     1     -11.623  14.883  68.810  0.00  0.00    +0.000 C 
ATOM     14  C   UNL     1     -10.924  15.099  65.648  0.00  0.00    +0.000 C 
ATOM     15  C   UNL     1      -9.724  13.018  66.285  0.00  0.00    +0.003 C 
ATOM     16  C   UNL     1     -11.565  16.229  68.255  0.00  0.00    +0.000 C 
ATOM     17  C   UNL     1      -9.786  18.703  68.395  0.00  0.00    +0.000 C 
ATOM     18  C   UNL     1      -8.436  17.850  66.679  0.00  0.00    +0.003 C 
ATOM     19  C   UNL     1      -7.198  15.994  67.932  0.00  0.00    +0.152 C 
ATOM     20  O   UNL     1      -7.811  15.512  69.245  0.00  0.00    -0.223 OA
ATOM     21  C   UNL     1      -8.504  19.452  68.628  0.00  0.00    +0.000 C 
ENDROOT
BRANCH   1  23
ATOM     22  C   UNL     1      -5.021  17.999  69.420  0.00  0.00    +0.000 C 
ATOM     23  C   UNL     1      -6.022  18.887  68.485  0.00  0.00    +0.001 C 
BRANCH  23  24
ATOM     24  C   UNL     1      -5.812  20.192  69.394  0.00  0.00    +0.012 C 
BRANCH  24  25
ATOM     25  C   UNL     1      -4.611  20.116  70.188  0.00  0.00    +0.114 C 
BRANCH  25  26
ATOM     26  C   UNL     1      -4.451  20.856  71.415  0.00  0.00    +0.365 C 
ATOM     27  O   UNL     1      -3.759  20.150  72.413  0.00  0.00    -0.246 OA
ATOM     28  O   UNL     1      -4.547  22.068  71.652  0.00  0.00    -0.246 OA
ENDBRANCH  25  26
ENDBRANCH  24  25
ENDBRANCH  23  24
ENDBRANCH   1  23
TORSDOF 4
ENDMDL
MODEL 4
REMARK VINA RESULT:      -7.3      5.320      8.329
REMARK  Name = 
REMARK  4 active torsions:
REMARK  status: ('A' for Active; 'I' for Inactive)
REMARK    1  A    between atoms: C_2  and  C_3
REMARK    2  A    between atoms: C_2  and  C_8
REMARK    3  A    between atoms: C_3  and  C_4
REMARK    4  A    between atoms: C_4  and  C_5
REMARK                            x       y       z     vdW  Elec       q    Type
REMARK                         _______ _______ _______ _____ _____    ______ ____
ROOT
ATOM      1  C   UNL     1     -10.774  11.247  66.600  0.00  0.00    +0.002 C 
ATOM      2  C   UNL     1      -9.812  10.462  67.591  0.00  0.00    +0.028 C 
ATOM      3  C   UNL     1     -10.605   9.118  67.165  0.00  0.00    +0.002 C 
ATOM      4  C   UNL     1      -9.468   8.103  67.884  0.00  0.00    +0.000 C 
ATOM      5  C   UNL     1     -10.283   8.306  69.350  0.00  0.00    +0.003 C 
ATOM      6  C   UNL     1      -9.406   9.593  69.753  0.00  0.00    +0.033 C 
ATOM      7  C   UNL     1      -9.361   7.220  70.081  0.00  0.00    +0.000 C 
ATOM      8  C   UNL     1     -10.276   5.872  69.946  0.00  0.00    +0.003 C 
ATOM      9  C   UNL     1     -11.402   6.472  70.964  0.00  0.00    +0.033 C 
ATOM     10  C   UNL     1     -10.942   5.786  72.391  0.00  0.00    +0.152 C 
ATOM     11  C   UNL     1      -9.350   6.162  72.204  0.00  0.00    +0.033 C 
ATOM     12  O   UNL     1     -11.174   7.077  73.157  0.00  0.00    -0.223 OA
ATOM     13  C   UNL     1     -11.123   6.304  68.622  0.00  0.00    +0.000 C 
ATOM     14  C   UNL     1      -8.068   6.988  69.479  0.00  0.00    +0.000 C 
ATOM     15  C   UNL     1      -9.308   7.542  71.560  0.00  0.00    +0.003 C 
ATOM     16  C   UNL     1     -10.237   6.742  67.550  0.00  0.00    +0.000 C 
ATOM     17  C   UNL     1      -9.835   9.165  65.741  0.00  0.00    +0.000 C 
ATOM     18  C   UNL     1      -8.497  10.184  67.374  0.00  0.00    +0.003 C 
ATOM     19  C   UNL     1     -10.273  10.847  69.092  0.00  0.00    +0.152 C 
ATOM     20  O   UNL     1     -11.624  10.141  69.006  0.00  0.00    -0.223 OA
ATOM     21  C   UNL     1      -9.946  10.612  65.352  0.00  0.00    +0.000 C 
ENDROOT
BRANCH   1  23
ATOM     22  C   UNL     1     -11.382  13.563  67.332  0.00  0.00    +0.000 C 
ATOM     23  C   UNL     1     -10.118  12.821  66.614  0.00  0.00    +0.001 C 
BRANCH  23  24
ATOM     24  C   UNL     1     -10.543  13.365  65.166  0.00  0.00    +0.012 C 
BRANCH  24  25
ATOM     25  C   UNL     1     -10.548  14.806  65.105  0.00  0.00    +0.114 C 
BRANCH  25  26
ATOM     26  C   UNL     1     -11.473  15.539  64.276  0.00  0.00    +0.365 C 
ATOM     27  O   UNL     1     -12.670  14.850  64.023  0.00  0.00    -0.246 OA
ATOM     28  O   UNL     1     -11.533  16.743  63.995  0.00  0.00    -0.246 OA
ENDBRANCH  25  26
ENDBRANCH  24  25
ENDBRANCH  23  24
ENDBRANCH   1  23
TORSDOF 4
ENDMDL
MODEL 5
REMARK VINA RESULT:      -7.3      1.603      2.323
REMARK  Name = 
REMARK  4 active torsions:
REMARK  status: ('A' for Active; 'I' for Inactive)
REMARK    1  A    between atoms: C_2  and  C_3
REMARK    2  A    between atoms: C_2  and  C_8
REMARK    3  A    between atoms: C_3  and  C_4
REMARK    4  A    between atoms: C_4  and  C_5
REMARK                            x       y       z     vdW  Elec       q    Type
REMARK                         _______ _______ _______ _____ _____    ______ ____
ROOT
ATOM      1  C   UNL     1      -8.639  17.248  68.379  0.00  0.00    +0.002 C 
ATOM      2  C   UNL     1      -9.512  16.653  67.193  0.00  0.00    +0.028 C 
ATOM      3  C   UNL     1      -9.972  15.493  68.222  0.00  0.00    +0.002 C 
ATOM      4  C   UNL     1     -11.200  14.943  67.208  0.00  0.00    +0.000 C 
ATOM      5  C   UNL     1     -10.051  13.996  66.409  0.00  0.00    +0.003 C 
ATOM      6  C   UNL     1      -9.695  15.165  65.363  0.00  0.00    +0.033 C 
ATOM      7  C   UNL     1     -11.175  13.286  65.514  0.00  0.00    +0.000 C 
ATOM      8  C   UNL     1     -11.462  11.925  66.372  0.00  0.00    +0.003 C 
ATOM      9  C   UNL     1      -9.978  11.336  66.035  0.00  0.00    +0.033 C 
ATOM     10  C   UNL     1     -10.305  10.364  64.744  0.00  0.00    +0.152 C 
ATOM     11  C   UNL     1     -11.219  11.490  63.965  0.00  0.00    +0.033 C 
ATOM     12  O   UNL     1      -9.066  10.831  63.999  0.00  0.00    -0.223 OA
ATOM     13  C   UNL     1     -11.002  12.476  67.836  0.00  0.00    +0.000 C 
ATOM     14  C   UNL     1     -12.406  14.024  65.352  0.00  0.00    +0.000 C 
ATOM     15  C   UNL     1     -10.546  12.834  64.213  0.00  0.00    +0.003 C 
ATOM     16  C   UNL     1     -11.659  13.738  68.153  0.00  0.00    +0.000 C 
ATOM     17  C   UNL     1     -10.912  16.583  68.965  0.00  0.00    +0.000 C 
ATOM     18  C   UNL     1     -10.672  17.181  66.712  0.00  0.00    +0.003 C 
ATOM     19  C   UNL     1      -8.480  15.991  66.139  0.00  0.00    +0.152 C 
ATOM     20  O   UNL     1      -8.032  14.869  67.073  0.00  0.00    -0.223 OA
ATOM     21  C   UNL     1     -10.010  17.780  69.073  0.00  0.00    +0.000 C 
ENDROOT
BRANCH   1  23
ATOM     22  C   UNL     1      -6.539  18.208  67.411  0.00  0.00    +0.000 C 
ATOM     23  C   UNL     1      -8.061  18.710  67.718  0.00  0.00    +0.001 C 
BRANCH  23  24
ATOM     24  C   UNL     1      -7.600  19.504  69.033  0.00  0.00    +0.012 C 
BRANCH  24  25
ATOM     25  C   UNL     1      -6.283  20.073  68.892  0.00  0.00    +0.114 C 
BRANCH  25  26
ATOM     26  C   UNL     1      -5.591  20.699  69.993  0.00  0.00    +0.365 C 
ATOM     27  O   UNL     1      -6.193  20.467  71.240  0.00  0.00    -0.246 OA
ATOM     28  O   UNL     1      -4.439  21.145  70.081  0.00  0.00    -0.246 OA
ENDBRANCH  25  26
ENDBRANCH  24  25
ENDBRANCH  23  24
ENDBRANCH   1  23
TORSDOF 4
ENDMDL
MODEL 6
REMARK VINA RESULT:      -7.1      2.782      7.297
REMARK  Name = 
REMARK  4 active torsions:
REMARK  status: ('A' for Active; 'I' for Inactive)
REMARK    1  A    between atoms: C_2  and  C_3
REMARK    2  A    between atoms: C_2  and  C_8
REMARK    3  A    between atoms: C_3  and  C_4
REMARK    4  A    between atoms: C_4  and  C_5
REMARK                            x       y       z     vdW  Elec       q    Type
REMARK                         _______ _______ _______ _____ _____    ______ ____
ROOT
ATOM      1  C   UNL     1     -10.653  14.777  67.473  0.00  0.00    +0.002 C 
ATOM      2  C   UNL     1      -9.311  15.502  67.917  0.00  0.00    +0.028 C 
ATOM      3  C   UNL     1     -10.099  16.901  67.726  0.00  0.00    +0.002 C 
ATOM      4  C   UNL     1      -8.899  17.796  68.498  0.00  0.00    +0.000 C 
ATOM      5  C   UNL     1      -8.077  17.878  67.025  0.00  0.00    +0.003 C 
ATOM      6  C   UNL     1      -7.264  16.520  67.310  0.00  0.00    +0.033 C 
ATOM      7  C   UNL     1      -6.980  18.878  67.627  0.00  0.00    +0.000 C 
ATOM      8  C   UNL     1      -7.585  20.330  67.184  0.00  0.00    +0.003 C 
ATOM      9  C   UNL     1      -7.304  20.025  65.606  0.00  0.00    +0.033 C 
ATOM     10  C   UNL     1      -5.853  20.776  65.387  0.00  0.00    +0.152 C 
ATOM     11  C   UNL     1      -5.174  20.139  66.744  0.00  0.00    +0.033 C 
ATOM     12  O   UNL     1      -5.312  19.626  64.556  0.00  0.00    -0.223 OA
ATOM     13  C   UNL     1      -9.154  19.899  67.074  0.00  0.00    +0.000 C 
ATOM     14  C   UNL     1      -6.817  18.840  69.061  0.00  0.00    +0.000 C 
ATOM     15  C   UNL     1      -5.690  18.709  66.851  0.00  0.00    +0.003 C 
ATOM     16  C   UNL     1      -9.598  19.218  68.283  0.00  0.00    +0.000 C 
ATOM     17  C   UNL     1     -10.908  16.584  69.093  0.00  0.00    +0.000 C 
ATOM     18  C   UNL     1      -8.808  15.547  69.182  0.00  0.00    +0.003 C 
ATOM     19  C   UNL     1      -8.271  15.354  66.688  0.00  0.00    +0.152 C 
ATOM     20  O   UNL     1      -9.059  16.250  65.735  0.00  0.00    -0.223 OA
ATOM     21  C   UNL     1     -11.286  15.139  68.927  0.00  0.00    +0.000 C 
ENDROOT
BRANCH   1  23
ATOM     22  C   UNL     1     -10.261  12.690  66.147  0.00  0.00    +0.000 C 
ATOM     23  C   UNL     1     -10.285  13.130  67.718  0.00  0.00    +0.001 C 
BRANCH  23  24
ATOM     24  C   UNL     1     -11.742  12.498  67.938  0.00  0.00    +0.012 C 
BRANCH  24  25
ATOM     25  C   UNL     1     -11.711  11.343  68.800  0.00  0.00    +0.114 C 
BRANCH  25  26
ATOM     26  C   UNL     1     -12.068  11.414  70.196  0.00  0.00    +0.365 C 
ATOM     27  O   UNL     1     -11.632  10.309  70.945  0.00  0.00    -0.246 OA
ATOM     28  O   UNL     1     -12.419  12.372  70.897  0.00  0.00    -0.246 OA
ENDBRANCH  25  26
ENDBRANCH  24  25
ENDBRANCH  23  24
ENDBRANCH   1  23
TORSDOF 4
ENDMDL
MODEL 7
REMARK VINA RESULT:      -7.0      3.903      7.691
REMARK  Name = 
REMARK  4 active torsions:
REMARK  status: ('A' for Active; 'I' for Inactive)
REMARK    1  A    between atoms: C_2  and  C_3
REMARK    2  A    between atoms: C_2  and  C_8
REMARK    3  A    between atoms: C_3  and  C_4
REMARK    4  A    between atoms: C_4  and  C_5
REMARK                            x       y       z     vdW  Elec       q    Type
REMARK                         _______ _______ _______ _____ _____    ______ ____
ROOT
ATOM      1  C   UNL     1     -11.077  12.214  69.618  0.00  0.00    +0.002 C 
ATOM      2  C   UNL     1     -11.367  13.374  68.572  0.00  0.00    +0.028 C 
ATOM      3  C   UNL     1      -9.765  13.495  68.386  0.00  0.00    +0.002 C 
ATOM      4  C   UNL     1      -9.898  14.476  67.023  0.00  0.00    +0.000 C 
ATOM      5  C   UNL     1     -10.037  15.808  68.053  0.00  0.00    +0.003 C 
ATOM      6  C   UNL     1     -11.638  15.682  68.134  0.00  0.00    +0.033 C 
ATOM      7  C   UNL     1      -9.996  16.836  66.825  0.00  0.00    +0.000 C 
ATOM      8  C   UNL     1      -8.411  17.235  66.787  0.00  0.00    +0.003 C 
ATOM      9  C   UNL     1      -8.522  18.022  68.212  0.00  0.00    +0.033 C 
ATOM     10  C   UNL     1      -8.730  19.577  67.705  0.00  0.00    +0.152 C 
ATOM     11  C   UNL     1      -9.883  19.194  66.594  0.00  0.00    +0.033 C 
ATOM     12  O   UNL     1      -9.801  19.840  68.749  0.00  0.00    -0.223 OA
ATOM     13  C   UNL     1      -7.819  15.885  67.484  0.00  0.00    +0.000 C 
ATOM     14  C   UNL     1     -10.389  16.297  65.544  0.00  0.00    +0.000 C 
ATOM     15  C   UNL     1     -10.735  18.097  67.221  0.00  0.00    +0.003 C 
ATOM     16  C   UNL     1      -8.326  14.687  66.825  0.00  0.00    +0.000 C 
ATOM     17  C   UNL     1      -9.800  12.114  67.541  0.00  0.00    +0.000 C 
ATOM     18  C   UNL     1     -11.860  13.210  67.313  0.00  0.00    +0.003 C 
ATOM     19  C   UNL     1     -11.859  14.658  69.423  0.00  0.00    +0.152 C 
ATOM     20  O   UNL     1     -10.514  14.893  70.106  0.00  0.00    -0.223 OA
ATOM     21  C   UNL     1     -10.693  11.239  68.374  0.00  0.00    +0.000 C 
ENDROOT
BRANCH   1  23
ATOM     22  C   UNL     1     -12.797  12.342  71.432  0.00  0.00    +0.000 C 
ATOM     23  C   UNL     1     -12.641  11.633  69.971  0.00  0.00    +0.001 C 
BRANCH  23  24
ATOM     24  C   UNL     1     -12.319  10.206  70.630  0.00  0.00    +0.012 C 
BRANCH  24  25
ATOM     25  C   UNL     1     -13.173   9.920  71.756  0.00  0.00    +0.114 C 
BRANCH  25  26
ATOM     26  C   UNL     1     -13.929   8.696  71.858  0.00  0.00    +0.365 C 
ATOM     27  O   UNL     1     -13.216   7.558  71.446  0.00  0.00    -0.246 OA
ATOM     28  O   UNL     1     -14.954   8.425  72.497  0.00  0.00    -0.246 OA
ENDBRANCH  25  26
ENDBRANCH  24  25
ENDBRANCH  23  24
ENDBRANCH   1  23
TORSDOF 4
ENDMDL
MODEL 8
REMARK VINA RESULT:      -6.9      1.862      8.404
REMARK  Name = 
REMARK  4 active torsions:
REMARK  status: ('A' for Active; 'I' for Inactive)
REMARK    1  A    between atoms: C_2  and  C_3
REMARK    2  A    between atoms: C_2  and  C_8
REMARK    3  A    between atoms: C_3  and  C_4
REMARK    4  A    between atoms: C_4  and  C_5
REMARK                            x       y       z     vdW  Elec       q    Type
REMARK                         _______ _______ _______ _____ _____    ______ ____
ROOT
ATOM      1  C   UNL     1      -9.201  16.836  66.200  0.00  0.00    +0.002 C 
ATOM      2  C   UNL     1      -8.549  17.389  67.540  0.00  0.00    +0.028 C 
ATOM      3  C   UNL     1      -7.908  18.572  66.644  0.00  0.00    +0.002 C 
ATOM      4  C   UNL     1      -7.445  19.474  67.989  0.00  0.00    +0.000 C 
ATOM      5  C   UNL     1      -6.032  18.551  68.063  0.00  0.00    +0.003 C 
ATOM      6  C   UNL     1      -6.706  17.447  69.020  0.00  0.00    +0.033 C 
ATOM      7  C   UNL     1      -5.428  19.463  69.234  0.00  0.00    +0.000 C 
ATOM      8  C   UNL     1      -4.505  20.512  68.385  0.00  0.00    +0.003 C 
ATOM      9  C   UNL     1      -3.463  19.330  67.959  0.00  0.00    +0.033 C 
ATOM     10  C   UNL     1      -2.286  19.514  69.100  0.00  0.00    +0.152 C 
ATOM     11  C   UNL     1      -3.344  19.614  70.357  0.00  0.00    +0.033 C 
ATOM     12  O   UNL     1      -2.162  18.013  69.303  0.00  0.00    -0.223 OA
ATOM     13  C   UNL     1      -5.308  20.428  66.969  0.00  0.00    +0.000 C 
ATOM     14  C   UNL     1      -6.394  20.196  70.019  0.00  0.00    +0.000 C 
ATOM     15  C   UNL     1      -4.466  18.629  70.054  0.00  0.00    +0.003 C 
ATOM     16  C   UNL     1      -6.737  20.643  67.161  0.00  0.00    +0.000 C 
ATOM     17  C   UNL     1      -9.379  19.244  66.552  0.00  0.00    +0.000 C 
ATOM     18  C   UNL     1      -9.212  18.024  68.547  0.00  0.00    +0.003 C 
ATOM     19  C   UNL     1      -7.357  16.371  67.934  0.00  0.00    +0.152 C 
ATOM     20  O   UNL     1      -6.475  16.726  66.739  0.00  0.00    -0.223 OA
ATOM     21  C   UNL     1     -10.263  18.067  66.252  0.00  0.00    +0.000 C 
ENDROOT
BRANCH   1  23
ATOM     22  C   UNL     1      -9.213  14.337  66.342  0.00  0.00    +0.000 C 
ATOM     23  C   UNL     1     -10.194  15.570  66.764  0.00  0.00    +0.001 C 
BRANCH  23  24
ATOM     24  C   UNL     1     -11.153  15.321  65.503  0.00  0.00    +0.012 C 
BRANCH  24  25
ATOM     25  C   UNL     1     -11.122  13.949  65.058  0.00  0.00    +0.114 C 
BRANCH  25  26
ATOM     26  C   UNL     1     -12.155  13.387  64.222  0.00  0.00    +0.365 C 
ATOM     27  O   UNL     1     -13.033  12.534  64.910  0.00  0.00    -0.246 OA
ATOM     28  O   UNL     1     -12.579  13.732  63.111  0.00  0.00    -0.246 OA
ENDBRANCH  25  26
ENDBRANCH  24  25
ENDBRANCH  23  24
ENDBRANCH   1  23
TORSDOF 4
ENDMDL
MODEL 9
REMARK VINA RESULT:      -6.8      2.628      3.885
REMARK  Name = 
REMARK  4 active torsions:
REMARK  status: ('A' for Active; 'I' for Inactive)
REMARK    1  A    between atoms: C_2  and  C_3
REMARK    2  A    between atoms: C_2  and  C_8
REMARK    3  A    between atoms: C_3  and  C_4
REMARK    4  A    between atoms: C_4  and  C_5
REMARK                            x       y       z     vdW  Elec       q    Type
REMARK                         _______ _______ _______ _____ _____    ______ ____
ROOT
ATOM      1  C   UNL     1      -8.825  16.762  68.589  0.00  0.00    +0.002 C 
ATOM      2  C   UNL     1      -9.310  15.621  67.595  0.00  0.00    +0.028 C 
ATOM      3  C   UNL     1     -10.247  15.084  68.799  0.00  0.00    +0.002 C 
ATOM      4  C   UNL     1     -11.114  14.047  67.792  0.00  0.00    +0.000 C 
ATOM      5  C   UNL     1      -9.900  12.894  68.012  0.00  0.00    +0.003 C 
ATOM      6  C   UNL     1      -9.052  13.426  66.753  0.00  0.00    +0.033 C 
ATOM      7  C   UNL     1     -10.732  11.781  67.215  0.00  0.00    +0.000 C 
ATOM      8  C   UNL     1     -11.477  10.994  68.438  0.00  0.00    +0.003 C 
ATOM      9  C   UNL     1     -10.061  10.394  68.984  0.00  0.00    +0.033 C 
ATOM     10  C   UNL     1     -10.053   8.902  68.282  0.00  0.00    +0.152 C 
ATOM     11  C   UNL     1     -10.483   9.460  66.795  0.00  0.00    +0.033 C 
ATOM     12  O   UNL     1      -8.583   9.014  67.916  0.00  0.00    -0.223 OA
ATOM     13  C   UNL     1     -11.477  12.208  69.526  0.00  0.00    +0.000 C 
ATOM     14  C   UNL     1     -11.722  12.282  66.290  0.00  0.00    +0.000 C 
ATOM     15  C   UNL     1      -9.762  10.788  66.609  0.00  0.00    +0.003 C 
ATOM     16  C   UNL     1     -12.027  13.429  68.950  0.00  0.00    +0.000 C 
ATOM     17  C   UNL     1     -11.229  16.346  68.542  0.00  0.00    +0.000 C 
ATOM     18  C   UNL     1     -10.151  15.789  66.537  0.00  0.00    +0.003 C 
ATOM     19  C   UNL     1      -8.078  14.587  67.434  0.00  0.00    +0.152 C 
ATOM     20  O   UNL     1      -8.133  14.084  68.874  0.00  0.00    -0.223 OA
ATOM     21  C   UNL     1     -10.267  17.491  68.397  0.00  0.00    +0.000 C 
ENDROOT
BRANCH   1  23
ATOM     22  C   UNL     1      -6.429  17.420  68.285  0.00  0.00    +0.000 C 
ATOM     23  C   UNL     1      -7.864  17.748  67.583  0.00  0.00    +0.001 C 
BRANCH  23  24
ATOM     24  C   UNL     1      -7.970  19.169  68.320  0.00  0.00    +0.012 C 
BRANCH  24  25
ATOM     25  C   UNL     1      -7.971  20.268  67.387  0.00  0.00    +0.114 C 
BRANCH  25  26
ATOM     26  C   UNL     1      -6.754  20.816  66.840  0.00  0.00    +0.365 C 
ATOM     27  O   UNL     1      -6.514  20.438  65.510  0.00  0.00    -0.246 OA
ATOM     28  O   UNL     1      -6.051  21.765  67.213  0.00  0.00    -0.246 OA
ENDBRANCH  25  26
ENDBRANCH  24  25
ENDBRANCH  23  24
ENDBRANCH   1  23
TORSDOF 4
ENDMDL
