MODEL 1
REMARK VINA RESULT:      -6.0      0.000      0.000
REMARK  Name = 
REMARK  6 active torsions:
REMARK  status: ('A' for Active; 'I' for Inactive)
REMARK    1  A    between atoms: O_2  and  C_3
REMARK    2  A    between atoms: C_6  and  O_7
REMARK    3  A    between atoms: C_9  and  C_10
REMARK    4  A    between atoms: C_10  and  C_12
REMARK    5  A    between atoms: C_12  and  N_13
REMARK    6  A    between atoms: C_14  and  C_16
REMARK                            x       y       z     vdW  Elec       q    Type
REMARK                         _______ _______ _______ _____ _____    ______ ____
ROOT
ATOM      1  C   UNL     1     -12.358  13.608  66.224  0.00  0.00    +0.139 A 
ATOM      2  C   UNL     1     -11.904  14.451  67.234  0.00  0.00    +0.038 A 
ATOM      3  C   UNL     1     -12.057  13.994  68.532  0.00  0.00    +0.046 A 
ATOM      4  C   UNL     1     -11.701  12.650  68.649  0.00  0.00    +0.137 A 
ATOM      5  C   UNL     1     -11.557  11.835  67.529  0.00  0.00    +0.040 A 
ATOM      6  C   UNL     1     -11.783  12.341  66.253  0.00  0.00    +0.040 A 
ENDROOT
BRANCH   3   7
ATOM      7  C   UNL     1     -11.137  14.821  69.633  0.00  0.00    +0.199 C 
ATOM      8  O   UNL     1     -10.859  16.006  68.665  0.00  0.00    -0.216 OA
BRANCH   7   9
ATOM      9  C   UNL     1     -12.504  15.573  70.266  0.00  0.00    +0.153 C 
BRANCH   9  10
ATOM     10  N   UNL     1     -12.167  15.944  71.597  0.00  0.00    -0.201 NA
ATOM     11  C   UNL     1     -13.001  15.797  72.736  0.00  0.00    +0.261 C 
ATOM     12  O   UNL     1     -14.236  15.913  72.497  0.00  0.00    -0.272 OA
BRANCH  11  13
ATOM     13  C   UNL     1     -12.476  15.424  74.085  0.00  0.00    +0.196 C 
ATOM     14  N   UNL     1     -12.449  16.557  74.976  0.00  0.00    -0.121 NA
ENDBRANCH  11  13
ENDBRANCH   9  10
ENDBRANCH   7   9
ENDBRANCH   3   7
BRANCH   4  15
ATOM     15  O   UNL     1     -11.430  12.046  69.867  0.00  0.00    -0.472 OA
ATOM     16  C   UNL     1     -12.195  10.954  70.375  0.00  0.00    +0.252 C 
ENDBRANCH   4  15
BRANCH   1  18
ATOM     17  C   UNL     1     -12.267  14.269  64.260  0.00  0.00    +0.252 C 
ATOM     18  O   UNL     1     -12.585  14.230  64.994  0.00  0.00    -0.471 OA
ENDBRANCH   1  18
TORSDOF 6
ENDMDL
MODEL 2
REMARK VINA RESULT:      -5.8      2.170      3.502
REMARK  Name = 
REMARK  6 active torsions:
REMARK  status: ('A' for Active; 'I' for Inactive)
REMARK    1  A    between atoms: O_2  and  C_3
REMARK    2  A    between atoms: C_6  and  O_7
REMARK    3  A    between atoms: C_9  and  C_10
REMARK    4  A    between atoms: C_10  and  C_12
REMARK    5  A    between atoms: C_12  and  N_13
REMARK    6  A    between atoms: C_14  and  C_16
REMARK                            x       y       z     vdW  Elec       q    Type
REMARK                         _______ _______ _______ _____ _____    ______ ____
ROOT
ATOM      1  C   UNL     1     -10.289  17.688  67.468  0.00  0.00    +0.139 A 
ATOM      2  C   UNL     1     -10.608  16.900  68.569  0.00  0.00    +0.038 A 
ATOM      3  C   UNL     1     -11.470  15.841  68.340  0.00  0.00    +0.046 A 
ATOM      4  C   UNL     1     -11.141  15.155  67.170  0.00  0.00    +0.137 A 
ATOM      5  C   UNL     1     -10.283  15.705  66.221  0.00  0.00    +0.040 A 
ATOM      6  C   UNL     1      -9.739  16.972  66.409  0.00  0.00    +0.040 A 
ENDROOT
BRANCH   3   7
ATOM      7  C   UNL     1     -11.472  14.718  69.558  0.00  0.00    +0.199 C 
ATOM      8  O   UNL     1     -10.422  15.488  70.408  0.00  0.00    -0.216 OA
BRANCH   7   9
ATOM      9  C   UNL     1     -12.756  15.494  70.321  0.00  0.00    +0.153 C 
BRANCH   9  10
ATOM     10  N   UNL     1     -12.287  15.846  71.616  0.00  0.00    -0.201 NA
ATOM     11  C   UNL     1     -13.043  15.792  72.816  0.00  0.00    +0.261 C 
ATOM     12  O   UNL     1     -14.277  16.021  72.667  0.00  0.00    -0.272 OA
BRANCH  11  13
ATOM     13  C   UNL     1     -12.455  15.386  74.129  0.00  0.00    +0.196 C 
ATOM     14  N   UNL     1     -12.459  16.478  75.072  0.00  0.00    -0.121 NA
ENDBRANCH  11  13
ENDBRANCH   9  10
ENDBRANCH   7   9
ENDBRANCH   3   7
BRANCH   4  15
ATOM     15  O   UNL     1     -11.606  13.880  66.889  0.00  0.00    -0.472 OA
ATOM     16  C   UNL     1     -12.359  13.572  65.717  0.00  0.00    +0.252 C 
ENDBRANCH   4  15
BRANCH   1  18
ATOM     17  C   UNL     1      -9.902  19.550  68.296  0.00  0.00    +0.252 C 
ATOM     18  O   UNL     1      -9.783  18.954  67.775  0.00  0.00    -0.471 OA
ENDBRANCH   1  18
TORSDOF 6
ENDMDL
MODEL 3
REMARK VINA RESULT:      -5.7      3.321      6.564
REMARK  Name = 
REMARK  6 active torsions:
REMARK  status: ('A' for Active; 'I' for Inactive)
REMARK    1  A    between atoms: O_2  and  C_3
REMARK    2  A    between atoms: C_6  and  O_7
REMARK    3  A    between atoms: C_9  and  C_10
REMARK    4  A    between atoms: C_10  and  C_12
REMARK    5  A    between atoms: C_12  and  N_13
REMARK    6  A    between atoms: C_14  and  C_16
REMARK                            x       y       z     vdW  Elec       q    Type
REMARK                         _______ _______ _______ _____ _____    ______ ____
ROOT
ATOM      1  C   UNL     1     -12.521  14.337  70.760  0.00  0.00    +0.139 A 
ATOM      2  C   UNL     1     -12.022  13.744  69.605  0.00  0.00    +0.038 A 
ATOM      3  C   UNL     1     -11.879  14.570  68.502  0.00  0.00    +0.046 A 
ATOM      4  C   UNL     1     -11.321  15.800  68.850  0.00  0.00    +0.137 A 
ATOM      5  C   UNL     1     -11.260  16.222  70.176  0.00  0.00    +0.040 A 
ATOM      6  C   UNL     1     -11.775  15.429  71.195  0.00  0.00    +0.040 A 
ENDROOT
BRANCH   3   7
ATOM      7  C   UNL     1     -10.907  13.930  67.323  0.00  0.00    +0.199 C 
ATOM      8  O   UNL     1      -9.864  13.381  68.337  0.00  0.00    -0.216 OA
BRANCH   7   9
ATOM      9  C   UNL     1     -11.777  12.487  67.337  0.00  0.00    +0.153 C 
BRANCH   9  10
ATOM     10  N   UNL     1     -11.865  12.070  65.981  0.00  0.00    -0.201 NA
ATOM     11  C   UNL     1     -12.374  12.844  64.906  0.00  0.00    +0.261 C 
ATOM     12  O   UNL     1     -13.296  13.645  65.230  0.00  0.00    -0.272 OA
BRANCH  11  13
ATOM     13  C   UNL     1     -11.793  12.803  63.529  0.00  0.00    +0.196 C 
ATOM     14  N   UNL     1     -10.531  12.104  63.506  0.00  0.00    -0.121 NA
ENDBRANCH  11  13
ENDBRANCH   9  10
ENDBRANCH   7   9
ENDBRANCH   3   7
BRANCH   4  15
ATOM     15  O   UNL     1     -10.757  16.661  67.921  0.00  0.00    -0.472 OA
ATOM     16  C   UNL     1     -10.181  17.916  68.280  0.00  0.00    +0.252 C 
ENDBRANCH   4  15
BRANCH   1  18
ATOM     17  C   UNL     1     -13.607  13.421  72.271  0.00  0.00    +0.252 C 
ATOM     18  O   UNL     1     -13.046  13.447  71.701  0.00  0.00    -0.471 OA
ENDBRANCH   1  18
TORSDOF 6
ENDMDL
MODEL 4
REMARK VINA RESULT:      -5.5      2.118      3.189
REMARK  Name = 
REMARK  6 active torsions:
REMARK  status: ('A' for Active; 'I' for Inactive)
REMARK    1  A    between atoms: O_2  and  C_3
REMARK    2  A    between atoms: C_6  and  O_7
REMARK    3  A    between atoms: C_9  and  C_10
REMARK    4  A    between atoms: C_10  and  C_12
REMARK    5  A    between atoms: C_12  and  N_13
REMARK    6  A    between atoms: C_14  and  C_16
REMARK                            x       y       z     vdW  Elec       q    Type
REMARK                         _______ _______ _______ _____ _____    ______ ____
ROOT
ATOM      1  C   UNL     1     -11.127  14.307  66.217  0.00  0.00    +0.139 A 
ATOM      2  C   UNL     1     -11.293  15.003  67.410  0.00  0.00    +0.038 A 
ATOM      3  C   UNL     1     -10.139  15.306  68.112  0.00  0.00    +0.046 A 
ATOM      4  C   UNL     1      -9.131  15.771  67.266  0.00  0.00    +0.137 A 
ATOM      5  C   UNL     1      -9.204  15.602  65.886  0.00  0.00    +0.040 A 
ATOM      6  C   UNL     1     -10.286  14.945  65.310  0.00  0.00    +0.040 A 
ENDROOT
BRANCH   3   7
ATOM      7  C   UNL     1     -10.359  16.473  69.267  0.00  0.00    +0.199 C 
ATOM      8  O   UNL     1     -11.200  17.386  68.331  0.00  0.00    -0.216 OA
BRANCH   7   9
ATOM      9  C   UNL     1     -11.733  15.691  69.848  0.00  0.00    +0.153 C 
BRANCH   9  10
ATOM     10  N   UNL     1     -11.807  16.007  71.232  0.00  0.00    -0.201 NA
ATOM     11  C   UNL     1     -12.875  15.670  72.104  0.00  0.00    +0.261 C 
ATOM     12  O   UNL     1     -14.011  15.638  71.551  0.00  0.00    -0.272 OA
BRANCH  11  13
ATOM     13  C   UNL     1     -12.665  15.273  73.530  0.00  0.00    +0.196 C 
ATOM     14  N   UNL     1     -12.584  16.425  74.395  0.00  0.00    -0.121 NA
ENDBRANCH  11  13
ENDBRANCH   9  10
ENDBRANCH   7   9
ENDBRANCH   3   7
BRANCH   4  15
ATOM     15  O   UNL     1      -8.019  16.459  67.728  0.00  0.00    -0.472 OA
ATOM     16  C   UNL     1      -7.040  17.020  66.855  0.00  0.00    +0.252 C 
ENDBRANCH   4  15
BRANCH   1  18
ATOM     17  C   UNL     1     -12.479  12.985  65.364  0.00  0.00    +0.252 C 
ATOM     18  O   UNL     1     -12.271  13.655  65.749  0.00  0.00    -0.471 OA
ENDBRANCH   1  18
TORSDOF 6
ENDMDL
MODEL 5
REMARK VINA RESULT:      -5.4      2.915      5.787
REMARK  Name = 
REMARK  6 active torsions:
REMARK  status: ('A' for Active; 'I' for Inactive)
REMARK    1  A    between atoms: O_2  and  C_3
REMARK    2  A    between atoms: C_6  and  O_7
REMARK    3  A    between atoms: C_9  and  C_10
REMARK    4  A    between atoms: C_10  and  C_12
REMARK    5  A    between atoms: C_12  and  N_13
REMARK    6  A    between atoms: C_14  and  C_16
REMARK                            x       y       z     vdW  Elec       q    Type
REMARK                         _______ _______ _______ _____ _____    ______ ____
ROOT
ATOM      1  C   UNL     1     -12.186  15.225  72.521  0.00  0.00    +0.139 A 
ATOM      2  C   UNL     1     -11.775  15.681  71.273  0.00  0.00    +0.038 A 
ATOM      3  C   UNL     1     -11.263  14.729  70.408  0.00  0.00    +0.046 A 
ATOM      4  C   UNL     1     -12.030  13.564  70.413  0.00  0.00    +0.137 A 
ATOM      5  C   UNL     1     -12.960  13.310  71.417  0.00  0.00    +0.040 A 
ATOM      6  C   UNL     1     -13.139  14.212  72.461  0.00  0.00    +0.040 A 
ENDROOT
BRANCH   3   7
ATOM      7  C   UNL     1     -11.194  15.240  68.833  0.00  0.00    +0.199 C 
ATOM      8  O   UNL     1     -12.398  16.212  68.988  0.00  0.00    -0.216 OA
BRANCH   7   9
ATOM      9  C   UNL     1     -10.086  16.443  69.233  0.00  0.00    +0.153 C 
BRANCH   9  10
ATOM     10  N   UNL     1     -10.573  17.638  68.636  0.00  0.00    -0.201 NA
ATOM     11  C   UNL     1      -9.780  18.645  68.027  0.00  0.00    +0.261 C 
ATOM     12  O   UNL     1      -8.635  18.790  68.542  0.00  0.00    -0.272 OA
BRANCH  11  13
ATOM     13  C   UNL     1     -10.212  19.394  66.807  0.00  0.00    +0.196 C 
ATOM     14  N   UNL     1     -10.513  18.500  65.716  0.00  0.00    -0.121 NA
ENDBRANCH  11  13
ENDBRANCH   9  10
ENDBRANCH   7   9
ENDBRANCH   3   7
BRANCH   4  15
ATOM     15  O   UNL     1     -11.951  12.607  69.413  0.00  0.00    -0.472 OA
ATOM     16  C   UNL     1     -11.678  11.232  69.678  0.00  0.00    +0.252 C 
ENDBRANCH   4  15
BRANCH   1  18
ATOM     17  C   UNL     1     -12.463  16.284  74.283  0.00  0.00    +0.252 C 
ATOM     18  O   UNL     1     -12.298  16.213  73.503  0.00  0.00    -0.471 OA
ENDBRANCH   1  18
TORSDOF 6
ENDMDL
MODEL 6
REMARK VINA RESULT:      -5.4      4.483      6.316
REMARK  Name = 
REMARK  6 active torsions:
REMARK  status: ('A' for Active; 'I' for Inactive)
REMARK    1  A    between atoms: O_2  and  C_3
REMARK    2  A    between atoms: C_6  and  O_7
REMARK    3  A    between atoms: C_9  and  C_10
REMARK    4  A    between atoms: C_10  and  C_12
REMARK    5  A    between atoms: C_12  and  N_13
REMARK    6  A    between atoms: C_14  and  C_16
REMARK                            x       y       z     vdW  Elec       q    Type
REMARK                         _______ _______ _______ _____ _____    ______ ____
ROOT
ATOM      1  C   UNL     1     -10.668  11.156  66.789  0.00  0.00    +0.139 A 
ATOM      2  C   UNL     1     -11.487  11.956  66.000  0.00  0.00    +0.038 A 
ATOM      3  C   UNL     1     -10.930  12.441  64.829  0.00  0.00    +0.046 A 
ATOM      4  C   UNL     1     -10.205  11.455  64.158  0.00  0.00    +0.137 A 
ATOM      5  C   UNL     1      -9.831  10.272  64.789  0.00  0.00    +0.040 A 
ATOM      6  C   UNL     1     -10.159  10.046  66.122  0.00  0.00    +0.040 A 
ENDROOT
BRANCH   3   7
ATOM      7  C   UNL     1     -12.052  13.013  63.753  0.00  0.00    +0.199 C 
ATOM      8  O   UNL     1     -13.238  12.283  64.445  0.00  0.00    -0.216 OA
BRANCH   7   9
ATOM      9  C   UNL     1     -12.283  14.403  64.675  0.00  0.00    +0.153 C 
BRANCH   9  10
ATOM     10  N   UNL     1     -10.983  14.892  64.977  0.00  0.00    -0.201 NA
ATOM     11  C   UNL     1     -10.618  16.258  65.099  0.00  0.00    +0.261 C 
ATOM     12  O   UNL     1     -11.273  17.042  64.355  0.00  0.00    -0.272 OA
BRANCH  11  13
ATOM     13  C   UNL     1      -9.625  16.748  66.104  0.00  0.00    +0.196 C 
ATOM     14  N   UNL     1      -8.632  15.745  66.401  0.00  0.00    -0.121 NA
ENDBRANCH  11  13
ENDBRANCH   9  10
ENDBRANCH   7   9
ENDBRANCH   3   7
BRANCH   4  15
ATOM     15  O   UNL     1      -9.844  11.563  62.824  0.00  0.00    -0.472 OA
ATOM     16  C   UNL     1      -8.859  10.726  62.220  0.00  0.00    +0.252 C 
ENDBRANCH   4  15
BRANCH   1  18
ATOM     17  C   UNL     1     -11.709  11.182  68.584  0.00  0.00    +0.252 C 
ATOM     18  O   UNL     1     -11.074  11.028  68.121  0.00  0.00    -0.471 OA
ENDBRANCH   1  18
TORSDOF 6
ENDMDL
MODEL 7
REMARK VINA RESULT:      -5.3      4.372      6.784
REMARK  Name = 
REMARK  6 active torsions:
REMARK  status: ('A' for Active; 'I' for Inactive)
REMARK    1  A    between atoms: O_2  and  C_3
REMARK    2  A    between atoms: C_6  and  O_7
REMARK    3  A    between atoms: C_9  and  C_10
REMARK    4  A    between atoms: C_10  and  C_12
REMARK    5  A    between atoms: C_12  and  N_13
REMARK    6  A    between atoms: C_14  and  C_16
REMARK                            x       y       z     vdW  Elec       q    Type
REMARK                         _______ _______ _______ _____ _____    ______ ____
ROOT
ATOM      1  C   UNL     1      -8.273  18.176  66.510  0.00  0.00    +0.139 A 
ATOM      2  C   UNL     1      -9.054  17.135  66.019  0.00  0.00    +0.038 A 
ATOM      3  C   UNL     1      -9.760  16.400  66.955  0.00  0.00    +0.046 A 
ATOM      4  C   UNL     1     -10.365  17.224  67.906  0.00  0.00    +0.137 A 
ATOM      5  C   UNL     1      -9.993  18.558  68.054  0.00  0.00    +0.040 A 
ATOM      6  C   UNL     1      -8.988  19.104  67.262  0.00  0.00    +0.040 A 
ENDROOT
BRANCH   3   7
ATOM      7  C   UNL     1     -10.969  15.480  66.295  0.00  0.00    +0.199 C 
ATOM      8  O   UNL     1     -10.575  15.829  64.831  0.00  0.00    -0.216 OA
BRANCH   7   9
ATOM      9  C   UNL     1      -9.984  14.114  66.303  0.00  0.00    +0.153 C 
BRANCH   9  10
ATOM     10  N   UNL     1     -10.484  13.264  65.279  0.00  0.00    -0.201 NA
ATOM     11  C   UNL     1     -11.686  12.512  65.339  0.00  0.00    +0.261 C 
ATOM     12  O   UNL     1     -11.996  12.113  66.497  0.00  0.00    -0.272 OA
BRANCH  11  13
ATOM     13  C   UNL     1     -12.575  12.304  64.155  0.00  0.00    +0.196 C 
ATOM     14  N   UNL     1     -12.540  13.436  63.261  0.00  0.00    -0.121 NA
ENDBRANCH  11  13
ENDBRANCH   9  10
ENDBRANCH   7   9
ENDBRANCH   3   7
BRANCH   4  15
ATOM     15  O   UNL     1     -11.392  16.793  68.732  0.00  0.00    -0.472 OA
ATOM     16  C   UNL     1     -11.158  16.137  69.977  0.00  0.00    +0.252 C 
ENDBRANCH   4  15
BRANCH   1  18
ATOM     17  C   UNL     1      -6.815  19.268  65.517  0.00  0.00    +0.252 C 
ATOM     18  O   UNL     1      -7.271  18.622  65.644  0.00  0.00    -0.471 OA
ENDBRANCH   1  18
TORSDOF 6
ENDMDL
MODEL 8
REMARK VINA RESULT:      -5.3      3.216      4.406
REMARK  Name = 
REMARK  6 active torsions:
REMARK  status: ('A' for Active; 'I' for Inactive)
REMARK    1  A    between atoms: O_2  and  C_3
REMARK    2  A    between atoms: C_6  and  O_7
REMARK    3  A    between atoms: C_9  and  C_10
REMARK    4  A    between atoms: C_10  and  C_12
REMARK    5  A    between atoms: C_12  and  N_13
REMARK    6  A    between atoms: C_14  and  C_16
REMARK                            x       y       z     vdW  Elec       q    Type
REMARK                         _______ _______ _______ _____ _____    ______ ____
ROOT
ATOM      1  C   UNL     1     -12.153  13.335  65.324  0.00  0.00    +0.139 A 
ATOM      2  C   UNL     1     -11.361  14.438  65.627  0.00  0.00    +0.038 A 
ATOM      3  C   UNL     1     -11.408  14.889  66.935  0.00  0.00    +0.046 A 
ATOM      4  C   UNL     1     -11.360  13.831  67.845  0.00  0.00    +0.137 A 
ATOM      5  C   UNL     1     -11.589  12.517  67.445  0.00  0.00    +0.040 A 
ATOM      6  C   UNL     1     -11.891  12.224  66.120  0.00  0.00    +0.040 A 
ENDROOT
BRANCH   3   7
ATOM      7  C   UNL     1     -10.157  15.902  67.327  0.00  0.00    +0.199 C 
ATOM      8  O   UNL     1      -9.088  15.025  66.615  0.00  0.00    -0.216 OA
BRANCH   7   9
ATOM      9  C   UNL     1     -10.420  16.822  65.941  0.00  0.00    +0.153 C 
BRANCH   9  10
ATOM     10  N   UNL     1      -9.636  17.998  66.096  0.00  0.00    -0.201 NA
ATOM     11  C   UNL     1      -9.872  19.035  67.036  0.00  0.00    +0.261 C 
ATOM     12  O   UNL     1     -11.091  19.223  67.311  0.00  0.00    -0.272 OA
BRANCH  11  13
ATOM     13  C   UNL     1      -8.770  19.767  67.732  0.00  0.00    +0.196 C 
ATOM     14  N   UNL     1      -8.045  18.904  68.632  0.00  0.00    -0.121 NA
ENDBRANCH  11  13
ENDBRANCH   9  10
ENDBRANCH   7   9
ENDBRANCH   3   7
BRANCH   4  15
ATOM     15  O   UNL     1     -11.046  14.004  69.184  0.00  0.00    -0.472 OA
ATOM     16  C   UNL     1     -12.031  13.996  70.216  0.00  0.00    +0.252 C 
ENDBRANCH   4  15
BRANCH   1  18
ATOM     17  C   UNL     1     -12.211  12.681  63.357  0.00  0.00    +0.252 C 
ATOM     18  O   UNL     1     -12.423  13.157  63.965  0.00  0.00    -0.471 OA
ENDBRANCH   1  18
TORSDOF 6
ENDMDL
MODEL 9
REMARK VINA RESULT:      -5.3      1.865      2.207
REMARK  Name = 
REMARK  6 active torsions:
REMARK  status: ('A' for Active; 'I' for Inactive)
REMARK    1  A    between atoms: O_2  and  C_3
REMARK    2  A    between atoms: C_6  and  O_7
REMARK    3  A    between atoms: C_9  and  C_10
REMARK    4  A    between atoms: C_10  and  C_12
REMARK    5  A    between atoms: C_12  and  N_13
REMARK    6  A    between atoms: C_14  and  C_16
REMARK                            x       y       z     vdW  Elec       q    Type
REMARK                         _______ _______ _______ _____ _____    ______ ____
ROOT
ATOM      1  C   UNL     1     -11.033  15.160  65.590  0.00  0.00    +0.139 A 
ATOM      2  C   UNL     1     -11.167  15.020  66.968  0.00  0.00    +0.038 A 
ATOM      3  C   UNL     1     -11.901  13.932  67.407  0.00  0.00    +0.046 A 
ATOM      4  C   UNL     1     -11.573  12.773  66.702  0.00  0.00    +0.137 A 
ATOM      5  C   UNL     1     -10.864  12.826  65.505  0.00  0.00    +0.040 A 
ATOM      6  C   UNL     1     -10.475  14.048  64.967  0.00  0.00    +0.040 A 
ENDROOT
BRANCH   3   7
ATOM      7  C   UNL     1     -11.670  13.587  69.011  0.00  0.00    +0.199 C 
ATOM      8  O   UNL     1     -10.170  13.996  68.989  0.00  0.00    -0.216 OA
BRANCH   7   9
ATOM      9  C   UNL     1     -12.154  15.139  69.452  0.00  0.00    +0.153 C 
BRANCH   9  10
ATOM     10  N   UNL     1     -12.958  14.983  70.614  0.00  0.00    -0.201 NA
ATOM     11  C   UNL     1     -12.567  15.296  71.942  0.00  0.00    +0.261 C 
ATOM     12  O   UNL     1     -11.336  15.134  72.176  0.00  0.00    -0.272 OA
BRANCH  11  13
ATOM     13  C   UNL     1     -13.506  15.880  72.949  0.00  0.00    +0.196 C 
ATOM     14  N   UNL     1     -12.816  16.265  74.156  0.00  0.00    -0.121 NA
ENDBRANCH  11  13
ENDBRANCH   9  10
ENDBRANCH   7   9
ENDBRANCH   3   7
BRANCH   4  15
ATOM     15  O   UNL     1     -11.890  11.501  67.156  0.00  0.00    -0.472 OA
ATOM     16  C   UNL     1     -10.930  10.449  67.239  0.00  0.00    +0.252 C 
ENDBRANCH   4  15
BRANCH   1  18
ATOM     17  C   UNL     1     -10.332  17.107  65.441  0.00  0.00    +0.252 C 
ATOM     18  O   UNL     1     -10.673  16.440  65.159  0.00  0.00    -0.471 OA
ENDBRANCH   1  18
TORSDOF 6
ENDMDL
