MODEL 1
REMARK VINA RESULT:      -6.2      0.000      0.000
REMARK  Name = 
REMARK  6 active torsions:
REMARK  status: ('A' for Active; 'I' for Inactive)
REMARK    1  A    between atoms: C_7  and  O_8
REMARK    2  A    between atoms: O_8  and  C_9
REMARK    3  A    between atoms: C_9  and  C_10
REMARK    4  A    between atoms: C_10  and  C_11
REMARK    5  A    between atoms: C_11  and  C_12
REMARK    6  A    between atoms: C_12  and  C_15
REMARK                            x       y       z     vdW  Elec       q    Type
REMARK                         _______ _______ _______ _____ _____    ______ ____
ROOT
ATOM      1  O   UNL     1     -10.480  15.162  69.940  0.00  0.00    -0.476 OA
ENDROOT
BRANCH   1   5
ATOM      2  C   UNL     1     -12.579  16.171  74.202  0.00  0.00    +0.031 C 
ATOM      3  C   UNL     1     -12.545  15.447  72.899  0.00  0.00    -0.019 A 
ATOM      4  C   UNL     1     -11.815  15.867  71.817  0.00  0.00    +0.032 A 
ATOM      5  C   UNL     1     -11.672  15.117  70.653  0.00  0.00    +0.134 A 
ATOM      6  C   UNL     1     -12.339  13.895  70.641  0.00  0.00    +0.012 A 
ATOM      7  C   UNL     1     -11.915  12.823  69.688  0.00  0.00    +0.034 C 
ATOM      8  C   UNL     1     -13.053  13.446  71.748  0.00  0.00    -0.002 A 
ATOM      9  C   UNL     1     -13.181  14.232  72.863  0.00  0.00    -0.004 A 
ENDBRANCH   1   5
BRANCH   1  10
ATOM     10  C   UNL     1     -10.144  16.169  69.017  0.00  0.00    +0.205 C 
BRANCH  10  11
ATOM     11  C   UNL     1     -11.019  15.934  67.792  0.00  0.00    +0.048 C 
BRANCH  11  12
ATOM     12  C   UNL     1     -10.218  15.692  66.549  0.00  0.00    +0.015 C 
BRANCH  12  13
ATOM     13  C   UNL     1     -11.040  14.827  65.601  0.00  0.00    +0.094 C 
ATOM     14  C   UNL     1     -12.147  14.216  66.442  0.00  0.00    +0.011 C 
ATOM     15  C   UNL     1     -10.228  13.691  65.032  0.00  0.00    +0.011 C 
BRANCH  13  16
ATOM     16  C   UNL     1     -11.630  15.640  64.497  0.00  0.00    +0.364 C 
ATOM     17  O   UNL     1     -12.734  15.179  63.796  0.00  0.00    -0.246 OA
ATOM     18  O   UNL     1     -11.226  16.800  64.239  0.00  0.00    -0.246 OA
ENDBRANCH  13  16
ENDBRANCH  12  13
ENDBRANCH  11  12
ENDBRANCH  10  11
ENDBRANCH   1  10
TORSDOF 6
ENDMDL
MODEL 2
REMARK VINA RESULT:      -5.9      1.580      2.891
REMARK  Name = 
REMARK  6 active torsions:
REMARK  status: ('A' for Active; 'I' for Inactive)
REMARK    1  A    between atoms: C_7  and  O_8
REMARK    2  A    between atoms: O_8  and  C_9
REMARK    3  A    between atoms: C_9  and  C_10
REMARK    4  A    between atoms: C_10  and  C_11
REMARK    5  A    between atoms: C_11  and  C_12
REMARK    6  A    between atoms: C_12  and  C_15
REMARK                            x       y       z     vdW  Elec       q    Type
REMARK                         _______ _______ _______ _____ _____    ______ ____
ROOT
ATOM      1  O   UNL     1     -12.267  14.826  69.404  0.00  0.00    -0.476 OA
ENDROOT
BRANCH   1   5
ATOM      2  C   UNL     1     -12.170  10.083  70.445  0.00  0.00    +0.031 C 
ATOM      3  C   UNL     1     -12.369  11.507  70.843  0.00  0.00    -0.019 A 
ATOM      4  C   UNL     1     -11.862  12.568  70.139  0.00  0.00    +0.032 A 
ATOM      5  C   UNL     1     -12.166  13.894  70.431  0.00  0.00    +0.134 A 
ATOM      6  C   UNL     1     -13.021  14.090  71.512  0.00  0.00    +0.012 A 
ATOM      7  C   UNL     1     -13.774  15.376  71.646  0.00  0.00    +0.034 C 
ATOM      8  C   UNL     1     -13.568  13.017  72.209  0.00  0.00    -0.002 A 
ATOM      9  C   UNL     1     -13.219  11.729  71.896  0.00  0.00    -0.004 A 
ENDBRANCH   1   5
BRANCH   1  10
ATOM     10  C   UNL     1     -11.197  15.608  68.933  0.00  0.00    +0.205 C 
BRANCH  10  11
ATOM     11  C   UNL     1     -10.959  15.180  67.490  0.00  0.00    +0.048 C 
BRANCH  11  12
ATOM     12  C   UNL     1     -12.093  14.373  66.935  0.00  0.00    +0.015 C 
BRANCH  12  13
ATOM     13  C   UNL     1     -11.547  13.445  65.855  0.00  0.00    +0.094 C 
ATOM     14  C   UNL     1     -11.470  12.066  66.485  0.00  0.00    +0.011 C 
ATOM     15  C   UNL     1     -10.149  13.830  65.441  0.00  0.00    +0.011 C 
BRANCH  13  16
ATOM     16  C   UNL     1     -12.445  13.410  64.664  0.00  0.00    +0.364 C 
ATOM     17  O   UNL     1     -13.247  12.305  64.419  0.00  0.00    -0.246 OA
ATOM     18  O   UNL     1     -12.590  14.406  63.912  0.00  0.00    -0.246 OA
ENDBRANCH  13  16
ENDBRANCH  12  13
ENDBRANCH  11  12
ENDBRANCH  10  11
ENDBRANCH   1  10
TORSDOF 6
ENDMDL
MODEL 3
REMARK VINA RESULT:      -5.7      2.000      7.044
REMARK  Name = 
REMARK  6 active torsions:
REMARK  status: ('A' for Active; 'I' for Inactive)
REMARK    1  A    between atoms: C_7  and  O_8
REMARK    2  A    between atoms: O_8  and  C_9
REMARK    3  A    between atoms: C_9  and  C_10
REMARK    4  A    between atoms: C_10  and  C_11
REMARK    5  A    between atoms: C_11  and  C_12
REMARK    6  A    between atoms: C_12  and  C_15
REMARK                            x       y       z     vdW  Elec       q    Type
REMARK                         _______ _______ _______ _____ _____    ______ ____
ROOT
ATOM      1  O   UNL     1     -12.268  13.775  68.155  0.00  0.00    -0.476 OA
ENDROOT
BRANCH   1   5
ATOM      2  C   UNL     1     -11.176  11.542  63.983  0.00  0.00    +0.031 C 
ATOM      3  C   UNL     1     -11.247  12.765  64.833  0.00  0.00    -0.019 A 
ATOM      4  C   UNL     1     -12.064  12.881  65.928  0.00  0.00    +0.032 A 
ATOM      5  C   UNL     1     -12.025  13.964  66.800  0.00  0.00    +0.134 A 
ATOM      6  C   UNL     1     -11.099  14.955  66.484  0.00  0.00    +0.012 A 
ATOM      7  C   UNL     1     -10.639  15.911  67.539  0.00  0.00    +0.034 C 
ATOM      8  C   UNL     1     -10.242  14.829  65.395  0.00  0.00    -0.002 A 
ATOM      9  C   UNL     1     -10.336  13.752  64.554  0.00  0.00    -0.004 A 
ENDBRANCH   1   5
BRANCH   1  10
ATOM     10  C   UNL     1     -11.715  12.734  68.923  0.00  0.00    +0.205 C 
BRANCH  10  11
ATOM     11  C   UNL     1     -12.102  13.019  70.369  0.00  0.00    +0.048 C 
BRANCH  11  12
ATOM     12  C   UNL     1     -12.505  14.446  70.586  0.00  0.00    +0.015 C 
BRANCH  12  13
ATOM     13  C   UNL     1     -13.297  14.535  71.887  0.00  0.00    +0.094 C 
ATOM     14  C   UNL     1     -13.594  13.103  72.296  0.00  0.00    +0.011 C 
ATOM     15  C   UNL     1     -14.620  15.231  71.691  0.00  0.00    +0.011 C 
BRANCH  13  16
ATOM     16  C   UNL     1     -12.510  15.217  72.956  0.00  0.00    +0.364 C 
ATOM     17  O   UNL     1     -11.947  16.464  72.728  0.00  0.00    -0.246 OA
ATOM     18  O   UNL     1     -12.422  14.747  74.117  0.00  0.00    -0.246 OA
ENDBRANCH  13  16
ENDBRANCH  12  13
ENDBRANCH  11  12
ENDBRANCH  10  11
ENDBRANCH   1  10
TORSDOF 6
ENDMDL
MODEL 4
REMARK VINA RESULT:      -5.7      1.326      1.667
REMARK  Name = 
REMARK  6 active torsions:
REMARK  status: ('A' for Active; 'I' for Inactive)
REMARK    1  A    between atoms: C_7  and  O_8
REMARK    2  A    between atoms: O_8  and  C_9
REMARK    3  A    between atoms: C_9  and  C_10
REMARK    4  A    between atoms: C_10  and  C_11
REMARK    5  A    between atoms: C_11  and  C_12
REMARK    6  A    between atoms: C_12  and  C_15
REMARK                            x       y       z     vdW  Elec       q    Type
REMARK                         _______ _______ _______ _____ _____    ______ ____
ROOT
ATOM      1  O   UNL     1     -10.849  14.234  69.339  0.00  0.00    -0.476 OA
ENDROOT
BRANCH   1   5
ATOM      2  C   UNL     1     -13.468  15.901  73.074  0.00  0.00    +0.031 C 
ATOM      3  C   UNL     1     -13.149  14.850  72.065  0.00  0.00    -0.019 A 
ATOM      4  C   UNL     1     -12.464  15.098  70.903  0.00  0.00    +0.032 A 
ATOM      5  C   UNL     1     -12.045  14.095  70.034  0.00  0.00    +0.134 A 
ATOM      6  C   UNL     1     -12.380  12.797  70.410  0.00  0.00    +0.012 A 
ATOM      7  C   UNL     1     -11.625  11.637  69.841  0.00  0.00    +0.034 C 
ATOM      8  C   UNL     1     -13.043  12.534  71.604  0.00  0.00    -0.002 A 
ATOM      9  C   UNL     1     -13.454  13.560  72.415  0.00  0.00    -0.004 A 
ENDBRANCH   1   5
BRANCH   1  10
ATOM     10  C   UNL     1     -10.663  15.094  68.243  0.00  0.00    +0.205 C 
BRANCH  10  11
ATOM     11  C   UNL     1     -11.535  14.549  67.119  0.00  0.00    +0.048 C 
BRANCH  11  12
ATOM     12  C   UNL     1     -10.785  14.397  65.830  0.00  0.00    +0.015 C 
BRANCH  12  13
ATOM     13  C   UNL     1     -11.239  13.109  65.152  0.00  0.00    +0.094 C 
ATOM     14  C   UNL     1     -11.891  12.270  66.237  0.00  0.00    +0.011 C 
ATOM     15  C   UNL     1     -10.074  12.320  64.612  0.00  0.00    +0.011 C 
BRANCH  13  16
ATOM     16  C   UNL     1     -12.222  13.386  64.064  0.00  0.00    +0.364 C 
ATOM     17  O   UNL     1     -12.835  12.342  63.387  0.00  0.00    -0.246 OA
ATOM     18  O   UNL     1     -12.608  14.551  63.798  0.00  0.00    -0.246 OA
ENDBRANCH  13  16
ENDBRANCH  12  13
ENDBRANCH  11  12
ENDBRANCH  10  11
ENDBRANCH   1  10
TORSDOF 6
ENDMDL
MODEL 5
REMARK VINA RESULT:      -5.7      1.367      2.602
REMARK  Name = 
REMARK  6 active torsions:
REMARK  status: ('A' for Active; 'I' for Inactive)
REMARK    1  A    between atoms: C_7  and  O_8
REMARK    2  A    between atoms: O_8  and  C_9
REMARK    3  A    between atoms: C_9  and  C_10
REMARK    4  A    between atoms: C_10  and  C_11
REMARK    5  A    between atoms: C_11  and  C_12
REMARK    6  A    between atoms: C_12  and  C_15
REMARK                            x       y       z     vdW  Elec       q    Type
REMARK                         _______ _______ _______ _____ _____    ______ ____
ROOT
ATOM      1  O   UNL     1     -12.039  13.362  68.360  0.00  0.00    -0.476 OA
ENDROOT
BRANCH   1   5
ATOM      2  C   UNL     1     -13.318  14.494  72.907  0.00  0.00    +0.031 C 
ATOM      3  C   UNL     1     -12.453  14.678  71.706  0.00  0.00    -0.019 A 
ATOM      4  C   UNL     1     -12.305  13.731  70.726  0.00  0.00    +0.032 A 
ATOM      5  C   UNL     1     -11.613  13.960  69.540  0.00  0.00    +0.134 A 
ATOM      6  C   UNL     1     -11.051  15.227  69.409  0.00  0.00    +0.012 A 
ATOM      7  C   UNL     1     -10.694  15.748  68.052  0.00  0.00    +0.034 C 
ATOM      8  C   UNL     1     -11.226  16.204  70.383  0.00  0.00    -0.002 A 
ATOM      9  C   UNL     1     -11.899  15.922  71.543  0.00  0.00    -0.004 A 
ENDBRANCH   1   5
BRANCH   1  10
ATOM     10  C   UNL     1     -11.644  12.082  67.930  0.00  0.00    +0.205 C 
BRANCH  10  11
ATOM     11  C   UNL     1     -11.751  12.091  66.411  0.00  0.00    +0.048 C 
BRANCH  11  12
ATOM     12  C   UNL     1     -12.315  13.374  65.880  0.00  0.00    +0.015 C 
BRANCH  12  13
ATOM     13  C   UNL     1     -11.492  13.803  64.670  0.00  0.00    +0.094 C 
ATOM     14  C   UNL     1     -11.988  12.964  63.506  0.00  0.00    +0.011 C 
ATOM     15  C   UNL     1     -10.027  13.501  64.852  0.00  0.00    +0.011 C 
BRANCH  13  16
ATOM     16  C   UNL     1     -11.685  15.253  64.369  0.00  0.00    +0.364 C 
ATOM     17  O   UNL     1     -12.903  15.717  63.896  0.00  0.00    -0.246 OA
ATOM     18  O   UNL     1     -10.804  16.108  64.631  0.00  0.00    -0.246 OA
ENDBRANCH  13  16
ENDBRANCH  12  13
ENDBRANCH  11  12
ENDBRANCH  10  11
ENDBRANCH   1  10
TORSDOF 6
ENDMDL
MODEL 6
REMARK VINA RESULT:      -5.7      1.884      3.129
REMARK  Name = 
REMARK  6 active torsions:
REMARK  status: ('A' for Active; 'I' for Inactive)
REMARK    1  A    between atoms: C_7  and  O_8
REMARK    2  A    between atoms: O_8  and  C_9
REMARK    3  A    between atoms: C_9  and  C_10
REMARK    4  A    between atoms: C_10  and  C_11
REMARK    5  A    between atoms: C_11  and  C_12
REMARK    6  A    between atoms: C_12  and  C_15
REMARK                            x       y       z     vdW  Elec       q    Type
REMARK                         _______ _______ _______ _____ _____    ______ ____
ROOT
ATOM      1  O   UNL     1     -11.987  13.234  68.478  0.00  0.00    -0.476 OA
ENDROOT
BRANCH   1   5
ATOM      2  C   UNL     1     -13.260  14.527  72.984  0.00  0.00    +0.031 C 
ATOM      3  C   UNL     1     -12.427  14.699  71.759  0.00  0.00    -0.019 A 
ATOM      4  C   UNL     1     -12.237  13.712  70.826  0.00  0.00    +0.032 A 
ATOM      5  C   UNL     1     -11.579  13.918  69.618  0.00  0.00    +0.134 A 
ATOM      6  C   UNL     1     -11.097  15.208  69.410  0.00  0.00    +0.012 A 
ATOM      7  C   UNL     1     -10.794  15.676  68.021  0.00  0.00    +0.034 C 
ATOM      8  C   UNL     1     -11.316  16.223  70.335  0.00  0.00    -0.002 A 
ATOM      9  C   UNL     1     -11.952  15.963  71.521  0.00  0.00    -0.004 A 
ENDBRANCH   1   5
BRANCH   1  10
ATOM     10  C   UNL     1     -11.510  11.967  68.100  0.00  0.00    +0.205 C 
BRANCH  10  11
ATOM     11  C   UNL     1     -11.485  11.957  66.577  0.00  0.00    +0.048 C 
BRANCH  11  12
ATOM     12  C   UNL     1     -12.329  13.042  65.981  0.00  0.00    +0.015 C 
BRANCH  12  13
ATOM     13  C   UNL     1     -11.670  13.518  64.690  0.00  0.00    +0.094 C 
ATOM     14  C   UNL     1     -10.209  13.754  65.027  0.00  0.00    +0.011 C 
ATOM     15  C   UNL     1     -12.243  14.831  64.220  0.00  0.00    +0.011 C 
BRANCH  13  16
ATOM     16  C   UNL     1     -11.784  12.491  63.613  0.00  0.00    +0.364 C 
ATOM     17  O   UNL     1     -10.648  11.893  63.087  0.00  0.00    -0.246 OA
ATOM     18  O   UNL     1     -12.897  12.057  63.224  0.00  0.00    -0.246 OA
ENDBRANCH  13  16
ENDBRANCH  12  13
ENDBRANCH  11  12
ENDBRANCH  10  11
ENDBRANCH   1  10
TORSDOF 6
ENDMDL
MODEL 7
REMARK VINA RESULT:      -5.7      2.660      4.637
REMARK  Name = 
REMARK  6 active torsions:
REMARK  status: ('A' for Active; 'I' for Inactive)
REMARK    1  A    between atoms: C_7  and  O_8
REMARK    2  A    between atoms: O_8  and  C_9
REMARK    3  A    between atoms: C_9  and  C_10
REMARK    4  A    between atoms: C_10  and  C_11
REMARK    5  A    between atoms: C_11  and  C_12
REMARK    6  A    between atoms: C_12  and  C_15
REMARK                            x       y       z     vdW  Elec       q    Type
REMARK                         _______ _______ _______ _____ _____    ______ ____
ROOT
ATOM      1  O   UNL     1     -10.542  16.066  69.247  0.00  0.00    -0.476 OA
ENDROOT
BRANCH   1   5
ATOM      2  C   UNL     1     -10.531  19.692  66.015  0.00  0.00    +0.031 C 
ATOM      3  C   UNL     1      -9.838  18.823  67.010  0.00  0.00    -0.019 A 
ATOM      4  C   UNL     1     -10.493  18.119  67.987  0.00  0.00    +0.032 A 
ATOM      5  C   UNL     1      -9.862  17.201  68.821  0.00  0.00    +0.134 A 
ATOM      6  C   UNL     1      -8.494  17.045  68.615  0.00  0.00    +0.012 A 
ATOM      7  C   UNL     1      -7.802  15.809  69.099  0.00  0.00    +0.034 C 
ATOM      8  C   UNL     1      -7.829  17.729  67.603  0.00  0.00    -0.002 A 
ATOM      9  C   UNL     1      -8.492  18.639  66.822  0.00  0.00    -0.004 A 
ENDBRANCH   1   5
BRANCH   1  10
ATOM     10  C   UNL     1     -11.623  15.484  68.560  0.00  0.00    +0.205 C 
BRANCH  10  11
ATOM     11  C   UNL     1     -11.039  14.350  67.729  0.00  0.00    +0.048 C 
BRANCH  11  12
ATOM     12  C   UNL     1     -11.793  14.124  66.453  0.00  0.00    +0.015 C 
BRANCH  12  13
ATOM     13  C   UNL     1     -10.909  14.546  65.285  0.00  0.00    +0.094 C 
ATOM     14  C   UNL     1     -10.618  13.280  64.498  0.00  0.00    +0.011 C 
ATOM     15  C   UNL     1      -9.588  15.100  65.753  0.00  0.00    +0.011 C 
BRANCH  13  16
ATOM     16  C   UNL     1     -11.602  15.539  64.412  0.00  0.00    +0.364 C 
ATOM     17  O   UNL     1     -12.776  15.199  63.754  0.00  0.00    -0.246 OA
ATOM     18  O   UNL     1     -11.218  16.731  64.327  0.00  0.00    -0.246 OA
ENDBRANCH  13  16
ENDBRANCH  12  13
ENDBRANCH  11  12
ENDBRANCH  10  11
ENDBRANCH   1  10
TORSDOF 6
ENDMDL
MODEL 8
REMARK VINA RESULT:      -5.6      2.948      5.320
REMARK  Name = 
REMARK  6 active torsions:
REMARK  status: ('A' for Active; 'I' for Inactive)
REMARK    1  A    between atoms: C_7  and  O_8
REMARK    2  A    between atoms: O_8  and  C_9
REMARK    3  A    between atoms: C_9  and  C_10
REMARK    4  A    between atoms: C_10  and  C_11
REMARK    5  A    between atoms: C_11  and  C_12
REMARK    6  A    between atoms: C_12  and  C_15
REMARK                            x       y       z     vdW  Elec       q    Type
REMARK                         _______ _______ _______ _____ _____    ______ ____
ROOT
ATOM      1  O   UNL     1     -10.551  17.896  68.383  0.00  0.00    -0.476 OA
ENDROOT
BRANCH   1   5
ATOM      2  C   UNL     1      -6.262  19.730  69.735  0.00  0.00    +0.031 C 
ATOM      3  C   UNL     1      -7.302  19.457  68.701  0.00  0.00    -0.019 A 
ATOM      4  C   UNL     1      -8.257  18.482  68.825  0.00  0.00    +0.032 A 
ATOM      5  C   UNL     1      -9.309  18.324  67.928  0.00  0.00    +0.134 A 
ATOM      6  C   UNL     1      -9.330  19.222  66.864  0.00  0.00    +0.012 A 
ATOM      7  C   UNL     1     -10.603  19.460  66.114  0.00  0.00    +0.034 C 
ATOM      8  C   UNL     1      -8.385  20.236  66.750  0.00  0.00    -0.002 A 
ATOM      9  C   UNL     1      -7.355  20.335  67.649  0.00  0.00    -0.004 A 
ENDBRANCH   1   5
BRANCH   1  10
ATOM     10  C   UNL     1     -10.775  16.684  69.060  0.00  0.00    +0.205 C 
BRANCH  10  11
ATOM     11  C   UNL     1     -10.330  15.577  68.113  0.00  0.00    +0.048 C 
BRANCH  11  12
ATOM     12  C   UNL     1     -11.369  15.247  67.085  0.00  0.00    +0.015 C 
BRANCH  12  13
ATOM     13  C   UNL     1     -10.676  15.028  65.745  0.00  0.00    +0.094 C 
ATOM     14  C   UNL     1     -10.526  13.525  65.590  0.00  0.00    +0.011 C 
ATOM     15  C   UNL     1      -9.291  15.623  65.727  0.00  0.00    +0.011 C 
BRANCH  13  16
ATOM     16  C   UNL     1     -11.486  15.576  64.618  0.00  0.00    +0.364 C 
ATOM     17  O   UNL     1     -12.536  14.844  64.085  0.00  0.00    -0.246 OA
ATOM     18  O   UNL     1     -11.323  16.746  64.191  0.00  0.00    -0.246 OA
ENDBRANCH  13  16
ENDBRANCH  12  13
ENDBRANCH  11  12
ENDBRANCH  10  11
ENDBRANCH   1  10
TORSDOF 6
ENDMDL
MODEL 9
REMARK VINA RESULT:      -5.5      2.988      6.930
REMARK  Name = 
REMARK  6 active torsions:
REMARK  status: ('A' for Active; 'I' for Inactive)
REMARK    1  A    between atoms: C_7  and  O_8
REMARK    2  A    between atoms: O_8  and  C_9
REMARK    3  A    between atoms: C_9  and  C_10
REMARK    4  A    between atoms: C_10  and  C_11
REMARK    5  A    between atoms: C_11  and  C_12
REMARK    6  A    between atoms: C_12  and  C_15
REMARK                            x       y       z     vdW  Elec       q    Type
REMARK                         _______ _______ _______ _____ _____    ______ ____
ROOT
ATOM      1  O   UNL     1     -12.082  11.360  68.282  0.00  0.00    -0.476 OA
ENDROOT
BRANCH   1   5
ATOM      2  C   UNL     1     -12.043  13.107  63.751  0.00  0.00    +0.031 C 
ATOM      3  C   UNL     1     -11.453  12.272  64.837  0.00  0.00    -0.019 A 
ATOM      4  C   UNL     1     -11.725  12.457  66.168  0.00  0.00    +0.032 A 
ATOM      5  C   UNL     1     -11.288  11.591  67.165  0.00  0.00    +0.134 A 
ATOM      6  C   UNL     1     -10.527  10.510  66.729  0.00  0.00    +0.012 A 
ATOM      7  C   UNL     1     -10.389   9.297  67.594  0.00  0.00    +0.034 C 
ATOM      8  C   UNL     1     -10.276  10.296  65.377  0.00  0.00    -0.002 A 
ATOM      9  C   UNL     1     -10.712  11.191  64.435  0.00  0.00    -0.004 A 
ENDBRANCH   1   5
BRANCH   1  10
ATOM     10  C   UNL     1     -11.704  11.666  69.602  0.00  0.00    +0.205 C 
BRANCH  10  11
ATOM     11  C   UNL     1     -12.060  13.131  69.820  0.00  0.00    +0.048 C 
BRANCH  11  12
ATOM     12  C   UNL     1     -12.712  13.374  71.147  0.00  0.00    +0.015 C 
BRANCH  12  13
ATOM     13  C   UNL     1     -12.739  14.876  71.408  0.00  0.00    +0.094 C 
ATOM     14  C   UNL     1     -12.427  15.539  70.078  0.00  0.00    +0.011 C 
ATOM     15  C   UNL     1     -11.668  15.294  72.383  0.00  0.00    +0.011 C 
BRANCH  13  16
ATOM     16  C   UNL     1     -14.079  15.318  71.894  0.00  0.00    +0.364 C 
ATOM     17  O   UNL     1     -15.235  14.732  71.401  0.00  0.00    -0.246 OA
ATOM     18  O   UNL     1     -14.206  16.145  72.830  0.00  0.00    -0.246 OA
ENDBRANCH  13  16
ENDBRANCH  12  13
ENDBRANCH  11  12
ENDBRANCH  10  11
ENDBRANCH   1  10
TORSDOF 6
ENDMDL
