MODEL 1
REMARK VINA RESULT:      -5.2      0.000      0.000
REMARK  Name = 
REMARK  7 active torsions:
REMARK  status: ('A' for Active; 'I' for Inactive)
REMARK    1  A    between atoms: C_2  and  C_3
REMARK    2  A    between atoms: C_3  and  N_4
REMARK    3  A    between atoms: N_4  and  C_5
REMARK    4  A    between atoms: C_5  and  C_7
REMARK    5  A    between atoms: N_9  and  C_10
REMARK    6  A    between atoms: C_15  and  C_16
REMARK    7  A    between atoms: C_16  and  O_18
REMARK                            x       y       z     vdW  Elec       q    Type
REMARK                         _______ _______ _______ _____ _____    ______ ____
ROOT
ATOM      1  C   UNL     1     -11.273  13.159  66.127  0.00  0.00    +0.082 A 
ATOM      2  C   UNL     1     -10.780  11.894  66.363  0.00  0.00    +0.120 A 
ATOM      3  S   UNL     1     -10.542  11.228  64.802  0.00  0.00    -0.079 S 
ATOM      4  C   UNL     1     -10.852  12.666  63.919  0.00  0.00    +0.033 A 
ATOM      5  C   UNL     1     -11.522  13.435  64.828  0.00  0.00    +0.001 A 
ATOM      6  C   UNL     1     -12.317  14.609  64.326  0.00  0.00    +0.033 C 
ENDROOT
BRANCH   1   8
ATOM      7  C   UNL     1     -11.447  14.884  67.920  0.00  0.00    +0.261 C 
ATOM      8  N   UNL     1     -11.983  13.806  67.200  0.00  0.00    -0.178 NA
ATOM      9  O   UNL     1     -10.711  15.667  67.337  0.00  0.00    -0.271 OA
BRANCH   7  10
ATOM     10  C   UNL     1     -11.282  14.680  69.509  0.00  0.00    +0.151 C 
ATOM     11  C   UNL     1      -9.861  15.509  69.574  0.00  0.00    +0.029 C 
BRANCH  10  12
ATOM     12  N   UNL     1     -12.124  15.974  69.830  0.00  0.00    -0.210 NA
BRANCH  12  13
ATOM     13  C   UNL     1     -12.819  15.628  71.029  0.00  0.00    +0.089 C 
BRANCH  13  15
ATOM     14  C   UNL     1     -12.414  15.938  73.323  0.00  0.00    +0.002 C 
ATOM     15  C   UNL     1     -12.218  16.006  72.302  0.00  0.00    +0.019 C 
ENDBRANCH  13  15
ENDBRANCH  12  13
ENDBRANCH  10  12
ENDBRANCH   7  10
ENDBRANCH   1   8
BRANCH   2  16
ATOM     16  C   UNL     1     -10.812  11.110  67.607  0.00  0.00    +0.349 C 
ATOM     17  O   UNL     1      -9.758  10.687  68.132  0.00  0.00    -0.244 OA
BRANCH  16  18
ATOM     18  O   UNL     1     -12.000  10.828  68.231  0.00  0.00    -0.441 OA
ATOM     19  C   UNL     1     -12.135  10.897  69.646  0.00  0.00    +0.256 C 
ENDBRANCH  16  18
ENDBRANCH   2  16
TORSDOF 7
ENDMDL
MODEL 2
REMARK VINA RESULT:      -5.2      3.155      4.566
REMARK  Name = 
REMARK  7 active torsions:
REMARK  status: ('A' for Active; 'I' for Inactive)
REMARK    1  A    between atoms: C_2  and  C_3
REMARK    2  A    between atoms: C_3  and  N_4
REMARK    3  A    between atoms: N_4  and  C_5
REMARK    4  A    between atoms: C_5  and  C_7
REMARK    5  A    between atoms: N_9  and  C_10
REMARK    6  A    between atoms: C_15  and  C_16
REMARK    7  A    between atoms: C_16  and  O_18
REMARK                            x       y       z     vdW  Elec       q    Type
REMARK                         _______ _______ _______ _____ _____    ______ ____
ROOT
ATOM      1  C   UNL     1     -11.581  13.507  68.489  0.00  0.00    +0.082 A 
ATOM      2  C   UNL     1     -11.847  13.491  69.842  0.00  0.00    +0.120 A 
ATOM      3  S   UNL     1     -12.113  11.838  70.207  0.00  0.00    -0.079 S 
ATOM      4  C   UNL     1     -11.641  11.214  68.680  0.00  0.00    +0.033 A 
ATOM      5  C   UNL     1     -11.721  12.313  67.872  0.00  0.00    +0.001 A 
ATOM      6  C   UNL     1     -11.775  12.105  66.384  0.00  0.00    +0.033 C 
ENDROOT
BRANCH   1   8
ATOM      7  C   UNL     1     -10.667  15.534  67.361  0.00  0.00    +0.261 C 
ATOM      8  N   UNL     1     -11.750  14.756  67.794  0.00  0.00    -0.178 NA
ATOM      9  O   UNL     1      -9.642  14.965  67.012  0.00  0.00    -0.271 OA
BRANCH   7  10
ATOM     10  C   UNL     1     -10.578  17.034  67.941  0.00  0.00    +0.151 C 
ATOM     11  C   UNL     1      -9.263  16.707  68.877  0.00  0.00    +0.029 C 
BRANCH  10  12
ATOM     12  N   UNL     1      -9.680  17.517  66.739  0.00  0.00    -0.210 NA
BRANCH  12  13
ATOM     13  C   UNL     1     -10.447  18.569  66.154  0.00  0.00    +0.089 C 
BRANCH  13  15
ATOM     14  C   UNL     1      -9.744  20.447  67.379  0.00  0.00    +0.002 C 
ATOM     15  C   UNL     1     -10.170  19.936  66.577  0.00  0.00    +0.019 C 
ENDBRANCH  13  15
ENDBRANCH  12  13
ENDBRANCH  10  12
ENDBRANCH   7  10
ENDBRANCH   1   8
BRANCH   2  16
ATOM     16  C   UNL     1     -12.223  14.609  70.720  0.00  0.00    +0.349 C 
ATOM     17  O   UNL     1     -11.379  15.159  71.464  0.00  0.00    -0.244 OA
BRANCH  16  18
ATOM     18  O   UNL     1     -13.507  15.086  70.741  0.00  0.00    -0.441 OA
ATOM     19  C   UNL     1     -14.392  14.800  71.818  0.00  0.00    +0.256 C 
ENDBRANCH  16  18
ENDBRANCH   2  16
TORSDOF 7
ENDMDL
MODEL 3
REMARK VINA RESULT:      -5.1      2.763      4.453
REMARK  Name = 
REMARK  7 active torsions:
REMARK  status: ('A' for Active; 'I' for Inactive)
REMARK    1  A    between atoms: C_2  and  C_3
REMARK    2  A    between atoms: C_3  and  N_4
REMARK    3  A    between atoms: N_4  and  C_5
REMARK    4  A    between atoms: C_5  and  C_7
REMARK    5  A    between atoms: N_9  and  C_10
REMARK    6  A    between atoms: C_15  and  C_16
REMARK    7  A    between atoms: C_16  and  O_18
REMARK                            x       y       z     vdW  Elec       q    Type
REMARK                         _______ _______ _______ _____ _____    ______ ____
ROOT
ATOM      1  C   UNL     1     -10.612  14.382  67.166  0.00  0.00    +0.082 A 
ATOM      2  C   UNL     1     -11.257  14.330  65.949  0.00  0.00    +0.120 A 
ATOM      3  S   UNL     1     -10.717  15.728  65.117  0.00  0.00    -0.079 S 
ATOM      4  C   UNL     1      -9.517  16.188  66.253  0.00  0.00    +0.033 A 
ATOM      5  C   UNL     1      -9.891  15.506  67.375  0.00  0.00    +0.001 A 
ATOM      6  C   UNL     1      -9.333  15.946  68.701  0.00  0.00    +0.033 C 
ENDROOT
BRANCH   1   8
ATOM      7  C   UNL     1     -10.710  12.336  68.588  0.00  0.00    +0.261 C 
ATOM      8  N   UNL     1     -11.172  13.616  68.248  0.00  0.00    -0.178 NA
ATOM      9  O   UNL     1      -9.524  12.083  68.430  0.00  0.00    -0.271 OA
BRANCH   7  10
ATOM     10  C   UNL     1     -11.786  11.140  68.528  0.00  0.00    +0.151 C 
ATOM     11  C   UNL     1     -10.734  10.087  67.824  0.00  0.00    +0.029 C 
BRANCH  10  12
ATOM     12  N   UNL     1     -11.413  10.641  69.976  0.00  0.00    -0.210 NA
BRANCH  12  13
ATOM     13  C   UNL     1     -12.443  11.198  70.794  0.00  0.00    +0.089 C 
BRANCH  13  15
ATOM     14  C   UNL     1     -13.305   9.334  71.935  0.00  0.00    +0.002 C 
ATOM     15  C   UNL     1     -13.065  10.338  71.791  0.00  0.00    +0.019 C 
ENDBRANCH  13  15
ENDBRANCH  12  13
ENDBRANCH  10  12
ENDBRANCH   7  10
ENDBRANCH   1   8
BRANCH   2  16
ATOM     16  C   UNL     1     -12.429  13.531  65.562  0.00  0.00    +0.349 C 
ATOM     17  O   UNL     1     -13.564  14.051  65.468  0.00  0.00    -0.244 OA
BRANCH  16  18
ATOM     18  O   UNL     1     -12.310  12.194  65.285  0.00  0.00    -0.441 OA
ATOM     19  C   UNL     1     -11.243  11.688  64.490  0.00  0.00    +0.256 C 
ENDBRANCH  16  18
ENDBRANCH   2  16
TORSDOF 7
ENDMDL
MODEL 4
REMARK VINA RESULT:      -5.0      2.423      5.415
REMARK  Name = 
REMARK  7 active torsions:
REMARK  status: ('A' for Active; 'I' for Inactive)
REMARK    1  A    between atoms: C_2  and  C_3
REMARK    2  A    between atoms: C_3  and  N_4
REMARK    3  A    between atoms: N_4  and  C_5
REMARK    4  A    between atoms: C_5  and  C_7
REMARK    5  A    between atoms: N_9  and  C_10
REMARK    6  A    between atoms: C_15  and  C_16
REMARK    7  A    between atoms: C_16  and  O_18
REMARK                            x       y       z     vdW  Elec       q    Type
REMARK                         _______ _______ _______ _____ _____    ______ ____
ROOT
ATOM      1  C   UNL     1     -11.681  14.281  67.956  0.00  0.00    +0.082 A 
ATOM      2  C   UNL     1     -11.788  13.262  68.879  0.00  0.00    +0.120 A 
ATOM      3  S   UNL     1     -11.877  14.063  70.392  0.00  0.00    -0.079 S 
ATOM      4  C   UNL     1     -12.016  15.656  69.771  0.00  0.00    +0.033 A 
ATOM      5  C   UNL     1     -11.563  15.517  68.490  0.00  0.00    +0.001 A 
ATOM      6  C   UNL     1     -11.149  16.752  67.738  0.00  0.00    +0.033 C 
ENDROOT
BRANCH   1   8
ATOM      7  C   UNL     1     -11.967  13.608  65.572  0.00  0.00    +0.261 C 
ATOM      8  N   UNL     1     -11.150  13.949  66.660  0.00  0.00    -0.178 NA
ATOM      9  O   UNL     1     -13.067  14.133  65.481  0.00  0.00    -0.271 OA
BRANCH   7  10
ATOM     10  C   UNL     1     -11.729  12.156  64.918  0.00  0.00    +0.151 C 
ATOM     11  C   UNL     1     -12.076  12.670  63.392  0.00  0.00    +0.029 C 
BRANCH  10  12
ATOM     12  N   UNL     1     -10.188  12.421  64.723  0.00  0.00    -0.210 NA
BRANCH  12  13
ATOM     13  C   UNL     1      -9.638  11.108  64.610  0.00  0.00    +0.089 C 
BRANCH  13  15
ATOM     14  C   UNL     1      -9.825   9.214  65.988  0.00  0.00    +0.002 C 
ATOM     15  C   UNL     1     -10.153  10.071  65.495  0.00  0.00    +0.019 C 
ENDBRANCH  13  15
ENDBRANCH  12  13
ENDBRANCH  10  12
ENDBRANCH   7  10
ENDBRANCH   1   8
BRANCH   2  16
ATOM     16  C   UNL     1     -11.495  11.831  68.709  0.00  0.00    +0.349 C 
ATOM     17  O   UNL     1     -12.355  11.046  68.251  0.00  0.00    -0.244 OA
BRANCH  16  18
ATOM     18  O   UNL     1     -10.267  11.320  69.042  0.00  0.00    -0.441 OA
ATOM     19  C   UNL     1     -10.129  10.023  69.611  0.00  0.00    +0.256 C 
ENDBRANCH  16  18
ENDBRANCH   2  16
TORSDOF 7
ENDMDL
MODEL 5
REMARK VINA RESULT:      -5.0      2.010      3.856
REMARK  Name = 
REMARK  7 active torsions:
REMARK  status: ('A' for Active; 'I' for Inactive)
REMARK    1  A    between atoms: C_2  and  C_3
REMARK    2  A    between atoms: C_3  and  N_4
REMARK    3  A    between atoms: N_4  and  C_5
REMARK    4  A    between atoms: C_5  and  C_7
REMARK    5  A    between atoms: N_9  and  C_10
REMARK    6  A    between atoms: C_15  and  C_16
REMARK    7  A    between atoms: C_16  and  O_18
REMARK                            x       y       z     vdW  Elec       q    Type
REMARK                         _______ _______ _______ _____ _____    ______ ____
ROOT
ATOM      1  C   UNL     1     -10.860  12.032  65.874  0.00  0.00    +0.082 A 
ATOM      2  C   UNL     1     -11.616  12.671  64.914  0.00  0.00    +0.120 A 
ATOM      3  S   UNL     1     -11.180  11.905  63.444  0.00  0.00    -0.079 S 
ATOM      4  C   UNL     1     -10.240  10.651  64.141  0.00  0.00    +0.033 A 
ATOM      5  C   UNL     1      -9.971  11.137  65.389  0.00  0.00    +0.001 A 
ATOM      6  C   UNL     1      -8.844  10.522  66.171  0.00  0.00    +0.033 C 
ENDROOT
BRANCH   1   8
ATOM      7  C   UNL     1     -11.529  12.574  68.214  0.00  0.00    +0.261 C 
ATOM      8  N   UNL     1     -10.658  12.716  67.124  0.00  0.00    -0.178 NA
ATOM      9  O   UNL     1     -12.086  11.498  68.380  0.00  0.00    -0.271 OA
BRANCH   7  10
ATOM     10  C   UNL     1     -12.232  13.917  68.757  0.00  0.00    +0.151 C 
ATOM     11  C   UNL     1     -12.086  13.481  70.338  0.00  0.00    +0.029 C 
BRANCH  10  12
ATOM     12  N   UNL     1     -10.866  14.703  68.782  0.00  0.00    -0.210 NA
BRANCH  12  13
ATOM     13  C   UNL     1     -11.270  16.067  68.897  0.00  0.00    +0.089 C 
BRANCH  13  15
ATOM     14  C   UNL     1      -9.288  17.241  68.432  0.00  0.00    +0.002 C 
ATOM     15  C   UNL     1     -10.239  17.095  68.834  0.00  0.00    +0.019 C 
ENDBRANCH  13  15
ENDBRANCH  12  13
ENDBRANCH  10  12
ENDBRANCH   7  10
ENDBRANCH   1   8
BRANCH   2  16
ATOM     16  C   UNL     1     -12.324  13.957  65.005  0.00  0.00    +0.349 C 
ATOM     17  O   UNL     1     -13.471  14.029  65.501  0.00  0.00    -0.244 OA
BRANCH  16  18
ATOM     18  O   UNL     1     -11.744  15.114  64.556  0.00  0.00    -0.441 OA
ATOM     19  C   UNL     1     -10.643  15.709  65.233  0.00  0.00    +0.256 C 
ENDBRANCH  16  18
ENDBRANCH   2  16
TORSDOF 7
ENDMDL
MODEL 6
REMARK VINA RESULT:      -5.0      3.592      5.540
REMARK  Name = 
REMARK  7 active torsions:
REMARK  status: ('A' for Active; 'I' for Inactive)
REMARK    1  A    between atoms: C_2  and  C_3
REMARK    2  A    between atoms: C_3  and  N_4
REMARK    3  A    between atoms: N_4  and  C_5
REMARK    4  A    between atoms: C_5  and  C_7
REMARK    5  A    between atoms: N_9  and  C_10
REMARK    6  A    between atoms: C_15  and  C_16
REMARK    7  A    between atoms: C_16  and  O_18
REMARK                            x       y       z     vdW  Elec       q    Type
REMARK                         _______ _______ _______ _____ _____    ______ ____
ROOT
ATOM      1  C   UNL     1      -8.355  16.787  67.927  0.00  0.00    +0.082 A 
ATOM      2  C   UNL     1      -8.701  17.426  66.756  0.00  0.00    +0.120 A 
ATOM      3  S   UNL     1      -7.204  17.879  66.056  0.00  0.00    -0.079 S 
ATOM      4  C   UNL     1      -6.200  17.030  67.158  0.00  0.00    +0.033 A 
ATOM      5  C   UNL     1      -7.035  16.814  68.217  0.00  0.00    +0.001 A 
ATOM      6  C   UNL     1      -6.430  16.455  69.546  0.00  0.00    +0.033 C 
ENDROOT
BRANCH   1   8
ATOM      7  C   UNL     1     -10.144  15.527  69.124  0.00  0.00    +0.261 C 
ATOM      8  N   UNL     1      -9.364  16.680  68.949  0.00  0.00    -0.178 NA
ATOM      9  O   UNL     1      -9.641  14.440  68.879  0.00  0.00    -0.271 OA
BRANCH   7  10
ATOM     10  C   UNL     1     -11.738  15.707  68.993  0.00  0.00    +0.151 C 
ATOM     11  C   UNL     1     -12.052  14.133  69.360  0.00  0.00    +0.029 C 
BRANCH  10  12
ATOM     12  N   UNL     1     -11.881  16.152  70.498  0.00  0.00    -0.210 NA
BRANCH  12  13
ATOM     13  C   UNL     1     -13.003  15.401  70.961  0.00  0.00    +0.089 C 
BRANCH  13  15
ATOM     14  C   UNL     1     -13.096  15.756  73.282  0.00  0.00    +0.002 C 
ATOM     15  C   UNL     1     -13.475  15.642  72.318  0.00  0.00    +0.019 C 
ENDBRANCH  13  15
ENDBRANCH  12  13
ENDBRANCH  10  12
ENDBRANCH   7  10
ENDBRANCH   1   8
BRANCH   2  16
ATOM     16  C   UNL     1     -10.007  17.970  66.355  0.00  0.00    +0.349 C 
ATOM     17  O   UNL     1     -10.590  17.561  65.326  0.00  0.00    -0.244 OA
BRANCH  16  18
ATOM     18  O   UNL     1     -10.626  18.937  67.104  0.00  0.00    -0.441 OA
ATOM     19  C   UNL     1      -9.958  20.138  67.472  0.00  0.00    +0.256 C 
ENDBRANCH  16  18
ENDBRANCH   2  16
TORSDOF 7
ENDMDL
MODEL 7
REMARK VINA RESULT:      -5.0      3.079      4.522
REMARK  Name = 
REMARK  7 active torsions:
REMARK  status: ('A' for Active; 'I' for Inactive)
REMARK    1  A    between atoms: C_2  and  C_3
REMARK    2  A    between atoms: C_3  and  N_4
REMARK    3  A    between atoms: N_4  and  C_5
REMARK    4  A    between atoms: C_5  and  C_7
REMARK    5  A    between atoms: N_9  and  C_10
REMARK    6  A    between atoms: C_15  and  C_16
REMARK    7  A    between atoms: C_16  and  O_18
REMARK                            x       y       z     vdW  Elec       q    Type
REMARK                         _______ _______ _______ _____ _____    ______ ____
ROOT
ATOM      1  C   UNL     1     -11.787  13.459  66.812  0.00  0.00    +0.082 A 
ATOM      2  C   UNL     1     -11.618  12.491  65.845  0.00  0.00    +0.120 A 
ATOM      3  S   UNL     1     -11.137  11.095  66.716  0.00  0.00    -0.079 S 
ATOM      4  C   UNL     1     -11.404  11.733  68.285  0.00  0.00    +0.033 A 
ATOM      5  C   UNL     1     -11.430  13.080  68.059  0.00  0.00    +0.001 A 
ATOM      6  C   UNL     1     -11.242  14.007  69.228  0.00  0.00    +0.033 C 
ENDROOT
BRANCH   1   8
ATOM      7  C   UNL     1     -10.562  15.563  66.271  0.00  0.00    +0.261 C 
ATOM      8  N   UNL     1     -11.755  14.834  66.387  0.00  0.00    -0.178 NA
ATOM      9  O   UNL     1      -9.547  14.970  65.937  0.00  0.00    -0.271 OA
BRANCH   7  10
ATOM     10  C   UNL     1     -10.440  16.895  67.167  0.00  0.00    +0.151 C 
ATOM     11  C   UNL     1      -8.946  16.501  67.737  0.00  0.00    +0.029 C 
BRANCH  10  12
ATOM     12  N   UNL     1      -9.834  17.725  65.972  0.00  0.00    -0.210 NA
BRANCH  12  13
ATOM     13  C   UNL     1     -10.553  18.957  66.026  0.00  0.00    +0.089 C 
BRANCH  13  15
ATOM     14  C   UNL     1      -9.153  20.332  67.319  0.00  0.00    +0.002 C 
ATOM     15  C   UNL     1     -10.052  20.004  66.907  0.00  0.00    +0.019 C 
ENDBRANCH  13  15
ENDBRANCH  12  13
ENDBRANCH  10  12
ENDBRANCH   7  10
ENDBRANCH   1   8
BRANCH   2  16
ATOM     16  C   UNL     1     -11.473  12.657  64.391  0.00  0.00    +0.349 C 
ATOM     17  O   UNL     1     -12.467  12.880  63.664  0.00  0.00    -0.244 OA
BRANCH  16  18
ATOM     18  O   UNL     1     -10.242  12.579  63.792  0.00  0.00    -0.441 OA
ATOM     19  C   UNL     1      -9.831  11.419  63.078  0.00  0.00    +0.256 C 
ENDBRANCH  16  18
ENDBRANCH   2  16
TORSDOF 7
ENDMDL
MODEL 8
REMARK VINA RESULT:      -5.0      3.217      6.403
REMARK  Name = 
REMARK  7 active torsions:
REMARK  status: ('A' for Active; 'I' for Inactive)
REMARK    1  A    between atoms: C_2  and  C_3
REMARK    2  A    between atoms: C_3  and  N_4
REMARK    3  A    between atoms: N_4  and  C_5
REMARK    4  A    between atoms: C_5  and  C_7
REMARK    5  A    between atoms: N_9  and  C_10
REMARK    6  A    between atoms: C_15  and  C_16
REMARK    7  A    between atoms: C_16  and  O_18
REMARK                            x       y       z     vdW  Elec       q    Type
REMARK                         _______ _______ _______ _____ _____    ______ ____
ROOT
ATOM      1  C   UNL     1     -11.544  12.053  68.023  0.00  0.00    +0.082 A 
ATOM      2  C   UNL     1     -11.614  12.925  66.957  0.00  0.00    +0.120 A 
ATOM      3  S   UNL     1     -11.945  14.448  67.670  0.00  0.00    -0.079 S 
ATOM      4  C   UNL     1     -11.742  13.956  69.301  0.00  0.00    +0.033 A 
ATOM      5  C   UNL     1     -11.857  12.597  69.219  0.00  0.00    +0.001 A 
ATOM      6  C   UNL     1     -12.137  11.825  70.479  0.00  0.00    +0.033 C 
ENDROOT
BRANCH   1   8
ATOM      7  C   UNL     1     -10.656   9.738  67.758  0.00  0.00    +0.261 C 
ATOM      8  N   UNL     1     -11.721  10.651  67.746  0.00  0.00    -0.178 NA
ATOM      9  O   UNL     1      -9.735   9.925  68.540  0.00  0.00    -0.271 OA
BRANCH   7  10
ATOM     10  C   UNL     1     -10.379   8.934  66.391  0.00  0.00    +0.151 C 
ATOM     11  C   UNL     1      -8.912   9.642  66.149  0.00  0.00    +0.029 C 
BRANCH  10  12
ATOM     12  N   UNL     1      -9.735   7.717  67.157  0.00  0.00    -0.210 NA
BRANCH  12  13
ATOM     13  C   UNL     1     -10.797   6.766  67.222  0.00  0.00    +0.089 C 
BRANCH  13  15
ATOM     14  C   UNL     1     -11.310   6.269  69.461  0.00  0.00    +0.002 C 
ATOM     15  C   UNL     1     -11.015   6.067  68.482  0.00  0.00    +0.019 C 
ENDBRANCH  13  15
ENDBRANCH  12  13
ENDBRANCH  10  12
ENDBRANCH   7  10
ENDBRANCH   1   8
BRANCH   2  16
ATOM     16  C   UNL     1     -11.780  12.620  65.528  0.00  0.00    +0.349 C 
ATOM     17  O   UNL     1     -12.915  12.587  65.001  0.00  0.00    -0.244 OA
BRANCH  16  18
ATOM     18  O   UNL     1     -10.693  12.372  64.730  0.00  0.00    -0.441 OA
ATOM     19  C   UNL     1     -10.830  11.777  63.445  0.00  0.00    +0.256 C 
ENDBRANCH  16  18
ENDBRANCH   2  16
TORSDOF 7
ENDMDL
MODEL 9
REMARK VINA RESULT:      -4.9      2.235      5.303
REMARK  Name = 
REMARK  7 active torsions:
REMARK  status: ('A' for Active; 'I' for Inactive)
REMARK    1  A    between atoms: C_2  and  C_3
REMARK    2  A    between atoms: C_3  and  N_4
REMARK    3  A    between atoms: N_4  and  C_5
REMARK    4  A    between atoms: C_5  and  C_7
REMARK    5  A    between atoms: N_9  and  C_10
REMARK    6  A    between atoms: C_15  and  C_16
REMARK    7  A    between atoms: C_16  and  O_18
REMARK                            x       y       z     vdW  Elec       q    Type
REMARK                         _______ _______ _______ _____ _____    ______ ____
ROOT
ATOM      1  C   UNL     1     -12.015  13.822  70.294  0.00  0.00    +0.082 A 
ATOM      2  C   UNL     1     -12.304  12.474  70.282  0.00  0.00    +0.120 A 
ATOM      3  S   UNL     1     -13.118  12.197  71.764  0.00  0.00    -0.079 S 
ATOM      4  C   UNL     1     -13.268  13.843  72.225  0.00  0.00    +0.033 A 
ATOM      5  C   UNL     1     -12.328  14.456  71.446  0.00  0.00    +0.001 A 
ATOM      6  C   UNL     1     -11.867  15.834  71.832  0.00  0.00    +0.033 C 
ENDROOT
BRANCH   1   8
ATOM      7  C   UNL     1     -11.180  15.250  68.428  0.00  0.00    +0.261 C 
ATOM      8  N   UNL     1     -10.967  14.284  69.422  0.00  0.00    -0.178 NA
ATOM      9  O   UNL     1     -12.007  16.127  68.634  0.00  0.00    -0.271 OA
BRANCH   7  10
ATOM     10  C   UNL     1     -10.858  14.810  66.913  0.00  0.00    +0.151 C 
ATOM     11  C   UNL     1      -9.852  13.589  67.370  0.00  0.00    +0.029 C 
BRANCH  10  12
ATOM     12  N   UNL     1     -12.103  13.846  66.856  0.00  0.00    -0.210 NA
BRANCH  12  13
ATOM     13  C   UNL     1     -12.676  14.119  65.577  0.00  0.00    +0.089 C 
BRANCH  13  15
ATOM     14  C   UNL     1     -12.029  12.860  63.700  0.00  0.00    +0.002 C 
ATOM     15  C   UNL     1     -11.973  13.635  64.395  0.00  0.00    +0.019 C 
ENDBRANCH  13  15
ENDBRANCH  12  13
ENDBRANCH  10  12
ENDBRANCH   7  10
ENDBRANCH   1   8
BRANCH   2  16
ATOM     16  C   UNL     1     -11.730  11.417  69.436  0.00  0.00    +0.349 C 
ATOM     17  O   UNL     1     -12.265  11.096  68.351  0.00  0.00    -0.244 OA
BRANCH  16  18
ATOM     18  O   UNL     1     -10.588  10.758  69.810  0.00  0.00    -0.441 OA
ATOM     19  C   UNL     1     -10.341   9.412  69.419  0.00  0.00    +0.256 C 
ENDBRANCH  16  18
ENDBRANCH   2  16
TORSDOF 7
ENDMDL
