MODEL 1
REMARK VINA RESULT:      -7.1      0.000      0.000
REMARK  Name = 
REMARK  5 active torsions:
REMARK  status: ('A' for Active; 'I' for Inactive)
REMARK    1  A    between atoms: N_2  and  C_3
REMARK    2  A    between atoms: N_2  and  C_14
REMARK    3  A    between atoms: C_3  and  C_4
REMARK    4  A    between atoms: C_7  and  C_8
REMARK    5  A    between atoms: C_14  and  C_15
REMARK                            x       y       z     vdW  Elec       q    Type
REMARK                         _______ _______ _______ _____ _____    ______ ____
ROOT
ATOM      1  C   UNL     1     -10.674  15.133  65.004  0.00  0.00    +0.090 C 
ATOM      2  N   UNL     1     -11.144  14.074  65.875  0.00  0.00    -0.264 NA
ENDROOT
BRANCH   2   3
ATOM      3  C   UNL     1     -11.655  12.945  65.129  0.00  0.00    +0.099 C 
BRANCH   3   4
ATOM      4  C   UNL     1     -10.575  11.970  64.778  0.00  0.00    -0.006 A 
ATOM      5  C   UNL     1     -10.523  10.814  65.537  0.00  0.00    -0.003 A 
ATOM      6  C   UNL     1      -9.855   9.679  65.104  0.00  0.00    -0.000 A 
ATOM      7  C   UNL     1      -9.252   8.840  66.023  0.00  0.00    -0.000 A 
ATOM      8  C   UNL     1      -9.712   8.831  67.332  0.00  0.00    -0.000 A 
ATOM      9  C   UNL     1     -10.551   9.845  67.725  0.00  0.00    -0.000 A 
ATOM     10  C   UNL     1      -9.243   9.771  63.866  0.00  0.00    -0.000 A 
ATOM     11  C   UNL     1      -9.625  10.748  62.966  0.00  0.00    -0.000 A 
ATOM     12  C   UNL     1     -11.027  10.772  66.819  0.00  0.00    -0.000 A 
ATOM     13  C   UNL     1     -10.017  11.957  63.519  0.00  0.00    -0.003 A 
ENDBRANCH   3   4
ENDBRANCH   2   3
BRANCH   2  14
ATOM     14  C   UNL     1     -12.134  14.650  66.747  0.00  0.00    +0.099 C 
BRANCH  14  15
ATOM     15  C   UNL     1     -11.730  14.602  68.185  0.00  0.00    -0.006 A 
ATOM     16  C   UNL     1     -11.705  15.743  68.979  0.00  0.00    -0.003 A 
ATOM     17  C   UNL     1     -12.185  15.690  70.282  0.00  0.00    -0.005 A 
ATOM     18  C   UNL     1     -12.537  14.478  70.866  0.00  0.00    -0.023 A 
ATOM     19  C   UNL     1     -12.063  13.354  70.202  0.00  0.00    -0.005 A 
ATOM     20  C   UNL     1     -11.636  13.403  68.882  0.00  0.00    -0.003 A 
BRANCH  18  21
ATOM     21  C   UNL     1     -13.452  14.410  72.024  0.00  0.00    +0.019 C 
ATOM     22  C   UNL     1     -13.702  12.936  72.319  0.00  0.00    +0.004 C 
ATOM     23  C   UNL     1     -14.754  15.071  71.613  0.00  0.00    +0.004 C 
ATOM     24  C   UNL     1     -12.831  15.105  73.211  0.00  0.00    +0.004 C 
ENDBRANCH  18  21
ENDBRANCH  14  15
ENDBRANCH   2  14
TORSDOF 5
ENDMDL
MODEL 2
REMARK VINA RESULT:      -7.0      0.634      2.348
REMARK  Name = 
REMARK  5 active torsions:
REMARK  status: ('A' for Active; 'I' for Inactive)
REMARK    1  A    between atoms: N_2  and  C_3
REMARK    2  A    between atoms: N_2  and  C_14
REMARK    3  A    between atoms: C_3  and  C_4
REMARK    4  A    between atoms: C_7  and  C_8
REMARK    5  A    between atoms: C_14  and  C_15
REMARK                            x       y       z     vdW  Elec       q    Type
REMARK                         _______ _______ _______ _____ _____    ______ ____
ROOT
ATOM      1  C   UNL     1     -10.432  14.479  65.092  0.00  0.00    +0.090 C 
ATOM      2  N   UNL     1     -11.072  13.555  66.007  0.00  0.00    -0.264 NA
ENDROOT
BRANCH   2   3
ATOM      3  C   UNL     1     -11.651  12.422  65.318  0.00  0.00    +0.099 C 
BRANCH   3   4
ATOM      4  C   UNL     1     -10.955  11.143  65.660  0.00  0.00    -0.006 A 
ATOM      5  C   UNL     1     -10.017  10.693  64.746  0.00  0.00    -0.003 A 
ATOM      6  C   UNL     1      -9.043   9.768  65.087  0.00  0.00    -0.000 A 
ATOM      7  C   UNL     1      -8.582   8.869  64.142  0.00  0.00    -0.000 A 
ATOM      8  C   UNL     1      -8.694   9.190  62.797  0.00  0.00    -0.000 A 
ATOM      9  C   UNL     1      -9.500  10.247  62.453  0.00  0.00    -0.000 A 
ATOM     10  C   UNL     1      -9.064   9.320  66.397  0.00  0.00    -0.000 A 
ATOM     11  C   UNL     1      -9.717  10.045  67.376  0.00  0.00    -0.000 A 
ATOM     12  C   UNL     1     -10.081  11.048  63.416  0.00  0.00    -0.000 A 
ATOM     13  C   UNL     1     -10.858  10.718  66.966  0.00  0.00    -0.003 A 
ENDBRANCH   3   4
ENDBRANCH   2   3
BRANCH   2  14
ATOM     14  C   UNL     1     -12.051  14.304  66.751  0.00  0.00    +0.099 C 
BRANCH  14  15
ATOM     15  C   UNL     1     -11.700  14.428  68.198  0.00  0.00    -0.006 A 
ATOM     16  C   UNL     1     -11.750  15.647  68.864  0.00  0.00    -0.003 A 
ATOM     17  C   UNL     1     -12.276  15.713  70.149  0.00  0.00    -0.005 A 
ATOM     18  C   UNL     1     -12.602  14.557  70.849  0.00  0.00    -0.023 A 
ATOM     19  C   UNL     1     -12.059  13.390  70.327  0.00  0.00    -0.005 A 
ATOM     20  C   UNL     1     -11.585  13.316  69.025  0.00  0.00    -0.003 A 
BRANCH  18  21
ATOM     21  C   UNL     1     -13.557  14.573  71.976  0.00  0.00    +0.019 C 
ATOM     22  C   UNL     1     -12.926  15.395  73.094  0.00  0.00    +0.004 C 
ATOM     23  C   UNL     1     -13.735  13.140  72.440  0.00  0.00    +0.004 C 
ATOM     24  C   UNL     1     -14.867  15.175  71.530  0.00  0.00    +0.004 C 
ENDBRANCH  18  21
ENDBRANCH  14  15
ENDBRANCH   2  14
TORSDOF 5
ENDMDL
MODEL 3
REMARK VINA RESULT:      -6.9      2.722      3.911
REMARK  Name = 
REMARK  5 active torsions:
REMARK  status: ('A' for Active; 'I' for Inactive)
REMARK    1  A    between atoms: N_2  and  C_3
REMARK    2  A    between atoms: N_2  and  C_14
REMARK    3  A    between atoms: C_3  and  C_4
REMARK    4  A    between atoms: C_7  and  C_8
REMARK    5  A    between atoms: C_14  and  C_15
REMARK                            x       y       z     vdW  Elec       q    Type
REMARK                         _______ _______ _______ _____ _____    ______ ____
ROOT
ATOM      1  C   UNL     1     -11.997  14.910  64.529  0.00  0.00    +0.090 C 
ATOM      2  N   UNL     1     -11.316  14.868  65.808  0.00  0.00    -0.264 NA
ENDROOT
BRANCH   2   3
ATOM      3  C   UNL     1      -9.976  14.334  65.692  0.00  0.00    +0.099 C 
BRANCH   3   4
ATOM      4  C   UNL     1      -8.984  15.135  66.474  0.00  0.00    -0.006 A 
ATOM      5  C   UNL     1      -8.001  14.416  67.134  0.00  0.00    -0.003 A 
ATOM      6  C   UNL     1      -6.823  15.006  67.565  0.00  0.00    -0.000 A 
ATOM      7  C   UNL     1      -6.198  14.546  68.710  0.00  0.00    -0.000 A 
ATOM      8  C   UNL     1      -6.433  13.244  69.129  0.00  0.00    -0.000 A 
ATOM      9  C   UNL     1      -7.480  12.564  68.556  0.00  0.00    -0.000 A 
ATOM     10  C   UNL     1      -6.688  16.357  67.296  0.00  0.00    -0.000 A 
ATOM     11  C   UNL     1      -7.457  16.958  66.317  0.00  0.00    -0.000 A 
ATOM     12  C   UNL     1      -8.197  13.104  67.507  0.00  0.00    -0.000 A 
ATOM     13  C   UNL     1      -8.739  16.454  66.166  0.00  0.00    -0.003 A 
ENDBRANCH   3   4
ENDBRANCH   2   3
BRANCH   2  14
ATOM     14  C   UNL     1     -12.140  14.098  66.702  0.00  0.00    +0.099 C 
BRANCH  14  15
ATOM     15  C   UNL     1     -11.743  14.262  68.133  0.00  0.00    -0.006 A 
ATOM     16  C   UNL     1     -11.794  15.496  68.773  0.00  0.00    -0.003 A 
ATOM     17  C   UNL     1     -12.277  15.582  70.073  0.00  0.00    -0.005 A 
ATOM     18  C   UNL     1     -12.556  14.437  70.810  0.00  0.00    -0.023 A 
ATOM     19  C   UNL     1     -12.008  13.268  70.296  0.00  0.00    -0.005 A 
ATOM     20  C   UNL     1     -11.577  13.173  68.981  0.00  0.00    -0.003 A 
BRANCH  18  21
ATOM     21  C   UNL     1     -13.472  14.462  71.969  0.00  0.00    +0.019 C 
ATOM     22  C   UNL     1     -12.756  15.191  73.099  0.00  0.00    +0.004 C 
ATOM     23  C   UNL     1     -13.726  13.022  72.376  0.00  0.00    +0.004 C 
ATOM     24  C   UNL     1     -14.755  15.163  71.594  0.00  0.00    +0.004 C 
ENDBRANCH  18  21
ENDBRANCH  14  15
ENDBRANCH   2  14
TORSDOF 5
ENDMDL
MODEL 4
REMARK VINA RESULT:      -6.9      2.813      6.622
REMARK  Name = 
REMARK  5 active torsions:
REMARK  status: ('A' for Active; 'I' for Inactive)
REMARK    1  A    between atoms: N_2  and  C_3
REMARK    2  A    between atoms: N_2  and  C_14
REMARK    3  A    between atoms: C_3  and  C_4
REMARK    4  A    between atoms: C_7  and  C_8
REMARK    5  A    between atoms: C_14  and  C_15
REMARK                            x       y       z     vdW  Elec       q    Type
REMARK                         _______ _______ _______ _____ _____    ______ ____
ROOT
ATOM      1  C   UNL     1      -9.058  11.832  68.091  0.00  0.00    +0.090 C 
ATOM      2  N   UNL     1      -9.970  12.952  68.219  0.00  0.00    -0.264 NA
ENDROOT
BRANCH   2   3
ATOM      3  C   UNL     1     -11.345  12.519  68.341  0.00  0.00    +0.099 C 
BRANCH   3   4
ATOM      4  C   UNL     1     -11.743  12.314  69.769  0.00  0.00    -0.006 A 
ATOM      5  C   UNL     1     -12.396  13.370  70.380  0.00  0.00    -0.003 A 
ATOM      6  C   UNL     1     -13.148  13.203  71.533  0.00  0.00    -0.000 A 
ATOM      7  C   UNL     1     -13.227  14.225  72.461  0.00  0.00    -0.000 A 
ATOM      8  C   UNL     1     -13.005  15.530  72.047  0.00  0.00    -0.000 A 
ATOM      9  C   UNL     1     -12.447  15.724  70.807  0.00  0.00    -0.000 A 
ATOM     10  C   UNL     1     -13.206  11.914  72.036  0.00  0.00    -0.000 A 
ATOM     11  C   UNL     1     -12.904  10.832  71.231  0.00  0.00    -0.000 A 
ATOM     12  C   UNL     1     -12.230  14.667  69.945  0.00  0.00    -0.000 A 
ATOM     13  C   UNL     1     -11.920  11.048  70.279  0.00  0.00    -0.003 A 
ENDBRANCH   3   4
ENDBRANCH   2   3
BRANCH   2  14
ATOM     14  C   UNL     1      -9.761  13.802  67.077  0.00  0.00    +0.099 C 
BRANCH  14  15
ATOM     15  C   UNL     1      -8.990  15.037  67.415  0.00  0.00    -0.006 A 
ATOM     16  C   UNL     1      -8.231  15.712  66.466  0.00  0.00    -0.003 A 
ATOM     17  C   UNL     1      -8.254  17.101  66.421  0.00  0.00    -0.005 A 
ATOM     18  C   UNL     1      -8.890  17.838  67.413  0.00  0.00    -0.023 A 
ATOM     19  C   UNL     1      -9.178  17.127  68.571  0.00  0.00    -0.005 A 
ATOM     20  C   UNL     1      -9.207  15.740  68.595  0.00  0.00    -0.003 A 
BRANCH  18  21
ATOM     21  C   UNL     1      -9.333  19.229  67.185  0.00  0.00    +0.019 C 
ATOM     22  C   UNL     1      -9.906  19.745  68.499  0.00  0.00    +0.004 C 
ATOM     23  C   UNL     1     -10.429  19.189  66.136  0.00  0.00    +0.004 C 
ATOM     24  C   UNL     1      -8.166  20.072  66.731  0.00  0.00    +0.004 C 
ENDBRANCH  18  21
ENDBRANCH  14  15
ENDBRANCH   2  14
TORSDOF 5
ENDMDL
MODEL 5
REMARK VINA RESULT:      -6.8      2.890      6.385
REMARK  Name = 
REMARK  5 active torsions:
REMARK  status: ('A' for Active; 'I' for Inactive)
REMARK    1  A    between atoms: N_2  and  C_3
REMARK    2  A    between atoms: N_2  and  C_14
REMARK    3  A    between atoms: C_3  and  C_4
REMARK    4  A    between atoms: C_7  and  C_8
REMARK    5  A    between atoms: C_14  and  C_15
REMARK                            x       y       z     vdW  Elec       q    Type
REMARK                         _______ _______ _______ _____ _____    ______ ____
ROOT
ATOM      1  C   UNL     1      -8.421  13.205  68.317  0.00  0.00    +0.090 C 
ATOM      2  N   UNL     1      -9.594  13.877  67.792  0.00  0.00    -0.264 NA
ENDROOT
BRANCH   2   3
ATOM      3  C   UNL     1     -10.808  13.135  68.057  0.00  0.00    +0.099 C 
BRANCH   3   4
ATOM      4  C   UNL     1     -11.722  13.871  68.985  0.00  0.00    -0.006 A 
ATOM      5  C   UNL     1     -12.066  13.213  70.153  0.00  0.00    -0.003 A 
ATOM      6  C   UNL     1     -12.570  13.887  71.256  0.00  0.00    -0.000 A 
ATOM      7  C   UNL     1     -13.478  13.263  72.091  0.00  0.00    -0.000 A 
ATOM      8  C   UNL     1     -13.504  11.877  72.143  0.00  0.00    -0.000 A 
ATOM      9  C   UNL     1     -12.829  11.185  71.168  0.00  0.00    -0.000 A 
ATOM     10  C   UNL     1     -12.709  15.258  71.117  0.00  0.00    -0.000 A 
ATOM     11  C   UNL     1     -12.011  15.938  70.136  0.00  0.00    -0.000 A 
ATOM     12  C   UNL     1     -12.043  11.838  70.239  0.00  0.00    -0.000 A 
ATOM     13  C   UNL     1     -11.806  15.245  68.954  0.00  0.00    -0.003 A 
ENDBRANCH   3   4
ENDBRANCH   2   3
BRANCH   2  14
ATOM     14  C   UNL     1      -9.371  14.083  66.385  0.00  0.00    +0.099 C 
BRANCH  14  15
ATOM     15  C   UNL     1      -9.182  15.524  66.039  0.00  0.00    -0.006 A 
ATOM     16  C   UNL     1     -10.260  16.373  65.817  0.00  0.00    -0.003 A 
ATOM     17  C   UNL     1     -10.243  17.663  66.334  0.00  0.00    -0.005 A 
ATOM     18  C   UNL     1      -9.097  18.180  66.928  0.00  0.00    -0.023 A 
ATOM     19  C   UNL     1      -7.933  17.471  66.660  0.00  0.00    -0.005 A 
ATOM     20  C   UNL     1      -7.958  16.164  66.196  0.00  0.00    -0.003 A 
BRANCH  18  21
ATOM     21  C   UNL     1      -9.155  19.316  67.871  0.00  0.00    +0.019 C 
ATOM     22  C   UNL     1      -9.851  20.467  67.154  0.00  0.00    +0.004 C 
ATOM     23  C   UNL     1      -7.726  19.711  68.194  0.00  0.00    +0.004 C 
ATOM     24  C   UNL     1      -9.910  18.913  69.114  0.00  0.00    +0.004 C 
ENDBRANCH  18  21
ENDBRANCH  14  15
ENDBRANCH   2  14
TORSDOF 5
ENDMDL
MODEL 6
REMARK VINA RESULT:      -6.8      1.842      3.144
REMARK  Name = 
REMARK  5 active torsions:
REMARK  status: ('A' for Active; 'I' for Inactive)
REMARK    1  A    between atoms: N_2  and  C_3
REMARK    2  A    between atoms: N_2  and  C_14
REMARK    3  A    between atoms: C_3  and  C_4
REMARK    4  A    between atoms: C_7  and  C_8
REMARK    5  A    between atoms: C_14  and  C_15
REMARK                            x       y       z     vdW  Elec       q    Type
REMARK                         _______ _______ _______ _____ _____    ______ ____
ROOT
ATOM      1  C   UNL     1      -9.798  18.328  66.795  0.00  0.00    +0.090 C 
ATOM      2  N   UNL     1      -9.814  16.923  67.150  0.00  0.00    -0.264 NA
ENDROOT
BRANCH   2   3
ATOM      3  C   UNL     1      -9.397  16.081  66.050  0.00  0.00    +0.099 C 
BRANCH   3   4
ATOM      4  C   UNL     1      -9.422  14.630  66.415  0.00  0.00    -0.006 A 
ATOM      5  C   UNL     1     -10.102  13.793  65.547  0.00  0.00    -0.003 A 
ATOM      6  C   UNL     1      -9.895  12.422  65.534  0.00  0.00    -0.000 A 
ATOM      7  C   UNL     1     -10.935  11.569  65.214  0.00  0.00    -0.000 A 
ATOM      8  C   UNL     1     -11.986  12.047  64.446  0.00  0.00    -0.000 A 
ATOM      9  C   UNL     1     -12.090  13.405  64.273  0.00  0.00    -0.000 A 
ATOM     10  C   UNL     1      -8.967  11.941  66.442  0.00  0.00    -0.000 A 
ATOM     11  C   UNL     1      -8.029  12.788  67.003  0.00  0.00    -0.000 A 
ATOM     12  C   UNL     1     -11.111  14.263  64.736  0.00  0.00    -0.000 A 
ATOM     13  C   UNL     1      -8.452  14.088  67.227  0.00  0.00    -0.003 A 
ENDBRANCH   3   4
ENDBRANCH   2   3
BRANCH   2  14
ATOM     14  C   UNL     1     -11.145  16.616  67.604  0.00  0.00    +0.099 C 
BRANCH  14  15
ATOM     15  C   UNL     1     -11.150  15.776  68.840  0.00  0.00    -0.006 A 
ATOM     16  C   UNL     1     -10.870  16.310  70.092  0.00  0.00    -0.003 A 
ATOM     17  C   UNL     1     -11.630  15.931  71.192  0.00  0.00    -0.005 A 
ATOM     18  C   UNL     1     -12.558  14.899  71.099  0.00  0.00    -0.023 A 
ATOM     19  C   UNL     1     -12.419  14.092  69.977  0.00  0.00    -0.005 A 
ATOM     20  C   UNL     1     -11.704  14.501  68.860  0.00  0.00    -0.003 A 
BRANCH  18  21
ATOM     21  C   UNL     1     -13.675  14.770  72.058  0.00  0.00    +0.019 C 
ATOM     22  C   UNL     1     -13.342  15.640  73.264  0.00  0.00    +0.004 C 
ATOM     23  C   UNL     1     -13.739  13.315  72.485  0.00  0.00    +0.004 C 
ATOM     24  C   UNL     1     -14.963  15.210  71.407  0.00  0.00    +0.004 C 
ENDBRANCH  18  21
ENDBRANCH  14  15
ENDBRANCH   2  14
TORSDOF 5
ENDMDL
MODEL 7
REMARK VINA RESULT:      -6.8      2.694      6.983
REMARK  Name = 
REMARK  5 active torsions:
REMARK  status: ('A' for Active; 'I' for Inactive)
REMARK    1  A    between atoms: N_2  and  C_3
REMARK    2  A    between atoms: N_2  and  C_14
REMARK    3  A    between atoms: C_3  and  C_4
REMARK    4  A    between atoms: C_7  and  C_8
REMARK    5  A    between atoms: C_14  and  C_15
REMARK                            x       y       z     vdW  Elec       q    Type
REMARK                         _______ _______ _______ _____ _____    ______ ____
ROOT
ATOM      1  C   UNL     1     -10.936  11.537  66.385  0.00  0.00    +0.090 C 
ATOM      2  N   UNL     1     -10.879  11.458  67.831  0.00  0.00    -0.264 NA
ENDROOT
BRANCH   2   3
ATOM      3  C   UNL     1     -11.446  12.631  68.461  0.00  0.00    +0.099 C 
BRANCH   3   4
ATOM      4  C   UNL     1     -11.840  12.369  69.881  0.00  0.00    -0.006 A 
ATOM      5  C   UNL     1     -12.453  13.416  70.548  0.00  0.00    -0.003 A 
ATOM      6  C   UNL     1     -13.202  13.217  71.698  0.00  0.00    -0.000 A 
ATOM      7  C   UNL     1     -13.241  14.194  72.675  0.00  0.00    -0.000 A 
ATOM      8  C   UNL     1     -12.977  15.510  72.323  0.00  0.00    -0.000 A 
ATOM      9  C   UNL     1     -12.421  15.746  71.090  0.00  0.00    -0.000 A 
ATOM     10  C   UNL     1     -13.301  11.908  72.138  0.00  0.00    -0.000 A 
ATOM     11  C   UNL     1     -13.040  10.857  71.278  0.00  0.00    -0.000 A 
ATOM     12  C   UNL     1     -12.247  14.726  70.176  0.00  0.00    -0.000 A 
ATOM     13  C   UNL     1     -12.057  11.086  70.329  0.00  0.00    -0.003 A 
ENDBRANCH   3   4
ENDBRANCH   2   3
BRANCH   2  14
ATOM     14  C   UNL     1      -9.501  11.253  68.191  0.00  0.00    +0.099 C 
BRANCH  14  15
ATOM     15  C   UNL     1      -9.249   9.889  68.747  0.00  0.00    -0.006 A 
ATOM     16  C   UNL     1      -8.622   9.701  69.973  0.00  0.00    -0.003 A 
ATOM     17  C   UNL     1      -9.099   8.739  70.855  0.00  0.00    -0.005 A 
ATOM     18  C   UNL     1     -10.091   7.844  70.469  0.00  0.00    -0.023 A 
ATOM     19  C   UNL     1     -10.300   7.766  69.098  0.00  0.00    -0.005 A 
ATOM     20  C   UNL     1      -9.868   8.758  68.229  0.00  0.00    -0.003 A 
BRANCH  18  21
ATOM     21  C   UNL     1     -10.932   7.140  71.459  0.00  0.00    +0.019 C 
ATOM     22  C   UNL     1     -10.835   7.912  72.769  0.00  0.00    +0.004 C 
ATOM     23  C   UNL     1     -10.348   5.752  71.645  0.00  0.00    +0.004 C 
ATOM     24  C   UNL     1     -12.358   7.077  70.968  0.00  0.00    +0.004 C 
ENDBRANCH  18  21
ENDBRANCH  14  15
ENDBRANCH   2  14
TORSDOF 5
ENDMDL
MODEL 8
REMARK VINA RESULT:      -6.7      1.623      6.583
REMARK  Name = 
REMARK  5 active torsions:
REMARK  status: ('A' for Active; 'I' for Inactive)
REMARK    1  A    between atoms: N_2  and  C_3
REMARK    2  A    between atoms: N_2  and  C_14
REMARK    3  A    between atoms: C_3  and  C_4
REMARK    4  A    between atoms: C_7  and  C_8
REMARK    5  A    between atoms: C_14  and  C_15
REMARK                            x       y       z     vdW  Elec       q    Type
REMARK                         _______ _______ _______ _____ _____    ______ ____
ROOT
ATOM      1  C   UNL     1     -12.374  13.971  66.156  0.00  0.00    +0.090 C 
ATOM      2  N   UNL     1     -11.362  13.337  66.978  0.00  0.00    -0.264 NA
ENDROOT
BRANCH   2   3
ATOM      3  C   UNL     1     -11.132  14.060  68.210  0.00  0.00    +0.099 C 
BRANCH   3   4
ATOM      4  C   UNL     1     -11.474  13.240  69.413  0.00  0.00    -0.006 A 
ATOM      5  C   UNL     1     -12.351  13.815  70.316  0.00  0.00    -0.003 A 
ATOM      6  C   UNL     1     -13.047  13.061  71.249  0.00  0.00    -0.000 A 
ATOM      7  C   UNL     1     -13.358  13.603  72.483  0.00  0.00    -0.000 A 
ATOM      8  C   UNL     1     -13.438  14.981  72.612  0.00  0.00    -0.000 A 
ATOM      9  C   UNL     1     -12.936  15.753  71.593  0.00  0.00    -0.000 A 
ATOM     10  C   UNL     1     -12.812  11.697  71.222  0.00  0.00    -0.000 A 
ATOM     11  C   UNL     1     -12.270  11.100  70.099  0.00  0.00    -0.000 A 
ATOM     12  C   UNL     1     -12.484  15.183  70.419  0.00  0.00    -0.000 A 
ATOM     13  C   UNL     1     -11.360  11.868  69.390  0.00  0.00    -0.003 A 
ENDBRANCH   3   4
ENDBRANCH   2   3
BRANCH   2  14
ATOM     14  C   UNL     1     -10.172  13.226  66.175  0.00  0.00    +0.099 C 
BRANCH  14  15
ATOM     15  C   UNL     1      -9.573  11.857  66.223  0.00  0.00    -0.006 A 
ATOM     16  C   UNL     1      -8.320  11.623  66.777  0.00  0.00    -0.003 A 
ATOM     17  C   UNL     1      -8.117  10.510  67.584  0.00  0.00    -0.005 A 
ATOM     18  C   UNL     1      -9.097   9.533  67.714  0.00  0.00    -0.023 A 
ATOM     19  C   UNL     1     -10.097   9.580  66.750  0.00  0.00    -0.005 A 
ATOM     20  C   UNL     1     -10.329  10.715  65.986  0.00  0.00    -0.003 A 
BRANCH  18  21
ATOM     21  C   UNL     1      -9.127   8.610  68.867  0.00  0.00    +0.019 C 
ATOM     22  C   UNL     1      -8.753   9.416  70.105  0.00  0.00    +0.004 C 
ATOM     23  C   UNL     1      -8.076   7.543  68.622  0.00  0.00    +0.004 C 
ATOM     24  C   UNL     1     -10.503   8.006  69.006  0.00  0.00    +0.004 C 
ENDBRANCH  18  21
ENDBRANCH  14  15
ENDBRANCH   2  14
TORSDOF 5
ENDMDL
MODEL 9
REMARK VINA RESULT:      -6.7      2.720      4.729
REMARK  Name = 
REMARK  5 active torsions:
REMARK  status: ('A' for Active; 'I' for Inactive)
REMARK    1  A    between atoms: N_2  and  C_3
REMARK    2  A    between atoms: N_2  and  C_14
REMARK    3  A    between atoms: C_3  and  C_4
REMARK    4  A    between atoms: C_7  and  C_8
REMARK    5  A    between atoms: C_14  and  C_15
REMARK                            x       y       z     vdW  Elec       q    Type
REMARK                         _______ _______ _______ _____ _____    ______ ____
ROOT
ATOM      1  C   UNL     1     -11.978  14.540  69.548  0.00  0.00    +0.090 C 
ATOM      2  N   UNL     1     -11.355  14.254  68.270  0.00  0.00    -0.264 NA
ENDROOT
BRANCH   2   3
ATOM      3  C   UNL     1     -11.985  13.138  67.598  0.00  0.00    +0.099 C 
BRANCH   3   4
ATOM      4  C   UNL     1     -11.555  13.031  66.168  0.00  0.00    -0.006 A 
ATOM      5  C   UNL     1     -11.129  11.783  65.750  0.00  0.00    -0.003 A 
ATOM      6  C   UNL     1     -11.070  11.437  64.408  0.00  0.00    -0.000 A 
ATOM      7  C   UNL     1     -10.101  10.557  63.963  0.00  0.00    -0.000 A 
ATOM      8  C   UNL     1      -9.540   9.661  64.862  0.00  0.00    -0.000 A 
ATOM      9  C   UNL     1      -9.763   9.870  66.200  0.00  0.00    -0.000 A 
ATOM     10  C   UNL     1     -11.465  12.416  63.512  0.00  0.00    -0.000 A 
ATOM     11  C   UNL     1     -12.246  13.477  63.931  0.00  0.00    -0.000 A 
ATOM     12  C   UNL     1     -10.621  10.860  66.638  0.00  0.00    -0.000 A 
ATOM     13  C   UNL     1     -12.014  13.921  65.224  0.00  0.00    -0.003 A 
ENDBRANCH   3   4
ENDBRANCH   2   3
BRANCH   2  14
ATOM     14  C   UNL     1      -9.957  14.026  68.523  0.00  0.00    +0.099 C 
BRANCH  14  15
ATOM     15  C   UNL     1      -9.095  15.140  68.025  0.00  0.00    -0.006 A 
ATOM     16  C   UNL     1      -9.106  15.539  66.694  0.00  0.00    -0.003 A 
ATOM     17  C   UNL     1      -9.086  16.891  66.376  0.00  0.00    -0.005 A 
ATOM     18  C   UNL     1      -8.886  17.854  67.359  0.00  0.00    -0.023 A 
ATOM     19  C   UNL     1      -8.384  17.364  68.558  0.00  0.00    -0.005 A 
ATOM     20  C   UNL     1      -8.456  16.020  68.892  0.00  0.00    -0.003 A 
BRANCH  18  21
ATOM     21  C   UNL     1      -9.304  19.259  67.168  0.00  0.00    +0.019 C 
ATOM     22  C   UNL     1      -9.955  19.719  68.467  0.00  0.00    +0.004 C 
ATOM     23  C   UNL     1     -10.332  19.278  66.052  0.00  0.00    +0.004 C 
ATOM     24  C   UNL     1      -8.105  20.109  66.828  0.00  0.00    +0.004 C 
ENDBRANCH  18  21
ENDBRANCH  14  15
ENDBRANCH   2  14
TORSDOF 5
ENDMDL
