MODEL 1
REMARK VINA RESULT:      -5.9      0.000      0.000
REMARK  Name = 
REMARK  13 active torsions:
REMARK  status: ('A' for Active; 'I' for Inactive)
REMARK    1  A    between atoms: C_2  and  C_3
REMARK    2  A    between atoms: C_3  and  C_4
REMARK    3  A    between atoms: C_4  and  C_5
REMARK    4  A    between atoms: C_5  and  C_6
REMARK    5  A    between atoms: C_6  and  C_8
REMARK    6  A    between atoms: C_9  and  C_10
REMARK    7  A    between atoms: C_16  and  C_17
REMARK    8  A    between atoms: C_17  and  C_18
REMARK    9  A    between atoms: C_18  and  C_19
REMARK   10  A    between atoms: C_19  and  C_20
REMARK   11  A    between atoms: C_20  and  C_21
REMARK   12  A    between atoms: C_21  and  C_22
REMARK   13  A    between atoms: C_22  and  C_23
REMARK                            x       y       z     vdW  Elec       q    Type
REMARK                         _______ _______ _______ _____ _____    ______ ____
ROOT
ATOM      1  C   UNL     1     -11.432  13.429  66.478  0.00  0.00    +0.059 C 
ATOM      2  C   UNL     1     -10.233  13.878  65.395  0.00  0.00    +0.064 C 
ATOM      3  C   UNL     1     -10.914  15.273  65.027  0.00  0.00    +0.153 C 
ATOM      4  O   UNL     1     -10.258  16.273  65.143  0.00  0.00    -0.296 OA
ATOM      5  C   UNL     1     -12.078  14.774  64.438  0.00  0.00    +0.098 C 
ATOM      6  C   UNL     1     -12.778  14.170  65.772  0.00  0.00    +0.164 C 
ATOM      7  O   UNL     1     -13.155  12.867  65.086  0.00  0.00    -0.222 OA
ENDROOT
BRANCH   1   9
ATOM      8  C   UNL     1     -11.006  14.466  68.686  0.00  0.00    +0.002 C 
ATOM      9  C   UNL     1     -11.164  14.707  67.389  0.00  0.00    -0.026 C 
BRANCH   8  10
ATOM     10  C   UNL     1     -11.044  15.854  69.534  0.00  0.00    +0.174 C 
ATOM     11  O   UNL     1     -11.709  16.596  68.381  0.00  0.00    -0.218 OA
BRANCH  10  12
ATOM     12  C   UNL     1     -12.464  15.438  70.259  0.00  0.00    +0.037 C 
BRANCH  12  13
ATOM     13  C   UNL     1     -12.263  14.543  71.386  0.00  0.00    +0.003 C 
BRANCH  13  14
ATOM     14  C   UNL     1     -13.330  14.848  72.432  0.00  0.00    +0.000 C 
BRANCH  14  16
ATOM     15  C   UNL     1     -12.447  15.619  74.401  0.00  0.00    +0.000 C 
ATOM     16  C   UNL     1     -12.710  15.908  73.332  0.00  0.00    +0.000 C 
ENDBRANCH  14  16
ENDBRANCH  13  14
ENDBRANCH  12  13
ENDBRANCH  10  12
ENDBRANCH   8  10
ENDBRANCH   1   9
BRANCH   2  17
ATOM     17  C   UNL     1     -10.803  12.958  64.169  0.00  0.00    +0.008 C 
BRANCH  17  18
ATOM     18  C   UNL     1      -9.820  11.790  64.243  0.00  0.00    +0.000 C 
BRANCH  18  19
ATOM     19  C   UNL     1     -10.403  10.530  64.641  0.00  0.00    +0.000 C 
BRANCH  19  20
ATOM     20  C   UNL     1      -9.877   9.657  65.663  0.00  0.00    +0.001 C 
BRANCH  20  21
ATOM     21  C   UNL     1      -9.818  10.324  67.005  0.00  0.00    +0.012 C 
BRANCH  21  22
ATOM     22  C   UNL     1     -10.332   9.348  68.057  0.00  0.00    +0.114 C 
BRANCH  22  23
ATOM     23  C   UNL     1     -11.163  10.185  68.978  0.00  0.00    +0.365 C 
ATOM     24  O   UNL     1     -12.169  10.982  68.446  0.00  0.00    -0.246 OA
ATOM     25  O   UNL     1     -10.914  10.258  70.202  0.00  0.00    -0.246 OA
ENDBRANCH  22  23
ENDBRANCH  21  22
ENDBRANCH  20  21
ENDBRANCH  19  20
ENDBRANCH  18  19
ENDBRANCH  17  18
ENDBRANCH   2  17
TORSDOF 13
ENDMDL
MODEL 2
REMARK VINA RESULT:      -5.9      4.580      8.311
REMARK  Name = 
REMARK  13 active torsions:
REMARK  status: ('A' for Active; 'I' for Inactive)
REMARK    1  A    between atoms: C_2  and  C_3
REMARK    2  A    between atoms: C_3  and  C_4
REMARK    3  A    between atoms: C_4  and  C_5
REMARK    4  A    between atoms: C_5  and  C_6
REMARK    5  A    between atoms: C_6  and  C_8
REMARK    6  A    between atoms: C_9  and  C_10
REMARK    7  A    between atoms: C_16  and  C_17
REMARK    8  A    between atoms: C_17  and  C_18
REMARK    9  A    between atoms: C_18  and  C_19
REMARK   10  A    between atoms: C_19  and  C_20
REMARK   11  A    between atoms: C_20  and  C_21
REMARK   12  A    between atoms: C_21  and  C_22
REMARK   13  A    between atoms: C_22  and  C_23
REMARK                            x       y       z     vdW  Elec       q    Type
REMARK                         _______ _______ _______ _____ _____    ______ ____
ROOT
ATOM      1  C   UNL     1      -9.017  15.479  67.074  0.00  0.00    +0.059 C 
ATOM      2  C   UNL     1      -9.243  16.182  68.580  0.00  0.00    +0.064 C 
ATOM      3  C   UNL     1     -10.682  16.774  68.225  0.00  0.00    +0.153 C 
ATOM      4  O   UNL     1     -11.602  16.503  68.951  0.00  0.00    -0.296 OA
ATOM      5  C   UNL     1     -10.288  17.659  67.220  0.00  0.00    +0.098 C 
ATOM      6  C   UNL     1      -9.865  16.567  66.096  0.00  0.00    +0.164 C 
ATOM      7  O   UNL     1      -8.574  17.293  65.756  0.00  0.00    -0.222 OA
ENDROOT
BRANCH   1   9
ATOM      8  C   UNL     1     -10.097  13.258  67.250  0.00  0.00    +0.002 C 
ATOM      9  C   UNL     1     -10.312  14.569  67.244  0.00  0.00    -0.026 C 
BRANCH   8  10
ATOM     10  C   UNL     1     -11.502  12.447  67.123  0.00  0.00    +0.174 C 
ATOM     11  O   UNL     1     -12.121  13.247  68.262  0.00  0.00    -0.218 OA
BRANCH  10  12
ATOM     12  C   UNL     1     -12.045  13.459  65.941  0.00  0.00    +0.037 C 
BRANCH  12  13
ATOM     13  C   UNL     1     -12.717  12.742  64.871  0.00  0.00    +0.003 C 
BRANCH  13  14
ATOM     14  C   UNL     1     -11.888  12.895  63.601  0.00  0.00    +0.000 C 
BRANCH  14  16
ATOM     15  C   UNL     1     -10.017  11.580  63.452  0.00  0.00    +0.000 C 
ATOM     16  C   UNL     1     -11.155  11.570  63.445  0.00  0.00    +0.000 C 
ENDBRANCH  14  16
ENDBRANCH  13  14
ENDBRANCH  12  13
ENDBRANCH  10  12
ENDBRANCH   8  10
ENDBRANCH   1   9
BRANCH   2  17
ATOM     17  C   UNL     1      -8.318  17.493  68.262  0.00  0.00    +0.008 C 
BRANCH  17  18
ATOM     18  C   UNL     1      -7.018  17.061  68.940  0.00  0.00    +0.000 C 
BRANCH  18  19
ATOM     19  C   UNL     1      -6.068  18.126  69.166  0.00  0.00    +0.000 C 
BRANCH  19  20
ATOM     20  C   UNL     1      -6.377  19.535  69.131  0.00  0.00    +0.001 C 
BRANCH  20  21
ATOM     21  C   UNL     1      -6.071  20.218  70.431  0.00  0.00    +0.012 C 
BRANCH  21  22
ATOM     22  C   UNL     1      -4.737  20.943  70.299  0.00  0.00    +0.114 C 
BRANCH  22  23
ATOM     23  C   UNL     1      -4.278  21.152  71.707  0.00  0.00    +0.365 C 
ATOM     24  O   UNL     1      -3.730  20.084  72.407  0.00  0.00    -0.246 OA
ATOM     25  O   UNL     1      -4.462  22.238  72.303  0.00  0.00    -0.246 OA
ENDBRANCH  22  23
ENDBRANCH  21  22
ENDBRANCH  20  21
ENDBRANCH  19  20
ENDBRANCH  18  19
ENDBRANCH  17  18
ENDBRANCH   2  17
TORSDOF 13
ENDMDL
MODEL 3
REMARK VINA RESULT:      -5.8      3.158      5.359
REMARK  Name = 
REMARK  13 active torsions:
REMARK  status: ('A' for Active; 'I' for Inactive)
REMARK    1  A    between atoms: C_2  and  C_3
REMARK    2  A    between atoms: C_3  and  C_4
REMARK    3  A    between atoms: C_4  and  C_5
REMARK    4  A    between atoms: C_5  and  C_6
REMARK    5  A    between atoms: C_6  and  C_8
REMARK    6  A    between atoms: C_9  and  C_10
REMARK    7  A    between atoms: C_16  and  C_17
REMARK    8  A    between atoms: C_17  and  C_18
REMARK    9  A    between atoms: C_18  and  C_19
REMARK   10  A    between atoms: C_19  and  C_20
REMARK   11  A    between atoms: C_20  and  C_21
REMARK   12  A    between atoms: C_21  and  C_22
REMARK   13  A    between atoms: C_22  and  C_23
REMARK                            x       y       z     vdW  Elec       q    Type
REMARK                         _______ _______ _______ _____ _____    ______ ____
ROOT
ATOM      1  C   UNL     1      -8.384  15.249  67.876  0.00  0.00    +0.059 C 
ATOM      2  C   UNL     1      -9.232  14.484  66.649  0.00  0.00    +0.064 C 
ATOM      3  C   UNL     1     -10.151  15.748  66.326  0.00  0.00    +0.153 C 
ATOM      4  O   UNL     1     -10.185  16.150  65.194  0.00  0.00    -0.296 OA
ATOM      5  C   UNL     1     -10.825  15.818  67.547  0.00  0.00    +0.098 C 
ATOM      6  C   UNL     1      -9.579  16.284  68.478  0.00  0.00    +0.164 C 
ATOM      7  O   UNL     1      -9.915  15.285  69.573  0.00  0.00    -0.222 OA
ENDROOT
BRANCH   1   9
ATOM      8  C   UNL     1      -6.637  16.837  67.130  0.00  0.00    +0.002 C 
ATOM      9  C   UNL     1      -7.859  16.378  66.883  0.00  0.00    -0.026 C 
BRANCH   8  10
ATOM     10  C   UNL     1      -6.342  18.176  66.253  0.00  0.00    +0.174 C 
ATOM     11  O   UNL     1      -7.601  17.966  65.421  0.00  0.00    -0.218 OA
BRANCH  10  12
ATOM     12  C   UNL     1      -7.079  19.139  67.368  0.00  0.00    +0.037 C 
BRANCH  12  13
ATOM     13  C   UNL     1      -8.210  19.859  66.810  0.00  0.00    +0.003 C 
BRANCH  13  14
ATOM     14  C   UNL     1      -9.328  19.867  67.846  0.00  0.00    +0.000 C 
BRANCH  14  16
ATOM     15  C   UNL     1     -10.550  19.607  65.926  0.00  0.00    +0.000 C 
ATOM     16  C   UNL     1     -10.596  19.563  67.062  0.00  0.00    +0.000 C 
ENDBRANCH  14  16
ENDBRANCH  13  14
ENDBRANCH  12  13
ENDBRANCH  10  12
ENDBRANCH   8  10
ENDBRANCH   1   9
BRANCH   2  17
ATOM     17  C   UNL     1     -10.228  13.668  67.657  0.00  0.00    +0.008 C 
BRANCH  17  18
ATOM     18  C   UNL     1      -9.622  12.269  67.543  0.00  0.00    +0.000 C 
BRANCH  18  19
ATOM     19  C   UNL     1      -9.512  11.762  66.195  0.00  0.00    +0.000 C 
BRANCH  19  20
ATOM     20  C   UNL     1     -10.452  10.867  65.566  0.00  0.00    +0.001 C 
BRANCH  20  21
ATOM     21  C   UNL     1     -10.599  11.136  64.098  0.00  0.00    +0.012 C 
BRANCH  21  22
ATOM     22  C   UNL     1     -10.673  12.643  63.883  0.00  0.00    +0.114 C 
BRANCH  22  23
ATOM     23  C   UNL     1     -12.117  12.917  63.603  0.00  0.00    +0.365 C 
ATOM     24  O   UNL     1     -12.606  14.208  63.763  0.00  0.00    -0.246 OA
ATOM     25  O   UNL     1     -12.916  11.996  63.321  0.00  0.00    -0.246 OA
ENDBRANCH  22  23
ENDBRANCH  21  22
ENDBRANCH  20  21
ENDBRANCH  19  20
ENDBRANCH  18  19
ENDBRANCH  17  18
ENDBRANCH   2  17
TORSDOF 13
ENDMDL
MODEL 4
REMARK VINA RESULT:      -5.7      4.781      8.168
REMARK  Name = 
REMARK  13 active torsions:
REMARK  status: ('A' for Active; 'I' for Inactive)
REMARK    1  A    between atoms: C_2  and  C_3
REMARK    2  A    between atoms: C_3  and  C_4
REMARK    3  A    between atoms: C_4  and  C_5
REMARK    4  A    between atoms: C_5  and  C_6
REMARK    5  A    between atoms: C_6  and  C_8
REMARK    6  A    between atoms: C_9  and  C_10
REMARK    7  A    between atoms: C_16  and  C_17
REMARK    8  A    between atoms: C_17  and  C_18
REMARK    9  A    between atoms: C_18  and  C_19
REMARK   10  A    between atoms: C_19  and  C_20
REMARK   11  A    between atoms: C_20  and  C_21
REMARK   12  A    between atoms: C_21  and  C_22
REMARK   13  A    between atoms: C_22  and  C_23
REMARK                            x       y       z     vdW  Elec       q    Type
REMARK                         _______ _______ _______ _____ _____    ______ ____
ROOT
ATOM      1  C   UNL     1      -9.864  17.739  66.127  0.00  0.00    +0.059 C 
ATOM      2  C   UNL     1      -8.257  17.937  66.561  0.00  0.00    +0.064 C 
ATOM      3  C   UNL     1      -8.537  17.824  68.128  0.00  0.00    +0.153 C 
ATOM      4  O   UNL     1      -7.916  17.010  68.758  0.00  0.00    -0.296 OA
ATOM      5  C   UNL     1      -9.326  18.968  68.269  0.00  0.00    +0.098 C 
ATOM      6  C   UNL     1     -10.632  18.456  67.452  0.00  0.00    +0.164 C 
ATOM      7  O   UNL     1     -10.769  19.762  66.686  0.00  0.00    -0.222 OA
ENDROOT
BRANCH   1   9
ATOM      8  C   UNL     1     -10.053  15.274  65.994  0.00  0.00    +0.002 C 
ATOM      9  C   UNL     1      -9.932  16.307  66.820  0.00  0.00    -0.026 C 
BRANCH   8  10
ATOM     10  C   UNL     1     -10.414  13.919  66.820  0.00  0.00    +0.174 C 
ATOM     11  O   UNL     1     -10.237  14.631  68.155  0.00  0.00    -0.218 OA
BRANCH  10  12
ATOM     12  C   UNL     1     -12.030  14.221  66.722  0.00  0.00    +0.037 C 
BRANCH  12  13
ATOM     13  C   UNL     1     -12.538  14.058  65.371  0.00  0.00    +0.003 C 
BRANCH  13  14
ATOM     14  C   UNL     1     -12.477  12.576  65.016  0.00  0.00    +0.000 C 
BRANCH  14  16
ATOM     15  C   UNL     1     -10.800  12.160  63.511  0.00  0.00    +0.000 C 
ATOM     16  C   UNL     1     -11.872  12.529  63.620  0.00  0.00    +0.000 C 
ENDBRANCH  14  16
ENDBRANCH  13  14
ENDBRANCH  12  13
ENDBRANCH  10  12
ENDBRANCH   8  10
ENDBRANCH   1   9
BRANCH   2  17
ATOM     17  C   UNL     1      -8.267  19.563  66.393  0.00  0.00    +0.008 C 
BRANCH  17  18
ATOM     18  C   UNL     1      -6.875  19.770  65.797  0.00  0.00    +0.000 C 
BRANCH  18  19
ATOM     19  C   UNL     1      -5.892  20.295  66.716  0.00  0.00    +0.000 C 
BRANCH  19  20
ATOM     20  C   UNL     1      -6.185  21.120  67.863  0.00  0.00    +0.001 C 
BRANCH  20  21
ATOM     21  C   UNL     1      -5.318  20.786  69.040  0.00  0.00    +0.012 C 
BRANCH  21  22
ATOM     22  C   UNL     1      -6.108  19.894  69.990  0.00  0.00    +0.114 C 
BRANCH  22  23
ATOM     23  C   UNL     1      -5.407  20.025  71.306  0.00  0.00    +0.365 C 
ATOM     24  O   UNL     1      -5.135  18.880  72.045  0.00  0.00    -0.246 OA
ATOM     25  O   UNL     1      -5.143  21.144  71.800  0.00  0.00    -0.246 OA
ENDBRANCH  22  23
ENDBRANCH  21  22
ENDBRANCH  20  21
ENDBRANCH  19  20
ENDBRANCH  18  19
ENDBRANCH  17  18
ENDBRANCH   2  17
TORSDOF 13
ENDMDL
MODEL 5
REMARK VINA RESULT:      -5.6      3.496      8.123
REMARK  Name = 
REMARK  13 active torsions:
REMARK  status: ('A' for Active; 'I' for Inactive)
REMARK    1  A    between atoms: C_2  and  C_3
REMARK    2  A    between atoms: C_3  and  C_4
REMARK    3  A    between atoms: C_4  and  C_5
REMARK    4  A    between atoms: C_5  and  C_6
REMARK    5  A    between atoms: C_6  and  C_8
REMARK    6  A    between atoms: C_9  and  C_10
REMARK    7  A    between atoms: C_16  and  C_17
REMARK    8  A    between atoms: C_17  and  C_18
REMARK    9  A    between atoms: C_18  and  C_19
REMARK   10  A    between atoms: C_19  and  C_20
REMARK   11  A    between atoms: C_20  and  C_21
REMARK   12  A    between atoms: C_21  and  C_22
REMARK   13  A    between atoms: C_22  and  C_23
REMARK                            x       y       z     vdW  Elec       q    Type
REMARK                         _______ _______ _______ _____ _____    ______ ____
ROOT
ATOM      1  C   UNL     1     -10.491  14.777  67.756  0.00  0.00    +0.059 C 
ATOM      2  C   UNL     1     -10.674  16.393  67.345  0.00  0.00    +0.064 C 
ATOM      3  C   UNL     1     -10.034  16.225  65.893  0.00  0.00    +0.153 C 
ATOM      4  O   UNL     1     -10.671  16.599  64.945  0.00  0.00    -0.296 OA
ATOM      5  C   UNL     1      -8.744  15.863  66.287  0.00  0.00    +0.098 C 
ATOM      6  C   UNL     1      -9.085  14.398  66.897  0.00  0.00    +0.164 C 
ATOM      7  O   UNL     1      -8.243  14.628  68.142  0.00  0.00    -0.222 OA
ENDROOT
BRANCH   1   9
ATOM      8  C   UNL     1     -11.809  13.044  66.577  0.00  0.00    +0.002 C 
ATOM      9  C   UNL     1     -11.403  14.308  66.538  0.00  0.00    -0.026 C 
BRANCH   8  10
ATOM     10  C   UNL     1     -12.463  12.609  65.152  0.00  0.00    +0.174 C 
ATOM     11  O   UNL     1     -13.119  13.973  64.983  0.00  0.00    -0.218 OA
BRANCH  10  12
ATOM     12  C   UNL     1     -11.093  13.018  64.333  0.00  0.00    +0.037 C 
BRANCH  12  13
ATOM     13  C   UNL     1     -10.717  12.012  63.356  0.00  0.00    +0.003 C 
BRANCH  13  14
ATOM     14  C   UNL     1     -10.212  10.784  64.106  0.00  0.00    +0.000 C 
BRANCH  14  16
ATOM     15  C   UNL     1      -8.930  10.578  62.219  0.00  0.00    +0.000 C 
ATOM     16  C   UNL     1      -9.394  10.005  63.086  0.00  0.00    +0.000 C 
ENDBRANCH  14  16
ENDBRANCH  13  14
ENDBRANCH  12  13
ENDBRANCH  10  12
ENDBRANCH   8  10
ENDBRANCH   1   9
BRANCH   2  17
ATOM     17  C   UNL     1      -9.355  16.896  68.172  0.00  0.00    +0.008 C 
BRANCH  17  18
ATOM     18  C   UNL     1      -9.907  18.188  68.775  0.00  0.00    +0.000 C 
BRANCH  18  19
ATOM     19  C   UNL     1     -10.276  19.199  67.813  0.00  0.00    +0.000 C 
BRANCH  19  20
ATOM     20  C   UNL     1      -9.388  20.206  67.284  0.00  0.00    +0.001 C 
BRANCH  20  21
ATOM     21  C   UNL     1      -8.563  19.695  66.140  0.00  0.00    +0.012 C 
BRANCH  21  22
ATOM     22  C   UNL     1      -7.137  19.469  66.629  0.00  0.00    +0.114 C 
BRANCH  22  23
ATOM     23  C   UNL     1      -6.389  20.690  66.192  0.00  0.00    +0.365 C 
ATOM     24  O   UNL     1      -6.176  21.717  67.104  0.00  0.00    -0.246 OA
ATOM     25  O   UNL     1      -6.034  20.851  65.003  0.00  0.00    -0.246 OA
ENDBRANCH  22  23
ENDBRANCH  21  22
ENDBRANCH  20  21
ENDBRANCH  19  20
ENDBRANCH  18  19
ENDBRANCH  17  18
ENDBRANCH   2  17
TORSDOF 13
ENDMDL
MODEL 6
REMARK VINA RESULT:      -5.6      4.629      7.776
REMARK  Name = 
REMARK  13 active torsions:
REMARK  status: ('A' for Active; 'I' for Inactive)
REMARK    1  A    between atoms: C_2  and  C_3
REMARK    2  A    between atoms: C_3  and  C_4
REMARK    3  A    between atoms: C_4  and  C_5
REMARK    4  A    between atoms: C_5  and  C_6
REMARK    5  A    between atoms: C_6  and  C_8
REMARK    6  A    between atoms: C_9  and  C_10
REMARK    7  A    between atoms: C_16  and  C_17
REMARK    8  A    between atoms: C_17  and  C_18
REMARK    9  A    between atoms: C_18  and  C_19
REMARK   10  A    between atoms: C_19  and  C_20
REMARK   11  A    between atoms: C_20  and  C_21
REMARK   12  A    between atoms: C_21  and  C_22
REMARK   13  A    between atoms: C_22  and  C_23
REMARK                            x       y       z     vdW  Elec       q    Type
REMARK                         _______ _______ _______ _____ _____    ______ ____
ROOT
ATOM      1  C   UNL     1      -9.145  16.471  66.408  0.00  0.00    +0.059 C 
ATOM      2  C   UNL     1      -9.300  16.350  68.073  0.00  0.00    +0.064 C 
ATOM      3  C   UNL     1     -10.676  17.155  68.129  0.00  0.00    +0.153 C 
ATOM      4  O   UNL     1     -11.616  16.636  68.670  0.00  0.00    -0.296 OA
ATOM      5  C   UNL     1     -10.202  18.387  67.673  0.00  0.00    +0.098 C 
ATOM      6  C   UNL     1      -9.887  17.966  66.137  0.00  0.00    +0.164 C 
ATOM      7  O   UNL     1      -8.533  18.657  66.137  0.00  0.00    -0.222 OA
ENDROOT
BRANCH   1   9
ATOM      8  C   UNL     1     -10.601  15.003  65.045  0.00  0.00    +0.002 C 
ATOM      9  C   UNL     1     -10.521  15.706  66.170  0.00  0.00    -0.026 C 
BRANCH   8  10
ATOM     10  C   UNL     1     -12.134  14.529  64.775  0.00  0.00    +0.174 C 
ATOM     11  O   UNL     1     -11.667  13.254  64.084  0.00  0.00    -0.218 OA
BRANCH  10  12
ATOM     12  C   UNL     1     -12.244  13.839  66.267  0.00  0.00    +0.037 C 
BRANCH  12  13
ATOM     13  C   UNL     1     -11.806  12.454  66.264  0.00  0.00    +0.003 C 
BRANCH  13  14
ATOM     14  C   UNL     1     -11.547  12.034  67.707  0.00  0.00    +0.000 C 
BRANCH  14  16
ATOM     15  C   UNL     1      -9.301  12.108  68.150  0.00  0.00    +0.000 C 
ATOM     16  C   UNL     1     -10.252  12.731  68.096  0.00  0.00    +0.000 C 
ENDBRANCH  14  16
ENDBRANCH  13  14
ENDBRANCH  12  13
ENDBRANCH  10  12
ENDBRANCH   8  10
ENDBRANCH   1   9
BRANCH   2  17
ATOM     17  C   UNL     1      -8.254  17.565  68.398  0.00  0.00    +0.008 C 
BRANCH  17  18
ATOM     18  C   UNL     1      -6.990  16.751  68.674  0.00  0.00    +0.000 C 
BRANCH  18  19
ATOM     19  C   UNL     1      -5.758  17.502  68.612  0.00  0.00    +0.000 C 
BRANCH  19  20
ATOM     20  C   UNL     1      -5.639  18.922  68.840  0.00  0.00    +0.001 C 
BRANCH  20  21
ATOM     21  C   UNL     1      -4.970  19.235  70.145  0.00  0.00    +0.012 C 
BRANCH  21  22
ATOM     22  C   UNL     1      -5.148  20.720  70.441  0.00  0.00    +0.114 C 
BRANCH  22  23
ATOM     23  C   UNL     1      -4.478  20.927  71.763  0.00  0.00    +0.365 C 
ATOM     24  O   UNL     1      -4.403  22.210  72.291  0.00  0.00    -0.246 OA
ATOM     25  O   UNL     1      -3.900  19.990  72.359  0.00  0.00    -0.246 OA
ENDBRANCH  22  23
ENDBRANCH  21  22
ENDBRANCH  20  21
ENDBRANCH  19  20
ENDBRANCH  18  19
ENDBRANCH  17  18
ENDBRANCH   2  17
TORSDOF 13
ENDMDL
MODEL 7
REMARK VINA RESULT:      -5.5      3.059      5.512
REMARK  Name = 
REMARK  13 active torsions:
REMARK  status: ('A' for Active; 'I' for Inactive)
REMARK    1  A    between atoms: C_2  and  C_3
REMARK    2  A    between atoms: C_3  and  C_4
REMARK    3  A    between atoms: C_4  and  C_5
REMARK    4  A    between atoms: C_5  and  C_6
REMARK    5  A    between atoms: C_6  and  C_8
REMARK    6  A    between atoms: C_9  and  C_10
REMARK    7  A    between atoms: C_16  and  C_17
REMARK    8  A    between atoms: C_17  and  C_18
REMARK    9  A    between atoms: C_18  and  C_19
REMARK   10  A    between atoms: C_19  and  C_20
REMARK   11  A    between atoms: C_20  and  C_21
REMARK   12  A    between atoms: C_21  and  C_22
REMARK   13  A    between atoms: C_22  and  C_23
REMARK                            x       y       z     vdW  Elec       q    Type
REMARK                         _______ _______ _______ _____ _____    ______ ____
ROOT
ATOM      1  C   UNL     1     -11.617  13.803  67.179  0.00  0.00    +0.059 C 
ATOM      2  C   UNL     1     -10.803  12.812  68.259  0.00  0.00    +0.064 C 
ATOM      3  C   UNL     1      -9.583  12.527  67.271  0.00  0.00    +0.153 C 
ATOM      4  O   UNL     1      -8.469  12.751  67.665  0.00  0.00    -0.296 OA
ATOM      5  C   UNL     1     -10.290  11.851  66.276  0.00  0.00    +0.098 C 
ATOM      6  C   UNL     1     -11.158  13.101  65.711  0.00  0.00    +0.164 C 
ATOM      7  O   UNL     1     -12.448  12.297  65.674  0.00  0.00    -0.222 OA
ENDROOT
BRANCH   1   9
ATOM      8  C   UNL     1     -10.652  16.054  67.541  0.00  0.00    +0.002 C 
ATOM      9  C   UNL     1     -10.397  14.824  67.112  0.00  0.00    -0.026 C 
BRANCH   8  10
ATOM     10  C   UNL     1      -9.439  17.063  67.142  0.00  0.00    +0.174 C 
ATOM     11  O   UNL     1      -9.419  16.547  65.709  0.00  0.00    -0.218 OA
BRANCH  10  12
ATOM     12  C   UNL     1     -10.489  18.292  66.825  0.00  0.00    +0.037 C 
BRANCH  12  13
ATOM     13  C   UNL     1      -9.820  19.458  66.274  0.00  0.00    +0.003 C 
BRANCH  13  14
ATOM     14  C   UNL     1      -9.411  20.363  67.431  0.00  0.00    +0.000 C 
BRANCH  14  16
ATOM     15  C   UNL     1      -7.276  19.893  68.114  0.00  0.00    +0.000 C 
ATOM     16  C   UNL     1      -7.895  20.457  67.343  0.00  0.00    +0.000 C 
ENDBRANCH  14  16
ENDBRANCH  13  14
ENDBRANCH  12  13
ENDBRANCH  10  12
ENDBRANCH   8  10
ENDBRANCH   1   9
BRANCH   2  17
ATOM     17  C   UNL     1     -11.720  11.493  67.955  0.00  0.00    +0.008 C 
BRANCH  17  18
ATOM     18  C   UNL     1     -11.901  10.970  69.380  0.00  0.00    +0.000 C 
BRANCH  18  19
ATOM     19  C   UNL     1     -12.156  11.987  70.373  0.00  0.00    +0.000 C 
BRANCH  19  20
ATOM     20  C   UNL     1     -12.977  11.814  71.547  0.00  0.00    +0.001 C 
BRANCH  20  21
ATOM     21  C   UNL     1     -13.406  13.123  72.140  0.00  0.00    +0.012 C 
BRANCH  21  22
ATOM     22  C   UNL     1     -13.012  14.244  71.185  0.00  0.00    +0.114 C 
BRANCH  22  23
ATOM     23  C   UNL     1     -13.181  15.499  71.982  0.00  0.00    +0.365 C 
ATOM     24  O   UNL     1     -14.463  15.958  72.260  0.00  0.00    -0.246 OA
ATOM     25  O   UNL     1     -12.199  16.197  72.323  0.00  0.00    -0.246 OA
ENDBRANCH  22  23
ENDBRANCH  21  22
ENDBRANCH  20  21
ENDBRANCH  19  20
ENDBRANCH  18  19
ENDBRANCH  17  18
ENDBRANCH   2  17
TORSDOF 13
ENDMDL
MODEL 8
REMARK VINA RESULT:      -5.5      1.348      4.430
REMARK  Name = 
REMARK  13 active torsions:
REMARK  status: ('A' for Active; 'I' for Inactive)
REMARK    1  A    between atoms: C_2  and  C_3
REMARK    2  A    between atoms: C_3  and  C_4
REMARK    3  A    between atoms: C_4  and  C_5
REMARK    4  A    between atoms: C_5  and  C_6
REMARK    5  A    between atoms: C_6  and  C_8
REMARK    6  A    between atoms: C_9  and  C_10
REMARK    7  A    between atoms: C_16  and  C_17
REMARK    8  A    between atoms: C_17  and  C_18
REMARK    9  A    between atoms: C_18  and  C_19
REMARK   10  A    between atoms: C_19  and  C_20
REMARK   11  A    between atoms: C_20  and  C_21
REMARK   12  A    between atoms: C_21  and  C_22
REMARK   13  A    between atoms: C_22  and  C_23
REMARK                            x       y       z     vdW  Elec       q    Type
REMARK                         _______ _______ _______ _____ _____    ______ ____
ROOT
ATOM      1  C   UNL     1      -9.347  11.821  67.484  0.00  0.00    +0.059 C 
ATOM      2  C   UNL     1     -10.814  11.224  66.935  0.00  0.00    +0.064 C 
ATOM      3  C   UNL     1     -11.227  10.596  68.343  0.00  0.00    +0.153 C 
ATOM      4  O   UNL     1     -12.288  10.909  68.815  0.00  0.00    -0.296 OA
ATOM      5  C   UNL     1     -10.209   9.646  68.441  0.00  0.00    +0.098 C 
ATOM      6  C   UNL     1      -8.959  10.660  68.651  0.00  0.00    +0.164 C 
ATOM      7  O   UNL     1      -8.084   9.923  67.649  0.00  0.00    -0.222 OA
ENDROOT
BRANCH   1   9
ATOM      8  C   UNL     1     -10.251  13.999  68.236  0.00  0.00    +0.002 C 
ATOM      9  C   UNL     1     -10.064  12.730  68.577  0.00  0.00    -0.026 C 
BRANCH   8  10
ATOM     10  C   UNL     1     -10.704  14.879  69.529  0.00  0.00    +0.174 C 
ATOM     11  O   UNL     1     -11.199  16.013  68.641  0.00  0.00    -0.218 OA
BRANCH  10  12
ATOM     12  C   UNL     1     -12.165  14.121  69.603  0.00  0.00    +0.037 C 
BRANCH  12  13
ATOM     13  C   UNL     1     -12.515  13.737  70.959  0.00  0.00    +0.003 C 
BRANCH  13  14
ATOM     14  C   UNL     1     -13.652  14.637  71.430  0.00  0.00    +0.000 C 
BRANCH  14  16
ATOM     15  C   UNL     1     -12.679  15.225  73.419  0.00  0.00    +0.000 C 
ATOM     16  C   UNL     1     -13.005  15.615  72.401  0.00  0.00    +0.000 C 
ENDBRANCH  14  16
ENDBRANCH  13  14
ENDBRANCH  12  13
ENDBRANCH  10  12
ENDBRANCH   8  10
ENDBRANCH   1   9
BRANCH   2  17
ATOM     17  C   UNL     1     -10.168   9.902  66.221  0.00  0.00    +0.008 C 
BRANCH  17  18
ATOM     18  C   UNL     1      -9.991  10.436  64.800  0.00  0.00    +0.000 C 
BRANCH  18  19
ATOM     19  C   UNL     1     -11.061  11.286  64.332  0.00  0.00    +0.000 C 
BRANCH  19  20
ATOM     20  C   UNL     1     -10.884  12.528  63.620  0.00  0.00    +0.001 C 
BRANCH  20  21
ATOM     21  C   UNL     1     -12.046  13.458  63.800  0.00  0.00    +0.012 C 
BRANCH  21  22
ATOM     22  C   UNL     1     -11.850  14.241  65.093  0.00  0.00    +0.114 C 
BRANCH  22  23
ATOM     23  C   UNL     1     -11.286  15.557  64.658  0.00  0.00    +0.365 C 
ATOM     24  O   UNL     1     -10.087  15.995  65.207  0.00  0.00    -0.246 OA
ATOM     25  O   UNL     1     -11.913  16.316  63.885  0.00  0.00    -0.246 OA
ENDBRANCH  22  23
ENDBRANCH  21  22
ENDBRANCH  20  21
ENDBRANCH  19  20
ENDBRANCH  18  19
ENDBRANCH  17  18
ENDBRANCH   2  17
TORSDOF 13
ENDMDL
MODEL 9
REMARK VINA RESULT:      -5.5      2.065      3.547
REMARK  Name = 
REMARK  13 active torsions:
REMARK  status: ('A' for Active; 'I' for Inactive)
REMARK    1  A    between atoms: C_2  and  C_3
REMARK    2  A    between atoms: C_3  and  C_4
REMARK    3  A    between atoms: C_4  and  C_5
REMARK    4  A    between atoms: C_5  and  C_6
REMARK    5  A    between atoms: C_6  and  C_8
REMARK    6  A    between atoms: C_9  and  C_10
REMARK    7  A    between atoms: C_16  and  C_17
REMARK    8  A    between atoms: C_17  and  C_18
REMARK    9  A    between atoms: C_18  and  C_19
REMARK   10  A    between atoms: C_19  and  C_20
REMARK   11  A    between atoms: C_20  and  C_21
REMARK   12  A    between atoms: C_21  and  C_22
REMARK   13  A    between atoms: C_22  and  C_23
REMARK                            x       y       z     vdW  Elec       q    Type
REMARK                         _______ _______ _______ _____ _____    ______ ____
ROOT
ATOM      1  C   UNL     1     -12.039  13.198  66.924  0.00  0.00    +0.059 C 
ATOM      2  C   UNL     1     -10.472  12.767  66.511  0.00  0.00    +0.064 C 
ATOM      3  C   UNL     1     -10.205  14.080  65.645  0.00  0.00    +0.153 C 
ATOM      4  O   UNL     1      -9.243  14.749  65.910  0.00  0.00    -0.296 OA
ATOM      5  C   UNL     1     -11.156  13.854  64.648  0.00  0.00    +0.098 C 
ATOM      6  C   UNL     1     -12.494  14.063  65.543  0.00  0.00    +0.164 C 
ATOM      7  O   UNL     1     -13.171  12.828  64.973  0.00  0.00    -0.222 OA
ENDROOT
BRANCH   1   9
ATOM      8  C   UNL     1     -11.048  14.379  68.861  0.00  0.00    +0.002 C 
ATOM      9  C   UNL     1     -11.542  14.532  67.637  0.00  0.00    -0.026 C 
BRANCH   8  10
ATOM     10  C   UNL     1     -10.863  15.823  69.588  0.00  0.00    +0.174 C 
ATOM     11  O   UNL     1      -9.355  15.790  69.374  0.00  0.00    -0.218 OA
BRANCH  10  12
ATOM     12  C   UNL     1     -11.178  16.632  68.188  0.00  0.00    +0.037 C 
BRANCH  12  13
ATOM     13  C   UNL     1     -10.371  17.833  68.055  0.00  0.00    +0.003 C 
BRANCH  13  14
ATOM     14  C   UNL     1     -10.170  18.110  66.569  0.00  0.00    +0.000 C 
BRANCH  14  16
ATOM     15  C   UNL     1      -9.879  20.240  67.360  0.00  0.00    +0.000 C 
ATOM     16  C   UNL     1      -9.639  19.535  66.500  0.00  0.00    +0.000 C 
ENDBRANCH  14  16
ENDBRANCH  13  14
ENDBRANCH  12  13
ENDBRANCH  10  12
ENDBRANCH   8  10
ENDBRANCH   1   9
BRANCH   2  17
ATOM     17  C   UNL     1     -10.920  11.736  65.323  0.00  0.00    +0.008 C 
BRANCH  17  18
ATOM     18  C   UNL     1     -10.080  10.518  65.707  0.00  0.00    +0.000 C 
BRANCH  18  19
ATOM     19  C   UNL     1      -9.866  10.351  67.126  0.00  0.00    +0.000 C 
BRANCH  19  20
ATOM     20  C   UNL     1     -10.712   9.587  68.009  0.00  0.00    +0.001 C 
BRANCH  20  21
ATOM     21  C   UNL     1     -10.697  10.117  69.412  0.00  0.00    +0.012 C 
BRANCH  21  22
ATOM     22  C   UNL     1     -12.022  10.821  69.682  0.00  0.00    +0.114 C 
BRANCH  22  23
ATOM     23  C   UNL     1     -12.344  10.489  71.106  0.00  0.00    +0.365 C 
ATOM     24  O   UNL     1     -11.832   9.324  71.663  0.00  0.00    -0.246 OA
ATOM     25  O   UNL     1     -13.138  11.185  71.778  0.00  0.00    -0.246 OA
ENDBRANCH  22  23
ENDBRANCH  21  22
ENDBRANCH  20  21
ENDBRANCH  19  20
ENDBRANCH  18  19
ENDBRANCH  17  18
ENDBRANCH   2  17
TORSDOF 13
ENDMDL
