MODEL 1
REMARK VINA RESULT:      -6.1      0.000      0.000
REMARK  Name = 
REMARK  6 active torsions:
REMARK  status: ('A' for Active; 'I' for Inactive)
REMARK    1  A    between atoms: C_2  and  N_4
REMARK    2  A    between atoms: N_4  and  C_5
REMARK    3  A    between atoms: C_5  and  C_6
REMARK    4  A    between atoms: C_6  and  C_8
REMARK    5  A    between atoms: C_8  and  O_9
REMARK    6  A    between atoms: O_9  and  C_10
REMARK                            x       y       z     vdW  Elec       q    Type
REMARK                         _______ _______ _______ _____ _____    ______ ____
ROOT
ATOM      1  C   UNL     1     -11.606  13.182  67.033  0.00  0.00    +0.139 A 
ATOM      2  C   UNL     1     -11.244  11.986  66.460  0.00  0.00    +0.034 A 
ATOM      3  C   UNL     1     -11.145  11.833  65.081  0.00  0.00    +0.003 A 
ATOM      4  C   UNL     1     -10.475  10.739  64.565  0.00  0.00    +0.000 A 
ATOM      5  C   UNL     1      -9.871   9.853  65.421  0.00  0.00    +0.000 A 
ATOM      6  C   UNL     1     -10.232   9.847  66.751  0.00  0.00    +0.000 A 
ATOM      7  C   UNL     1     -11.734  12.802  64.283  0.00  0.00    +0.000 A 
ATOM      8  C   UNL     1     -12.363  13.900  64.860  0.00  0.00    +0.003 A 
ATOM      9  C   UNL     1     -11.073  10.838  67.187  0.00  0.00    +0.003 A 
ATOM     10  C   UNL     1     -12.231  14.119  66.218  0.00  0.00    +0.037 A 
ENDROOT
BRANCH   1  11
ATOM     11  O   UNL     1     -11.243  13.419  68.331  0.00  0.00    -0.473 OA
BRANCH  11  12
ATOM     12  C   UNL     1     -12.043  13.996  69.337  0.00  0.00    +0.240 C 
BRANCH  12  13
ATOM     13  C   UNL     1     -11.008  15.251  69.770  0.00  0.00    +0.213 C 
ATOM     14  O   UNL     1     -11.985  16.311  69.205  0.00  0.00    -0.218 OA
BRANCH  13  15
ATOM     15  C   UNL     1     -11.671  15.360  71.310  0.00  0.00    +0.125 C 
BRANCH  15  16
ATOM     16  N   UNL     1     -13.036  15.722  71.114  0.00  0.00    -0.217 NA
BRANCH  16  18
ATOM     17  C   UNL     1     -14.013  13.893  72.355  0.00  0.00    +0.019 C 
ATOM     18  C   UNL     1     -13.734  15.390  72.353  0.00  0.00    +0.073 C 
ATOM     19  C   UNL     1     -12.855  15.655  73.562  0.00  0.00    +0.019 C 
ENDBRANCH  16  18
ENDBRANCH  15  16
ENDBRANCH  13  15
ENDBRANCH  12  13
ENDBRANCH  11  12
ENDBRANCH   1  11
TORSDOF 6
ENDMDL
MODEL 2
REMARK VINA RESULT:      -5.9      2.433      3.799
REMARK  Name = 
REMARK  6 active torsions:
REMARK  status: ('A' for Active; 'I' for Inactive)
REMARK    1  A    between atoms: C_2  and  N_4
REMARK    2  A    between atoms: N_4  and  C_5
REMARK    3  A    between atoms: C_5  and  C_6
REMARK    4  A    between atoms: C_6  and  C_8
REMARK    5  A    between atoms: C_8  and  O_9
REMARK    6  A    between atoms: O_9  and  C_10
REMARK                            x       y       z     vdW  Elec       q    Type
REMARK                         _______ _______ _______ _____ _____    ______ ____
ROOT
ATOM      1  C   UNL     1     -11.415  11.621  69.174  0.00  0.00    +0.139 A 
ATOM      2  C   UNL     1     -11.755  10.553  69.969  0.00  0.00    +0.034 A 
ATOM      3  C   UNL     1     -11.124   9.318  69.848  0.00  0.00    +0.003 A 
ATOM      4  C   UNL     1     -11.257   8.386  70.860  0.00  0.00    +0.000 A 
ATOM      5  C   UNL     1     -11.962   8.714  71.991  0.00  0.00    +0.000 A 
ATOM      6  C   UNL     1     -12.818   9.793  71.964  0.00  0.00    +0.000 A 
ATOM      7  C   UNL     1     -10.384   9.085  68.699  0.00  0.00    +0.000 A 
ATOM      8  C   UNL     1     -10.256  10.076  67.732  0.00  0.00    +0.003 A 
ATOM      9  C   UNL     1     -12.808  10.585  70.844  0.00  0.00    +0.003 A 
ATOM     10  C   UNL     1     -10.707  11.352  68.007  0.00  0.00    +0.037 A 
ENDROOT
BRANCH   1  11
ATOM     11  O   UNL     1     -11.700  12.883  69.621  0.00  0.00    -0.473 OA
BRANCH  11  12
ATOM     12  C   UNL     1     -12.035  14.001  68.832  0.00  0.00    +0.240 C 
BRANCH  12  13
ATOM     13  C   UNL     1     -11.057  15.134  69.601  0.00  0.00    +0.213 C 
ATOM     14  O   UNL     1     -12.022  16.286  69.227  0.00  0.00    -0.218 OA
BRANCH  13  15
ATOM     15  C   UNL     1     -11.814  14.888  71.081  0.00  0.00    +0.125 C 
BRANCH  15  16
ATOM     16  N   UNL     1     -12.938  15.764  71.085  0.00  0.00    -0.217 NA
BRANCH  16  18
ATOM     17  C   UNL     1     -13.884  13.904  72.303  0.00  0.00    +0.019 C 
ATOM     18  C   UNL     1     -13.728  15.418  72.264  0.00  0.00    +0.073 C 
ATOM     19  C   UNL     1     -12.999  15.798  73.540  0.00  0.00    +0.019 C 
ENDBRANCH  16  18
ENDBRANCH  15  16
ENDBRANCH  13  15
ENDBRANCH  12  13
ENDBRANCH  11  12
ENDBRANCH   1  11
TORSDOF 6
ENDMDL
MODEL 3
REMARK VINA RESULT:      -5.8      2.341      6.667
REMARK  Name = 
REMARK  6 active torsions:
REMARK  status: ('A' for Active; 'I' for Inactive)
REMARK    1  A    between atoms: C_2  and  N_4
REMARK    2  A    between atoms: N_4  and  C_5
REMARK    3  A    between atoms: C_5  and  C_6
REMARK    4  A    between atoms: C_6  and  C_8
REMARK    5  A    between atoms: C_8  and  O_9
REMARK    6  A    between atoms: O_9  and  C_10
REMARK                            x       y       z     vdW  Elec       q    Type
REMARK                         _______ _______ _______ _____ _____    ______ ____
ROOT
ATOM      1  C   UNL     1     -11.549  12.915  69.482  0.00  0.00    +0.139 A 
ATOM      2  C   UNL     1     -12.374  13.510  70.404  0.00  0.00    +0.034 A 
ATOM      3  C   UNL     1     -12.938  12.794  71.456  0.00  0.00    +0.003 A 
ATOM      4  C   UNL     1     -13.483  13.477  72.528  0.00  0.00    +0.000 A 
ATOM      5  C   UNL     1     -13.410  14.847  72.563  0.00  0.00    +0.000 A 
ATOM      6  C   UNL     1     -13.137  15.538  71.402  0.00  0.00    +0.000 A 
ATOM      7  C   UNL     1     -12.922  11.410  71.371  0.00  0.00    +0.000 A 
ATOM      8  C   UNL     1     -12.326  10.779  70.285  0.00  0.00    +0.003 A 
ATOM      9  C   UNL     1     -12.798  14.808  70.292  0.00  0.00    +0.003 A 
ATOM     10  C   UNL     1     -11.584  11.527  69.392  0.00  0.00    +0.037 A 
ENDROOT
BRANCH   1  11
ATOM     11  O   UNL     1     -10.675  13.703  68.783  0.00  0.00    -0.473 OA
BRANCH  11  12
ATOM     12  C   UNL     1     -10.342  13.588  67.420  0.00  0.00    +0.240 C 
BRANCH  12  13
ATOM     13  C   UNL     1     -11.566  14.561  66.795  0.00  0.00    +0.213 C 
ATOM     14  O   UNL     1     -10.562  15.319  65.891  0.00  0.00    -0.218 OA
BRANCH  13  15
ATOM     15  C   UNL     1     -11.926  13.452  65.585  0.00  0.00    +0.125 C 
BRANCH  15  16
ATOM     16  N   UNL     1     -10.850  13.540  64.654  0.00  0.00    -0.217 NA
BRANCH  16  18
ATOM     17  C   UNL     1     -10.456  11.158  64.561  0.00  0.00    +0.019 C 
ATOM     18  C   UNL     1     -10.957  12.370  63.787  0.00  0.00    +0.073 C 
ATOM     19  C   UNL     1     -12.406  12.077  63.440  0.00  0.00    +0.019 C 
ENDBRANCH  16  18
ENDBRANCH  15  16
ENDBRANCH  13  15
ENDBRANCH  12  13
ENDBRANCH  11  12
ENDBRANCH   1  11
TORSDOF 6
ENDMDL
MODEL 4
REMARK VINA RESULT:      -5.8      0.755      2.349
REMARK  Name = 
REMARK  6 active torsions:
REMARK  status: ('A' for Active; 'I' for Inactive)
REMARK    1  A    between atoms: C_2  and  N_4
REMARK    2  A    between atoms: N_4  and  C_5
REMARK    3  A    between atoms: C_5  and  C_6
REMARK    4  A    between atoms: C_6  and  C_8
REMARK    5  A    between atoms: C_8  and  O_9
REMARK    6  A    between atoms: O_9  and  C_10
REMARK                            x       y       z     vdW  Elec       q    Type
REMARK                         _______ _______ _______ _____ _____    ______ ____
ROOT
ATOM      1  C   UNL     1     -11.131  12.863  67.408  0.00  0.00    +0.139 A 
ATOM      2  C   UNL     1     -11.234  12.870  66.038  0.00  0.00    +0.034 A 
ATOM      3  C   UNL     1     -10.952  11.740  65.275  0.00  0.00    +0.003 A 
ATOM      4  C   UNL     1     -11.374  11.686  63.960  0.00  0.00    +0.000 A 
ATOM      5  C   UNL     1     -12.113  12.722  63.445  0.00  0.00    +0.000 A 
ATOM      6  C   UNL     1     -12.117  13.936  64.096  0.00  0.00    +0.000 A 
ATOM      7  C   UNL     1     -10.249  10.713  65.886  0.00  0.00    +0.000 A 
ATOM      8  C   UNL     1      -9.884  10.809  67.223  0.00  0.00    +0.003 A 
ATOM      9  C   UNL     1     -11.502  14.005  65.319  0.00  0.00    +0.003 A 
ATOM     10  C   UNL     1     -10.387  11.842  67.990  0.00  0.00    +0.037 A 
ENDROOT
BRANCH   1  11
ATOM     11  O   UNL     1     -11.842  13.791  68.119  0.00  0.00    -0.473 OA
BRANCH  11  12
ATOM     12  C   UNL     1     -11.993  13.845  69.519  0.00  0.00    +0.240 C 
BRANCH  12  13
ATOM     13  C   UNL     1     -11.034  15.197  69.808  0.00  0.00    +0.213 C 
ATOM     14  O   UNL     1     -12.122  16.144  69.245  0.00  0.00    -0.218 OA
BRANCH  13  15
ATOM     15  C   UNL     1     -11.609  15.357  71.379  0.00  0.00    +0.125 C 
BRANCH  15  16
ATOM     16  N   UNL     1     -12.941  15.846  71.250  0.00  0.00    -0.217 NA
BRANCH  16  18
ATOM     17  C   UNL     1     -14.212  14.046  72.241  0.00  0.00    +0.019 C 
ATOM     18  C   UNL     1     -13.649  15.443  72.462  0.00  0.00    +0.073 C 
ATOM     19  C   UNL     1     -12.697  15.331  73.638  0.00  0.00    +0.019 C 
ENDBRANCH  16  18
ENDBRANCH  15  16
ENDBRANCH  13  15
ENDBRANCH  12  13
ENDBRANCH  11  12
ENDBRANCH   1  11
TORSDOF 6
ENDMDL
MODEL 5
REMARK VINA RESULT:      -5.8      2.241      5.909
REMARK  Name = 
REMARK  6 active torsions:
REMARK  status: ('A' for Active; 'I' for Inactive)
REMARK    1  A    between atoms: C_2  and  N_4
REMARK    2  A    between atoms: N_4  and  C_5
REMARK    3  A    between atoms: C_5  and  C_6
REMARK    4  A    between atoms: C_6  and  C_8
REMARK    5  A    between atoms: C_8  and  O_9
REMARK    6  A    between atoms: O_9  and  C_10
REMARK                            x       y       z     vdW  Elec       q    Type
REMARK                         _______ _______ _______ _____ _____    ______ ____
ROOT
ATOM      1  C   UNL     1     -12.348  14.362  70.127  0.00  0.00    +0.139 A 
ATOM      2  C   UNL     1     -12.302  13.039  70.494  0.00  0.00    +0.034 A 
ATOM      3  C   UNL     1     -13.034  12.549  71.572  0.00  0.00    +0.003 A 
ATOM      4  C   UNL     1     -13.217  11.185  71.705  0.00  0.00    +0.000 A 
ATOM      5  C   UNL     1     -12.721  10.341  70.743  0.00  0.00    +0.000 A 
ATOM      6  C   UNL     1     -11.758  10.802  69.871  0.00  0.00    +0.000 A 
ATOM      7  C   UNL     1     -13.549  13.472  72.470  0.00  0.00    +0.000 A 
ATOM      8  C   UNL     1     -13.363  14.833  72.263  0.00  0.00    +0.003 A 
ATOM      9  C   UNL     1     -11.451  12.137  69.911  0.00  0.00    +0.003 A 
ATOM     10  C   UNL     1     -12.832  15.270  71.064  0.00  0.00    +0.037 A 
ENDROOT
BRANCH   1  11
ATOM     11  O   UNL     1     -12.015  14.695  68.843  0.00  0.00    -0.473 OA
BRANCH  11  12
ATOM     12  C   UNL     1     -11.526  15.938  68.394  0.00  0.00    +0.240 C 
BRANCH  12  13
ATOM     13  C   UNL     1     -10.838  15.413  66.950  0.00  0.00    +0.213 C 
ATOM     14  O   UNL     1      -9.908  14.428  67.700  0.00  0.00    -0.218 OA
BRANCH  13  15
ATOM     15  C   UNL     1     -12.020  14.239  66.731  0.00  0.00    +0.125 C 
BRANCH  15  16
ATOM     16  N   UNL     1     -12.294  14.229  65.333  0.00  0.00    -0.217 NA
BRANCH  16  18
ATOM     17  C   UNL     1     -11.496  11.985  65.740  0.00  0.00    +0.019 C 
ATOM     18  C   UNL     1     -11.490  13.152  64.761  0.00  0.00    +0.073 C 
ATOM     19  C   UNL     1     -12.112  12.628  63.479  0.00  0.00    +0.019 C 
ENDBRANCH  16  18
ENDBRANCH  15  16
ENDBRANCH  13  15
ENDBRANCH  12  13
ENDBRANCH  11  12
ENDBRANCH   1  11
TORSDOF 6
ENDMDL
MODEL 6
REMARK VINA RESULT:      -5.8      1.869      3.451
REMARK  Name = 
REMARK  6 active torsions:
REMARK  status: ('A' for Active; 'I' for Inactive)
REMARK    1  A    between atoms: C_2  and  N_4
REMARK    2  A    between atoms: N_4  and  C_5
REMARK    3  A    between atoms: C_5  and  C_6
REMARK    4  A    between atoms: C_6  and  C_8
REMARK    5  A    between atoms: C_8  and  O_9
REMARK    6  A    between atoms: O_9  and  C_10
REMARK                            x       y       z     vdW  Elec       q    Type
REMARK                         _______ _______ _______ _____ _____    ______ ____
ROOT
ATOM      1  C   UNL     1     -11.286  11.134  67.383  0.00  0.00    +0.139 A 
ATOM      2  C   UNL     1     -11.328  11.800  66.182  0.00  0.00    +0.034 A 
ATOM      3  C   UNL     1     -10.824  11.239  65.013  0.00  0.00    +0.003 A 
ATOM      4  C   UNL     1     -11.173  11.785  63.792  0.00  0.00    +0.000 A 
ATOM      5  C   UNL     1     -12.054  12.837  63.750  0.00  0.00    +0.000 A 
ATOM      6  C   UNL     1     -12.294  13.561  64.897  0.00  0.00    +0.000 A 
ATOM      7  C   UNL     1      -9.984  10.143  65.138  0.00  0.00    +0.000 A 
ATOM      8  C   UNL     1      -9.699   9.615  66.391  0.00  0.00    +0.003 A 
ATOM      9  C   UNL     1     -11.753  13.098  66.068  0.00  0.00    +0.003 A 
ATOM     10  C   UNL     1     -10.404  10.064  67.491  0.00  0.00    +0.037 A 
ENDROOT
BRANCH   1  11
ATOM     11  O   UNL     1     -12.175  11.493  68.360  0.00  0.00    -0.473 OA
BRANCH  11  12
ATOM     12  C   UNL     1     -11.869  11.856  69.686  0.00  0.00    +0.240 C 
BRANCH  12  13
ATOM     13  C   UNL     1     -12.745  10.651  70.468  0.00  0.00    +0.213 C 
ATOM     14  O   UNL     1     -11.454  10.040  71.068  0.00  0.00    -0.218 OA
BRANCH  13  15
ATOM     15  C   UNL     1     -13.000  11.615  71.820  0.00  0.00    +0.125 C 
BRANCH  15  16
ATOM     16  N   UNL     1     -12.996  12.957  71.339  0.00  0.00    -0.217 NA
BRANCH  16  18
ATOM     17  C   UNL     1     -12.801  14.609  73.092  0.00  0.00    +0.019 C 
ATOM     18  C   UNL     1     -13.769  13.742  72.297  0.00  0.00    +0.073 C 
ATOM     19  C   UNL     1     -14.706  14.703  71.587  0.00  0.00    +0.019 C 
ENDBRANCH  16  18
ENDBRANCH  15  16
ENDBRANCH  13  15
ENDBRANCH  12  13
ENDBRANCH  11  12
ENDBRANCH   1  11
TORSDOF 6
ENDMDL
MODEL 7
REMARK VINA RESULT:      -5.8      3.005      5.689
REMARK  Name = 
REMARK  6 active torsions:
REMARK  status: ('A' for Active; 'I' for Inactive)
REMARK    1  A    between atoms: C_2  and  N_4
REMARK    2  A    between atoms: N_4  and  C_5
REMARK    3  A    between atoms: C_5  and  C_6
REMARK    4  A    between atoms: C_6  and  C_8
REMARK    5  A    between atoms: C_8  and  O_9
REMARK    6  A    between atoms: O_9  and  C_10
REMARK                            x       y       z     vdW  Elec       q    Type
REMARK                         _______ _______ _______ _____ _____    ______ ____
ROOT
ATOM      1  C   UNL     1     -11.721  14.055  68.438  0.00  0.00    +0.139 A 
ATOM      2  C   UNL     1     -11.844  13.081  69.399  0.00  0.00    +0.034 A 
ATOM      3  C   UNL     1     -12.389  13.350  70.651  0.00  0.00    +0.003 A 
ATOM      4  C   UNL     1     -12.792  12.301  71.456  0.00  0.00    +0.000 A 
ATOM      5  C   UNL     1     -12.701  11.015  70.985  0.00  0.00    +0.000 A 
ATOM      6  C   UNL     1     -11.894  10.750  69.900  0.00  0.00    +0.000 A 
ATOM      7  C   UNL     1     -12.499  14.679  71.031  0.00  0.00    +0.000 A 
ATOM      8  C   UNL     1     -12.110  15.693  70.163  0.00  0.00    +0.003 A 
ATOM      9  C   UNL     1     -11.337  11.818  69.245  0.00  0.00    +0.003 A 
ATOM     10  C   UNL     1     -11.795  15.380  68.855  0.00  0.00    +0.037 A 
ENDROOT
BRANCH   1  11
ATOM     11  O   UNL     1     -11.634  13.670  67.127  0.00  0.00    -0.473 OA
BRANCH  11  12
ATOM     12  C   UNL     1     -12.532  13.997  66.092  0.00  0.00    +0.240 C 
BRANCH  12  13
ATOM     13  C   UNL     1     -11.436  13.981  64.815  0.00  0.00    +0.213 C 
ATOM     14  O   UNL     1     -12.549  14.330  63.797  0.00  0.00    -0.218 OA
BRANCH  13  15
ATOM     15  C   UNL     1     -11.040  15.598  65.042  0.00  0.00    +0.125 C 
BRANCH  15  16
ATOM     16  N   UNL     1      -9.622  15.630  65.178  0.00  0.00    -0.217 NA
BRANCH  16  18
ATOM     17  C   UNL     1      -7.888  16.920  66.260  0.00  0.00    +0.019 C 
ATOM     18  C   UNL     1      -9.337  16.458  66.347  0.00  0.00    +0.073 C 
ATOM     19  C   UNL     1     -10.181  17.719  66.341  0.00  0.00    +0.019 C 
ENDBRANCH  16  18
ENDBRANCH  15  16
ENDBRANCH  13  15
ENDBRANCH  12  13
ENDBRANCH  11  12
ENDBRANCH   1  11
TORSDOF 6
ENDMDL
MODEL 8
REMARK VINA RESULT:      -5.7      2.744      6.474
REMARK  Name = 
REMARK  6 active torsions:
REMARK  status: ('A' for Active; 'I' for Inactive)
REMARK    1  A    between atoms: C_2  and  N_4
REMARK    2  A    between atoms: N_4  and  C_5
REMARK    3  A    between atoms: C_5  and  C_6
REMARK    4  A    between atoms: C_6  and  C_8
REMARK    5  A    between atoms: C_8  and  O_9
REMARK    6  A    between atoms: O_9  and  C_10
REMARK                            x       y       z     vdW  Elec       q    Type
REMARK                         _______ _______ _______ _____ _____    ______ ____
ROOT
ATOM      1  C   UNL     1     -11.941  13.996  68.734  0.00  0.00    +0.139 A 
ATOM      2  C   UNL     1     -12.050  13.008  69.683  0.00  0.00    +0.034 A 
ATOM      3  C   UNL     1     -12.563  13.262  70.952  0.00  0.00    +0.003 A 
ATOM      4  C   UNL     1     -12.957  12.203  71.749  0.00  0.00    +0.000 A 
ATOM      5  C   UNL     1     -12.887  10.924  71.256  0.00  0.00    +0.000 A 
ATOM      6  C   UNL     1     -12.108  10.670  70.148  0.00  0.00    +0.000 A 
ATOM      7  C   UNL     1     -12.653  14.586  71.355  0.00  0.00    +0.000 A 
ATOM      8  C   UNL     1     -12.276  15.610  70.494  0.00  0.00    +0.003 A 
ATOM      9  C   UNL     1     -11.558  11.744  69.497  0.00  0.00    +0.003 A 
ATOM     10  C   UNL     1     -11.995  15.315  69.174  0.00  0.00    +0.037 A 
ENDROOT
BRANCH   1  11
ATOM     11  O   UNL     1     -11.889  13.632  67.417  0.00  0.00    -0.473 OA
BRANCH  11  12
ATOM     12  C   UNL     1     -11.675  14.483  66.315  0.00  0.00    +0.240 C 
BRANCH  12  13
ATOM     13  C   UNL     1     -12.443  13.549  65.143  0.00  0.00    +0.213 C 
ATOM     14  O   UNL     1     -12.613  14.776  64.213  0.00  0.00    -0.218 OA
BRANCH  13  15
ATOM     15  C   UNL     1     -10.984  13.122  64.427  0.00  0.00    +0.125 C 
BRANCH  15  16
ATOM     16  N   UNL     1     -11.303  12.091  63.496  0.00  0.00    -0.217 NA
BRANCH  16  18
ATOM     17  C   UNL     1      -9.450  10.707  62.795  0.00  0.00    +0.019 C 
ATOM     18  C   UNL     1     -10.501  10.930  63.874  0.00  0.00    +0.073 C 
ATOM     19  C   UNL     1      -9.736  11.189  65.159  0.00  0.00    +0.019 C 
ENDBRANCH  16  18
ENDBRANCH  15  16
ENDBRANCH  13  15
ENDBRANCH  12  13
ENDBRANCH  11  12
ENDBRANCH   1  11
TORSDOF 6
ENDMDL
MODEL 9
REMARK VINA RESULT:      -5.6      3.100      6.055
REMARK  Name = 
REMARK  6 active torsions:
REMARK  status: ('A' for Active; 'I' for Inactive)
REMARK    1  A    between atoms: C_2  and  N_4
REMARK    2  A    between atoms: N_4  and  C_5
REMARK    3  A    between atoms: C_5  and  C_6
REMARK    4  A    between atoms: C_6  and  C_8
REMARK    5  A    between atoms: C_8  and  O_9
REMARK    6  A    between atoms: O_9  and  C_10
REMARK                            x       y       z     vdW  Elec       q    Type
REMARK                         _______ _______ _______ _____ _____    ______ ____
ROOT
ATOM      1  C   UNL     1     -11.454  13.801  69.105  0.00  0.00    +0.139 A 
ATOM      2  C   UNL     1     -12.262  14.024  70.193  0.00  0.00    +0.034 A 
ATOM      3  C   UNL     1     -12.610  13.003  71.071  0.00  0.00    +0.003 A 
ATOM      4  C   UNL     1     -13.140  13.321  72.308  0.00  0.00    +0.000 A 
ATOM      5  C   UNL     1     -13.262  14.639  72.670  0.00  0.00    +0.000 A 
ATOM      6  C   UNL     1     -13.207  15.614  71.698  0.00  0.00    +0.000 A 
ATOM      7  C   UNL     1     -12.404  11.697  70.652  0.00  0.00    +0.000 A 
ATOM      8  C   UNL     1     -11.833  11.440  69.411  0.00  0.00    +0.003 A 
ATOM      9  C   UNL     1     -12.877  15.226  70.425  0.00  0.00    +0.003 A 
ATOM     10  C   UNL     1     -11.297  12.485  68.682  0.00  0.00    +0.037 A 
ENDROOT
BRANCH   1  11
ATOM     11  O   UNL     1     -10.776  14.861  68.567  0.00  0.00    -0.473 OA
BRANCH  11  12
ATOM     12  C   UNL     1     -10.523  15.095  67.201  0.00  0.00    +0.240 C 
BRANCH  12  13
ATOM     13  C   UNL     1      -9.335  16.273  67.379  0.00  0.00    +0.213 C 
ATOM     14  O   UNL     1      -9.288  16.520  65.851  0.00  0.00    -0.218 OA
BRANCH  13  15
ATOM     15  C   UNL     1     -10.473  17.487  67.610  0.00  0.00    +0.125 C 
BRANCH  15  16
ATOM     16  N   UNL     1      -9.914  18.353  68.594  0.00  0.00    -0.217 NA
BRANCH  16  18
ATOM     17  C   UNL     1      -8.347  19.904  67.604  0.00  0.00    +0.019 C 
ATOM     18  C   UNL     1      -9.806  19.671  67.973  0.00  0.00    +0.073 C 
ATOM     19  C   UNL     1     -10.583  19.726  66.670  0.00  0.00    +0.019 C 
ENDBRANCH  16  18
ENDBRANCH  15  16
ENDBRANCH  13  15
ENDBRANCH  12  13
ENDBRANCH  11  12
ENDBRANCH   1  11
TORSDOF 6
ENDMDL
