MODEL 1
REMARK VINA RESULT:      -5.5      0.000      0.000
REMARK  Name = 
REMARK  1 active torsions:
REMARK  status: ('A' for Active; 'I' for Inactive)
REMARK    1  A    between atoms: C_5  and  C_6
REMARK                            x       y       z     vdW  Elec       q    Type
REMARK                         _______ _______ _______ _____ _____    ______ ____
ROOT
ATOM      1  N   UNL     1     -11.978  11.588  67.617  0.00  0.00    -0.128 NA
ATOM      2  C   UNL     1     -11.442  12.279  66.484  0.00  0.00    +0.092 A 
ATOM      3  C   UNL     1     -12.244  12.652  65.412  0.00  0.00    +0.060 A 
ATOM      4  C   UNL     1     -11.970  13.823  64.717  0.00  0.00    +0.203 A 
ATOM      5  O   UNL     1     -12.709  14.208  63.599  0.00  0.00    -0.286 OA
ATOM      6  C   UNL     1     -10.874  14.599  65.071  0.00  0.00    +0.119 A 
ATOM      7  C   UNL     1      -9.915  14.065  65.902  0.00  0.00    +0.011 A 
ATOM      8  C   UNL     1     -10.170  12.837  66.499  0.00  0.00    +0.018 A 
ENDROOT
BRANCH   6   9
ATOM      9  C   UNL     1     -10.945  16.052  64.893  0.00  0.00    +0.391 C 
ATOM     10  O   UNL     1     -10.084  16.902  65.593  0.00  0.00    -0.240 OA
ATOM     11  O   UNL     1     -11.552  16.548  63.918  0.00  0.00    -0.240 OA
ENDBRANCH   6   9
TORSDOF 1
ENDMDL
MODEL 2
REMARK VINA RESULT:      -5.4      1.313      2.026
REMARK  Name = 
REMARK  1 active torsions:
REMARK  status: ('A' for Active; 'I' for Inactive)
REMARK    1  A    between atoms: C_5  and  C_6
REMARK                            x       y       z     vdW  Elec       q    Type
REMARK                         _______ _______ _______ _____ _____    ______ ____
ROOT
ATOM      1  N   UNL     1     -12.044  12.304  66.019  0.00  0.00    -0.128 NA
ATOM      2  C   UNL     1     -11.196  13.353  65.541  0.00  0.00    +0.092 A 
ATOM      3  C   UNL     1     -11.676  14.356  64.709  0.00  0.00    +0.060 A 
ATOM      4  C   UNL     1     -11.157  15.641  64.802  0.00  0.00    +0.203 A 
ATOM      5  O   UNL     1     -11.564  16.666  63.949  0.00  0.00    -0.286 OA
ATOM      6  C   UNL     1     -10.133  15.911  65.702  0.00  0.00    +0.119 A 
ATOM      7  C   UNL     1      -9.452  14.862  66.277  0.00  0.00    +0.011 A 
ATOM      8  C   UNL     1      -9.932  13.575  66.075  0.00  0.00    +0.018 A 
ENDROOT
BRANCH   6   9
ATOM      9  C   UNL     1     -10.058  17.241  66.313  0.00  0.00    +0.391 C 
ATOM     10  O   UNL     1     -10.638  17.491  67.559  0.00  0.00    -0.240 OA
ATOM     11  O   UNL     1      -9.239  18.091  65.895  0.00  0.00    -0.240 OA
ENDBRANCH   6   9
TORSDOF 1
ENDMDL
MODEL 3
REMARK VINA RESULT:      -5.3      3.095      3.904
REMARK  Name = 
REMARK  1 active torsions:
REMARK  status: ('A' for Active; 'I' for Inactive)
REMARK    1  A    between atoms: C_5  and  C_6
REMARK                            x       y       z     vdW  Elec       q    Type
REMARK                         _______ _______ _______ _____ _____    ______ ____
ROOT
ATOM      1  N   UNL     1     -11.217  16.737  64.273  0.00  0.00    -0.128 NA
ATOM      2  C   UNL     1     -11.335  15.412  64.799  0.00  0.00    +0.092 A 
ATOM      3  C   UNL     1     -12.352  14.555  64.396  0.00  0.00    +0.060 A 
ATOM      4  C   UNL     1     -12.116  13.189  64.319  0.00  0.00    +0.203 A 
ATOM      5  O   UNL     1     -13.121  12.284  63.978  0.00  0.00    -0.286 OA
ATOM      6  C   UNL     1     -10.876  12.678  64.681  0.00  0.00    +0.119 A 
ATOM      7  C   UNL     1      -9.999  13.478  65.377  0.00  0.00    +0.011 A 
ATOM      8  C   UNL     1     -10.314  14.821  65.534  0.00  0.00    +0.018 A 
ENDROOT
BRANCH   6   9
ATOM      9  C   UNL     1     -10.374  11.482  63.998  0.00  0.00    +0.391 C 
ATOM     10  O   UNL     1      -9.618  11.589  62.828  0.00  0.00    -0.240 OA
ATOM     11  O   UNL     1     -10.348  10.375  64.583  0.00  0.00    -0.240 OA
ENDBRANCH   6   9
TORSDOF 1
ENDMDL
MODEL 4
REMARK VINA RESULT:      -5.3      3.178      4.259
REMARK  Name = 
REMARK  1 active torsions:
REMARK  status: ('A' for Active; 'I' for Inactive)
REMARK    1  A    between atoms: C_5  and  C_6
REMARK                            x       y       z     vdW  Elec       q    Type
REMARK                         _______ _______ _______ _____ _____    ______ ____
ROOT
ATOM      1  N   UNL     1     -11.320  16.695  64.276  0.00  0.00    -0.128 NA
ATOM      2  C   UNL     1     -11.183  15.317  64.634  0.00  0.00    +0.092 A 
ATOM      3  C   UNL     1     -10.070  14.849  65.322  0.00  0.00    +0.060 A 
ATOM      4  C   UNL     1     -10.204  13.809  66.231  0.00  0.00    +0.203 A 
ATOM      5  O   UNL     1      -9.108  13.266  66.901  0.00  0.00    -0.286 OA
ATOM      6  C   UNL     1     -11.444  13.212  66.423  0.00  0.00    +0.119 A 
ATOM      7  C   UNL     1     -12.451  13.454  65.518  0.00  0.00    +0.011 A 
ATOM      8  C   UNL     1     -12.247  14.427  64.548  0.00  0.00    +0.018 A 
ENDROOT
BRANCH   6   9
ATOM      9  C   UNL     1     -11.777  12.676  67.747  0.00  0.00    +0.391 C 
ATOM     10  O   UNL     1     -12.074  13.531  68.811  0.00  0.00    -0.240 OA
ATOM     11  O   UNL     1     -12.092  11.473  67.888  0.00  0.00    -0.240 OA
ENDBRANCH   6   9
TORSDOF 1
ENDMDL
MODEL 5
REMARK VINA RESULT:      -5.2      5.911      6.734
REMARK  Name = 
REMARK  1 active torsions:
REMARK  status: ('A' for Active; 'I' for Inactive)
REMARK    1  A    between atoms: C_5  and  C_6
REMARK                            x       y       z     vdW  Elec       q    Type
REMARK                         _______ _______ _______ _____ _____    ______ ____
ROOT
ATOM      1  N   UNL     1     -10.935  16.135  67.793  0.00  0.00    -0.128 NA
ATOM      2  C   UNL     1     -11.110  15.501  69.064  0.00  0.00    +0.092 A 
ATOM      3  C   UNL     1     -11.122  16.230  70.247  0.00  0.00    +0.060 A 
ATOM      4  C   UNL     1     -11.924  15.822  71.304  0.00  0.00    +0.203 A 
ATOM      5  O   UNL     1     -11.925  16.486  72.530  0.00  0.00    -0.286 OA
ATOM      6  C   UNL     1     -12.686  14.666  71.190  0.00  0.00    +0.119 A 
ATOM      7  C   UNL     1     -12.423  13.789  70.162  0.00  0.00    +0.011 A 
ATOM      8  C   UNL     1     -11.530  14.181  69.173  0.00  0.00    +0.018 A 
ENDROOT
BRANCH   6   9
ATOM      9  C   UNL     1     -13.970  14.589  71.893  0.00  0.00    +0.391 C 
ATOM     10  O   UNL     1     -15.009  15.470  71.584  0.00  0.00    -0.240 OA
ATOM     11  O   UNL     1     -14.274  13.573  72.558  0.00  0.00    -0.240 OA
ENDBRANCH   6   9
TORSDOF 1
ENDMDL
MODEL 6
REMARK VINA RESULT:      -5.2      6.201      6.906
REMARK  Name = 
REMARK  1 active torsions:
REMARK  status: ('A' for Active; 'I' for Inactive)
REMARK    1  A    between atoms: C_5  and  C_6
REMARK                            x       y       z     vdW  Elec       q    Type
REMARK                         _______ _______ _______ _____ _____    ______ ____
ROOT
ATOM      1  N   UNL     1     -12.658  15.968  74.564  0.00  0.00    -0.128 NA
ATOM      2  C   UNL     1     -12.847  15.959  73.145  0.00  0.00    +0.092 A 
ATOM      3  C   UNL     1     -11.841  16.357  72.273  0.00  0.00    +0.060 A 
ATOM      4  C   UNL     1     -11.718  15.747  71.033  0.00  0.00    +0.203 A 
ATOM      5  O   UNL     1     -10.763  16.153  70.101  0.00  0.00    -0.286 OA
ATOM      6  C   UNL     1     -12.623  14.765  70.651  0.00  0.00    +0.119 A 
ATOM      7  C   UNL     1     -13.787  14.611  71.368  0.00  0.00    +0.011 A 
ATOM      8  C   UNL     1     -13.930  15.320  72.553  0.00  0.00    +0.018 A 
ENDROOT
BRANCH   6   9
ATOM      9  C   UNL     1     -12.167  13.681  69.774  0.00  0.00    +0.391 C 
ATOM     10  O   UNL     1     -11.990  12.386  70.269  0.00  0.00    -0.240 OA
ATOM     11  O   UNL     1     -12.210  13.805  68.529  0.00  0.00    -0.240 OA
ENDBRANCH   6   9
TORSDOF 1
ENDMDL
MODEL 7
REMARK VINA RESULT:      -5.1      1.421      1.722
REMARK  Name = 
REMARK  1 active torsions:
REMARK  status: ('A' for Active; 'I' for Inactive)
REMARK    1  A    between atoms: C_5  and  C_6
REMARK                            x       y       z     vdW  Elec       q    Type
REMARK                         _______ _______ _______ _____ _____    ______ ____
ROOT
ATOM      1  N   UNL     1     -12.106  11.326  68.178  0.00  0.00    -0.128 NA
ATOM      2  C   UNL     1     -11.402  12.355  67.475  0.00  0.00    +0.092 A 
ATOM      3  C   UNL     1     -10.857  12.135  66.216  0.00  0.00    +0.060 A 
ATOM      4  C   UNL     1     -10.817  13.167  65.288  0.00  0.00    +0.203 A 
ATOM      5  O   UNL     1     -10.226  13.012  64.035  0.00  0.00    -0.286 OA
ATOM      6  C   UNL     1     -11.287  14.428  65.634  0.00  0.00    +0.119 A 
ATOM      7  C   UNL     1     -11.517  14.717  66.960  0.00  0.00    +0.011 A 
ATOM      8  C   UNL     1     -11.442  13.682  67.883  0.00  0.00    +0.018 A 
ENDROOT
BRANCH   6   9
ATOM      9  C   UNL     1     -11.893  15.269  64.597  0.00  0.00    +0.391 C 
ATOM     10  O   UNL     1     -11.311  16.485  64.231  0.00  0.00    -0.240 OA
ATOM     11  O   UNL     1     -12.755  14.802  63.818  0.00  0.00    -0.240 OA
ENDBRANCH   6   9
TORSDOF 1
ENDMDL
MODEL 8
REMARK VINA RESULT:      -5.1      1.372      2.004
REMARK  Name = 
REMARK  1 active torsions:
REMARK  status: ('A' for Active; 'I' for Inactive)
REMARK    1  A    between atoms: C_5  and  C_6
REMARK                            x       y       z     vdW  Elec       q    Type
REMARK                         _______ _______ _______ _____ _____    ______ ____
ROOT
ATOM      1  N   UNL     1     -10.670  10.747  66.249  0.00  0.00    -0.128 NA
ATOM      2  C   UNL     1     -11.398  11.964  66.055  0.00  0.00    +0.092 A 
ATOM      3  C   UNL     1     -11.506  12.917  67.060  0.00  0.00    +0.060 A 
ATOM      4  C   UNL     1     -11.559  14.265  66.733  0.00  0.00    +0.203 A 
ATOM      5  O   UNL     1     -11.728  15.254  67.702  0.00  0.00    -0.286 OA
ATOM      6  C   UNL     1     -11.541  14.656  65.400  0.00  0.00    +0.119 A 
ATOM      7  C   UNL     1     -11.762  13.714  64.422  0.00  0.00    +0.011 A 
ATOM      8  C   UNL     1     -11.814  12.377  64.795  0.00  0.00    +0.018 A 
ENDROOT
BRANCH   6   9
ATOM      9  C   UNL     1     -10.916  15.933  65.043  0.00  0.00    +0.391 C 
ATOM     10  O   UNL     1      -9.603  16.219  65.427  0.00  0.00    -0.240 OA
ATOM     11  O   UNL     1     -11.412  16.662  64.155  0.00  0.00    -0.240 OA
ENDBRANCH   6   9
TORSDOF 1
ENDMDL
MODEL 9
REMARK VINA RESULT:      -5.1      2.408      3.220
REMARK  Name = 
REMARK  1 active torsions:
REMARK  status: ('A' for Active; 'I' for Inactive)
REMARK    1  A    between atoms: C_5  and  C_6
REMARK                            x       y       z     vdW  Elec       q    Type
REMARK                         _______ _______ _______ _____ _____    ______ ____
ROOT
ATOM      1  N   UNL     1     -11.925  16.248  68.804  0.00  0.00    -0.128 NA
ATOM      2  C   UNL     1     -11.303  15.262  67.974  0.00  0.00    +0.092 A 
ATOM      3  C   UNL     1     -11.754  13.949  67.938  0.00  0.00    +0.060 A 
ATOM      4  C   UNL     1     -11.680  13.223  66.757  0.00  0.00    +0.203 A 
ATOM      5  O   UNL     1     -12.065  11.885  66.686  0.00  0.00    -0.286 OA
ATOM      6  C   UNL     1     -11.119  13.799  65.623  0.00  0.00    +0.119 A 
ATOM      7  C   UNL     1     -10.390  14.959  65.752  0.00  0.00    +0.011 A 
ATOM      8  C   UNL     1     -10.395  15.607  66.980  0.00  0.00    +0.018 A 
ENDROOT
BRANCH   6   9
ATOM      9  C   UNL     1     -11.624  13.407  64.304  0.00  0.00    +0.391 C 
ATOM     10  O   UNL     1     -12.612  14.159  63.663  0.00  0.00    -0.240 OA
ATOM     11  O   UNL     1     -10.996  12.587  63.597  0.00  0.00    -0.240 OA
ENDBRANCH   6   9
TORSDOF 1
ENDMDL
