MODEL 1
REMARK VINA RESULT:      -6.7      0.000      0.000
REMARK  Name = 
REMARK  4 active torsions:
REMARK  status: ('A' for Active; 'I' for Inactive)
REMARK    1  A    between atoms: CA_3  and  C_4
REMARK    2  A    between atoms: CA_10  and  N_11
REMARK    3  A    between atoms: C_12  and  CA_14
REMARK    4  A    between atoms: CA_14  and  C_16
REMARK                            x       y       z     vdW  Elec       q    Type
REMARK                         _______ _______ _______ _____ _____    ______ ____
ROOT
ATOM      1  C   UNL     1     -11.278  11.036  66.157  0.00  0.00    +0.029 C 
ATOM      2  C   UNL     1     -10.896  12.427  66.334  0.00  0.00    -0.013 C 
ATOM      3  C   UNL     1     -11.456  13.097  67.555  0.00  0.00    +0.083 C 
ATOM      4  S   UNL     1     -11.155  14.898  67.490  0.00  0.00    -0.114 S 
ATOM      5  C   UNL     1      -9.521  14.939  66.505  0.00  0.00    +0.157 C 
ATOM      6  N   UNL     1     -10.250  14.510  65.236  0.00  0.00    -0.242 N 
ATOM      7  C   UNL     1     -10.885  15.797  65.029  0.00  0.00    +0.253 C 
ATOM      8  O   UNL     1     -11.507  16.302  64.081  0.00  0.00    -0.273 OA
ATOM      9  CA  UNL     1      -9.566  16.450  65.728  0.00  0.00    +0.200 C 
ATOM     10  CA  UNL     1     -10.629  13.131  65.232  0.00  0.00    +0.128 C 
ENDROOT
BRANCH   9  11
ATOM     11  N   UNL     1     -10.396  17.228  66.859  0.00  0.00    -0.194 NA
ATOM     12  C   UNL     1     -10.197  18.622  66.710  0.00  0.00    +0.264 C 
ATOM     13  O   UNL     1      -9.900  19.212  65.669  0.00  0.00    -0.271 OA
BRANCH  12  14
ATOM     14  CA  UNL     1      -9.828  19.409  68.104  0.00  0.00    +0.191 C 
ATOM     15  N   UNL     1      -9.954  20.849  67.398  0.00  0.00    -0.118 NA
BRANCH  14  16
ATOM     16  C   UNL     1      -8.214  19.335  67.806  0.00  0.00    +0.004 A 
ATOM     17  C   UNL     1      -7.625  20.522  67.504  0.00  0.00    -0.002 A 
ATOM     18  C   UNL     1      -6.239  20.491  67.385  0.00  0.00    -0.000 A 
ATOM     19  C   UNL     1      -5.544  19.340  67.737  0.00  0.00    -0.000 A 
ATOM     20  C   UNL     1      -6.208  18.281  68.350  0.00  0.00    -0.000 A 
ATOM     21  C   UNL     1      -7.583  18.347  68.535  0.00  0.00    -0.002 A 
ENDBRANCH  14  16
ENDBRANCH  12  14
ENDBRANCH   9  11
BRANCH  10  22
ATOM     22  C   UNL     1     -10.954  12.598  63.902  0.00  0.00    +0.401 C 
ATOM     23  OXT UNL     1      -9.975  11.998  63.117  0.00  0.00    -0.239 OA
ATOM     24  O   UNL     1     -12.002  12.938  63.273  0.00  0.00    -0.239 OA
ENDBRANCH  10  22
TORSDOF 4
ENDMDL
MODEL 2
REMARK VINA RESULT:      -6.5      2.374      2.816
REMARK  Name = 
REMARK  4 active torsions:
REMARK  status: ('A' for Active; 'I' for Inactive)
REMARK    1  A    between atoms: CA_3  and  C_4
REMARK    2  A    between atoms: CA_10  and  N_11
REMARK    3  A    between atoms: C_12  and  CA_14
REMARK    4  A    between atoms: CA_14  and  C_16
REMARK                            x       y       z     vdW  Elec       q    Type
REMARK                         _______ _______ _______ _____ _____    ______ ____
ROOT
ATOM      1  C   UNL     1     -12.444  11.673  70.798  0.00  0.00    +0.029 C 
ATOM      2  C   UNL     1     -11.908  12.899  70.230  0.00  0.00    -0.013 C 
ATOM      3  C   UNL     1     -12.647  14.153  70.595  0.00  0.00    +0.083 C 
ATOM      4  S   UNL     1     -12.064  15.556  69.581  0.00  0.00    -0.114 S 
ATOM      5  C   UNL     1     -10.249  15.043  69.294  0.00  0.00    +0.157 C 
ATOM      6  N   UNL     1     -10.691  13.912  68.372  0.00  0.00    -0.242 N 
ATOM      7  C   UNL     1     -11.046  14.792  67.275  0.00  0.00    +0.253 C 
ATOM      8  O   UNL     1     -11.322  14.601  66.079  0.00  0.00    -0.273 OA
ATOM      9  CA  UNL     1      -9.861  15.774  67.809  0.00  0.00    +0.200 C 
ATOM     10  CA  UNL     1     -11.266  12.801  69.064  0.00  0.00    +0.128 C 
ENDROOT
BRANCH   9  11
ATOM     11  N   UNL     1     -10.819  17.052  67.963  0.00  0.00    -0.194 NA
ATOM     12  C   UNL     1     -10.552  17.966  66.915  0.00  0.00    +0.264 C 
ATOM     13  O   UNL     1     -10.088  17.692  65.805  0.00  0.00    -0.271 OA
BRANCH  12  14
ATOM     14  CA  UNL     1     -10.362  19.523  67.401  0.00  0.00    +0.191 C 
ATOM     15  N   UNL     1     -10.301  20.056  65.885  0.00  0.00    -0.118 NA
BRANCH  14  16
ATOM     16  C   UNL     1      -8.727  19.377  67.480  0.00  0.00    +0.004 A 
ATOM     17  C   UNL     1      -8.033  20.141  66.597  0.00  0.00    -0.002 A 
ATOM     18  C   UNL     1      -6.651  20.127  66.747  0.00  0.00    -0.000 A 
ATOM     19  C   UNL     1      -6.085  19.500  67.852  0.00  0.00    -0.000 A 
ATOM     20  C   UNL     1      -6.896  19.026  68.879  0.00  0.00    -0.000 A 
ATOM     21  C   UNL     1      -8.277  19.109  68.758  0.00  0.00    -0.002 A 
ENDBRANCH  14  16
ENDBRANCH  12  14
ENDBRANCH   9  11
BRANCH  10  22
ATOM     22  C   UNL     1     -11.324  11.562  68.276  0.00  0.00    +0.401 C 
ATOM     23  OXT UNL     1     -10.318  10.606  68.377  0.00  0.00    -0.239 OA
ATOM     24  O   UNL     1     -12.066  11.443  67.254  0.00  0.00    -0.239 OA
ENDBRANCH  10  22
TORSDOF 4
ENDMDL
MODEL 3
REMARK VINA RESULT:      -6.4      4.385      8.680
REMARK  Name = 
REMARK  4 active torsions:
REMARK  status: ('A' for Active; 'I' for Inactive)
REMARK    1  A    between atoms: CA_3  and  C_4
REMARK    2  A    between atoms: CA_10  and  N_11
REMARK    3  A    between atoms: C_12  and  CA_14
REMARK    4  A    between atoms: CA_14  and  C_16
REMARK                            x       y       z     vdW  Elec       q    Type
REMARK                         _______ _______ _______ _____ _____    ______ ____
ROOT
ATOM      1  C   UNL     1     -10.665  15.611  65.134  0.00  0.00    +0.029 C 
ATOM      2  C   UNL     1     -10.748  14.486  66.051  0.00  0.00    -0.013 C 
ATOM      3  C   UNL     1      -9.789  14.526  67.205  0.00  0.00    +0.083 C 
ATOM      4  S   UNL     1      -9.786  12.927  68.089  0.00  0.00    -0.114 S 
ATOM      5  C   UNL     1     -11.586  12.367  67.793  0.00  0.00    +0.157 C 
ATOM      6  N   UNL     1     -11.290  12.121  66.318  0.00  0.00    -0.242 N 
ATOM      7  C   UNL     1     -10.520  10.915  66.556  0.00  0.00    +0.253 C 
ATOM      8  O   UNL     1     -10.086  10.017  65.817  0.00  0.00    -0.273 OA
ATOM      9  CA  UNL     1     -11.486  10.671  67.846  0.00  0.00    +0.200 C 
ATOM     10  CA  UNL     1     -11.164  13.321  65.551  0.00  0.00    +0.128 C 
ENDROOT
BRANCH   9  11
ATOM     11  N   UNL     1     -10.274  10.578  68.893  0.00  0.00    -0.194 NA
ATOM     12  C   UNL     1     -10.103   9.229  69.290  0.00  0.00    +0.264 C 
ATOM     13  O   UNL     1     -10.414   8.229  68.640  0.00  0.00    -0.271 OA
BRANCH  12  14
ATOM     14  CA  UNL     1      -9.968   9.010  70.912  0.00  0.00    +0.191 C 
ATOM     15  N   UNL     1      -9.624   7.449  70.736  0.00  0.00    -0.118 NA
BRANCH  14  16
ATOM     16  C   UNL     1     -11.573   8.701  71.079  0.00  0.00    +0.004 A 
ATOM     17  C   UNL     1     -11.889   7.408  71.351  0.00  0.00    -0.002 A 
ATOM     18  C   UNL     1     -13.231   7.164  71.627  0.00  0.00    -0.000 A 
ATOM     19  C   UNL     1     -14.108   8.232  71.778  0.00  0.00    -0.000 A 
ATOM     20  C   UNL     1     -13.623   9.537  71.807  0.00  0.00    -0.000 A 
ATOM     21  C   UNL     1     -12.269   9.771  71.604  0.00  0.00    -0.002 A 
ENDBRANCH  14  16
ENDBRANCH  12  14
ENDBRANCH   9  11
BRANCH  10  22
ATOM     22  C   UNL     1     -11.286  13.126  64.100  0.00  0.00    +0.401 C 
ATOM     23  OXT UNL     1     -12.498  13.340  63.452  0.00  0.00    -0.239 OA
ATOM     24  O   UNL     1     -10.441  12.455  63.433  0.00  0.00    -0.239 OA
ENDBRANCH  10  22
TORSDOF 4
ENDMDL
MODEL 4
REMARK VINA RESULT:      -6.3      1.875      7.103
REMARK  Name = 
REMARK  4 active torsions:
REMARK  status: ('A' for Active; 'I' for Inactive)
REMARK    1  A    between atoms: CA_3  and  C_4
REMARK    2  A    between atoms: CA_10  and  N_11
REMARK    3  A    between atoms: C_12  and  CA_14
REMARK    4  A    between atoms: CA_14  and  C_16
REMARK                            x       y       z     vdW  Elec       q    Type
REMARK                         _______ _______ _______ _____ _____    ______ ____
ROOT
ATOM      1  C   UNL     1      -6.798  18.086  68.353  0.00  0.00    +0.029 C 
ATOM      2  C   UNL     1      -7.839  17.153  67.955  0.00  0.00    -0.013 C 
ATOM      3  C   UNL     1      -7.363  15.778  67.588  0.00  0.00    +0.083 C 
ATOM      4  S   UNL     1      -8.714  14.816  66.822  0.00  0.00    -0.114 S 
ATOM      5  C   UNL     1     -10.223  15.576  67.708  0.00  0.00    +0.157 C 
ATOM      6  N   UNL     1     -10.044  16.882  66.941  0.00  0.00    -0.242 N 
ATOM      7  C   UNL     1     -10.534  16.345  65.687  0.00  0.00    +0.253 C 
ATOM      8  O   UNL     1     -10.868  16.860  64.607  0.00  0.00    -0.273 OA
ATOM      9  CA  UNL     1     -11.484  15.374  66.587  0.00  0.00    +0.200 C 
ATOM     10  CA  UNL     1      -8.937  17.665  67.395  0.00  0.00    +0.128 C 
ENDROOT
BRANCH   9  11
ATOM     11  N   UNL     1     -10.941  14.018  65.923  0.00  0.00    -0.194 NA
ATOM     12  C   UNL     1     -11.874  13.564  64.959  0.00  0.00    +0.264 C 
ATOM     13  O   UNL     1     -12.679  14.258  64.335  0.00  0.00    -0.271 OA
BRANCH  12  14
ATOM     14  CA  UNL     1     -12.248  11.969  65.075  0.00  0.00    +0.191 C 
ATOM     15  N   UNL     1     -11.811  11.913  66.622  0.00  0.00    -0.118 NA
BRANCH  14  16
ATOM     16  C   UNL     1     -10.754  11.505  64.572  0.00  0.00    +0.004 A 
ATOM     17  C   UNL     1     -10.171  10.526  65.312  0.00  0.00    -0.002 A 
ATOM     18  C   UNL     1      -8.969  10.034  64.815  0.00  0.00    -0.000 A 
ATOM     19  C   UNL     1      -8.533  10.426  63.554  0.00  0.00    -0.000 A 
ATOM     20  C   UNL     1      -9.363  11.181  62.731  0.00  0.00    -0.000 A 
ATOM     21  C   UNL     1     -10.597  11.608  63.204  0.00  0.00    -0.002 A 
ENDBRANCH  14  16
ENDBRANCH  12  14
ENDBRANCH   9  11
BRANCH  10  22
ATOM     22  C   UNL     1      -8.978  19.071  66.972  0.00  0.00    +0.401 C 
ATOM     23  OXT UNL     1      -9.756  19.999  67.658  0.00  0.00    -0.239 OA
ATOM     24  O   UNL     1      -8.608  19.444  65.818  0.00  0.00    -0.239 OA
ENDBRANCH  10  22
TORSDOF 4
ENDMDL
MODEL 5
REMARK VINA RESULT:      -6.3      2.354      7.509
REMARK  Name = 
REMARK  4 active torsions:
REMARK  status: ('A' for Active; 'I' for Inactive)
REMARK    1  A    between atoms: CA_3  and  C_4
REMARK    2  A    between atoms: CA_10  and  N_11
REMARK    3  A    between atoms: C_12  and  CA_14
REMARK    4  A    between atoms: CA_14  and  C_16
REMARK                            x       y       z     vdW  Elec       q    Type
REMARK                         _______ _______ _______ _____ _____    ______ ____
ROOT
ATOM      1  C   UNL     1      -4.852  19.854  70.067  0.00  0.00    +0.029 C 
ATOM      2  C   UNL     1      -5.985  19.201  69.433  0.00  0.00    -0.013 C 
ATOM      3  C   UNL     1      -6.193  17.763  69.812  0.00  0.00    +0.083 C 
ATOM      4  S   UNL     1      -7.442  16.990  68.725  0.00  0.00    -0.114 S 
ATOM      5  C   UNL     1      -8.541  18.500  68.335  0.00  0.00    +0.157 C 
ATOM      6  N   UNL     1      -7.439  19.107  67.474  0.00  0.00    -0.242 N 
ATOM      7  C   UNL     1      -7.622  18.174  66.379  0.00  0.00    +0.253 C 
ATOM      8  O   UNL     1      -7.207  18.134  65.210  0.00  0.00    -0.273 OA
ATOM      9  CA  UNL     1      -9.193  18.130  66.809  0.00  0.00    +0.200 C 
ATOM     10  CA  UNL     1      -6.353  19.648  68.231  0.00  0.00    +0.128 C 
ENDROOT
BRANCH   9  11
ATOM     11  N   UNL     1      -9.228  16.536  66.992  0.00  0.00    -0.194 NA
ATOM     12  C   UNL     1     -10.152  15.981  66.073  0.00  0.00    +0.264 C 
ATOM     13  O   UNL     1     -10.498  16.471  64.996  0.00  0.00    -0.271 OA
BRANCH  12  14
ATOM     14  CA  UNL     1     -11.197  14.898  66.731  0.00  0.00    +0.191 C 
ATOM     15  N   UNL     1     -10.011  14.122  67.492  0.00  0.00    -0.118 NA
BRANCH  14  16
ATOM     16  C   UNL     1     -11.098  13.900  65.429  0.00  0.00    +0.004 A 
ATOM     17  C   UNL     1     -10.087  12.992  65.470  0.00  0.00    -0.002 A 
ATOM     18  C   UNL     1     -10.078  12.057  64.440  0.00  0.00    -0.000 A 
ATOM     19  C   UNL     1     -11.153  11.992  63.560  0.00  0.00    -0.000 A 
ATOM     20  C   UNL     1     -12.298  12.747  63.797  0.00  0.00    -0.000 A 
ATOM     21  C   UNL     1     -12.331  13.626  64.872  0.00  0.00    -0.002 A 
ENDBRANCH  14  16
ENDBRANCH  12  14
ENDBRANCH   9  11
BRANCH  10  22
ATOM     22  C   UNL     1      -5.499  20.579  67.481  0.00  0.00    +0.401 C 
ATOM     23  OXT UNL     1      -5.929  21.871  67.198  0.00  0.00    -0.239 OA
ATOM     24  O   UNL     1      -4.516  20.184  66.783  0.00  0.00    -0.239 OA
ENDBRANCH  10  22
TORSDOF 4
ENDMDL
MODEL 6
REMARK VINA RESULT:      -6.2      3.410      7.093
REMARK  Name = 
REMARK  4 active torsions:
REMARK  status: ('A' for Active; 'I' for Inactive)
REMARK    1  A    between atoms: CA_3  and  C_4
REMARK    2  A    between atoms: CA_10  and  N_11
REMARK    3  A    between atoms: C_12  and  CA_14
REMARK    4  A    between atoms: CA_14  and  C_16
REMARK                            x       y       z     vdW  Elec       q    Type
REMARK                         _______ _______ _______ _____ _____    ______ ____
ROOT
ATOM      1  C   UNL     1      -4.196  18.857  66.629  0.00  0.00    +0.029 C 
ATOM      2  C   UNL     1      -5.438  18.302  67.142  0.00  0.00    -0.013 C 
ATOM      3  C   UNL     1      -5.539  16.806  67.102  0.00  0.00    +0.083 C 
ATOM      4  S   UNL     1      -7.244  16.269  67.481  0.00  0.00    -0.114 S 
ATOM      5  C   UNL     1      -7.794  17.671  68.652  0.00  0.00    +0.157 C 
ATOM      6  N   UNL     1      -7.829  18.658  67.491  0.00  0.00    -0.242 N 
ATOM      7  C   UNL     1      -9.040  18.110  66.912  0.00  0.00    +0.253 C 
ATOM      8  O   UNL     1      -9.818  18.501  66.027  0.00  0.00    -0.273 OA
ATOM      9  CA  UNL     1      -9.479  17.731  68.435  0.00  0.00    +0.200 C 
ATOM     10  CA  UNL     1      -6.531  19.062  67.043  0.00  0.00    +0.128 C 
ENDROOT
BRANCH   9  11
ATOM     11  N   UNL     1      -9.691  16.172  68.118  0.00  0.00    -0.194 NA
ATOM     12  C   UNL     1     -10.956  15.764  68.607  0.00  0.00    +0.264 C 
ATOM     13  O   UNL     1     -11.943  16.484  68.775  0.00  0.00    -0.271 OA
BRANCH  12  14
ATOM     14  CA  UNL     1     -10.930  14.375  69.483  0.00  0.00    +0.191 C 
ATOM     15  N   UNL     1     -12.110  13.725  68.603  0.00  0.00    -0.118 NA
BRANCH  14  16
ATOM     16  C   UNL     1     -11.995  14.964  70.587  0.00  0.00    +0.004 A 
ATOM     17  C   UNL     1     -13.129  14.233  70.746  0.00  0.00    -0.002 A 
ATOM     18  C   UNL     1     -13.972  14.648  71.773  0.00  0.00    -0.000 A 
ATOM     19  C   UNL     1     -13.546  15.634  72.656  0.00  0.00    -0.000 A 
ATOM     20  C   UNL     1     -12.233  16.093  72.612  0.00  0.00    -0.000 A 
ATOM     21  C   UNL     1     -11.372  15.621  71.630  0.00  0.00    -0.002 A 
ENDBRANCH  14  16
ENDBRANCH  12  14
ENDBRANCH   9  11
BRANCH  10  22
ATOM     22  C   UNL     1      -6.527  20.284  66.229  0.00  0.00    +0.401 C 
ATOM     23  OXT UNL     1      -6.471  21.539  66.828  0.00  0.00    -0.239 OA
ATOM     24  O   UNL     1      -6.901  20.294  65.017  0.00  0.00    -0.239 OA
ENDBRANCH  10  22
TORSDOF 4
ENDMDL
MODEL 7
REMARK VINA RESULT:      -6.2      1.913      2.447
REMARK  Name = 
REMARK  4 active torsions:
REMARK  status: ('A' for Active; 'I' for Inactive)
REMARK    1  A    between atoms: CA_3  and  C_4
REMARK    2  A    between atoms: CA_10  and  N_11
REMARK    3  A    between atoms: C_12  and  CA_14
REMARK    4  A    between atoms: CA_14  and  C_16
REMARK                            x       y       z     vdW  Elec       q    Type
REMARK                         _______ _______ _______ _____ _____    ______ ____
ROOT
ATOM      1  C   UNL     1     -12.043  13.528  69.092  0.00  0.00    +0.029 C 
ATOM      2  C   UNL     1     -11.207  14.601  68.580  0.00  0.00    -0.013 C 
ATOM      3  C   UNL     1     -11.346  15.917  69.287  0.00  0.00    +0.083 C 
ATOM      4  S   UNL     1     -10.486  17.236  68.359  0.00  0.00    -0.114 S 
ATOM      5  C   UNL     1      -9.079  16.229  67.555  0.00  0.00    +0.157 C 
ATOM      6  N   UNL     1     -10.073  15.536  66.630  0.00  0.00    -0.242 N 
ATOM      7  C   UNL     1     -10.276  16.700  65.789  0.00  0.00    +0.253 C 
ATOM      8  O   UNL     1     -10.823  16.876  64.688  0.00  0.00    -0.273 OA
ATOM      9  CA  UNL     1      -8.734  17.096  66.134  0.00  0.00    +0.200 C 
ATOM     10  CA  UNL     1     -10.879  14.554  67.287  0.00  0.00    +0.128 C 
ENDROOT
BRANCH   9  11
ATOM     11  N   UNL     1      -9.103  18.552  66.699  0.00  0.00    -0.194 NA
ATOM     12  C   UNL     1      -8.082  19.465  66.338  0.00  0.00    +0.264 C 
ATOM     13  O   UNL     1      -7.322  19.370  65.372  0.00  0.00    -0.271 OA
BRANCH  12  14
ATOM     14  CA  UNL     1      -7.554  20.415  67.569  0.00  0.00    +0.191 C 
ATOM     15  N   UNL     1      -6.564  21.231  66.599  0.00  0.00    -0.118 NA
BRANCH  14  16
ATOM     16  C   UNL     1      -6.372  19.351  67.982  0.00  0.00    +0.004 A 
ATOM     17  C   UNL     1      -5.106  19.747  67.687  0.00  0.00    -0.002 A 
ATOM     18  C   UNL     1      -4.093  18.916  68.154  0.00  0.00    -0.000 A 
ATOM     19  C   UNL     1      -4.404  17.865  69.010  0.00  0.00    -0.000 A 
ATOM     20  C   UNL     1      -5.693  17.737  69.520  0.00  0.00    -0.000 A 
ATOM     21  C   UNL     1      -6.686  18.616  69.108  0.00  0.00    -0.002 A 
ENDBRANCH  14  16
ENDBRANCH  12  14
ENDBRANCH   9  11
BRANCH  10  22
ATOM     22  C   UNL     1     -11.537  13.606  66.378  0.00  0.00    +0.401 C 
ATOM     23  OXT UNL     1     -10.905  12.427  65.997  0.00  0.00    -0.239 OA
ATOM     24  O   UNL     1     -12.519  13.939  65.646  0.00  0.00    -0.239 OA
ENDBRANCH  10  22
TORSDOF 4
ENDMDL
MODEL 8
REMARK VINA RESULT:      -6.1      2.297      6.674
REMARK  Name = 
REMARK  4 active torsions:
REMARK  status: ('A' for Active; 'I' for Inactive)
REMARK    1  A    between atoms: CA_3  and  C_4
REMARK    2  A    between atoms: CA_10  and  N_11
REMARK    3  A    between atoms: C_12  and  CA_14
REMARK    4  A    between atoms: CA_14  and  C_16
REMARK                            x       y       z     vdW  Elec       q    Type
REMARK                         _______ _______ _______ _____ _____    ______ ____
ROOT
ATOM      1  C   UNL     1      -5.310  17.110  70.330  0.00  0.00    +0.029 C 
ATOM      2  C   UNL     1      -6.381  16.829  69.388  0.00  0.00    -0.013 C 
ATOM      3  C   UNL     1      -6.257  15.533  68.641  0.00  0.00    +0.083 C 
ATOM      4  S   UNL     1      -7.484  15.453  67.290  0.00  0.00    -0.114 S 
ATOM      5  C   UNL     1      -8.893  16.497  68.043  0.00  0.00    +0.157 C 
ATOM      6  N   UNL     1      -8.064  17.767  67.888  0.00  0.00    -0.242 N 
ATOM      7  C   UNL     1      -8.227  17.836  66.449  0.00  0.00    +0.253 C 
ATOM      8  O   UNL     1      -7.988  18.711  65.601  0.00  0.00    -0.273 OA
ATOM      9  CA  UNL     1      -9.682  17.138  66.680  0.00  0.00    +0.200 C 
ATOM     10  CA  UNL     1      -6.999  17.876  68.838  0.00  0.00    +0.128 C 
ENDROOT
BRANCH   9  11
ATOM     11  N   UNL     1      -9.389  15.911  65.689  0.00  0.00    -0.194 NA
ATOM     12  C   UNL     1     -10.498  15.733  64.826  0.00  0.00    +0.264 C 
ATOM     13  O   UNL     1     -11.311  16.597  64.490  0.00  0.00    -0.271 OA
BRANCH  12  14
ATOM     14  CA  UNL     1     -11.016  14.179  64.697  0.00  0.00    +0.191 C 
ATOM     15  N   UNL     1     -12.560  14.620  64.785  0.00  0.00    -0.118 NA
BRANCH  14  16
ATOM     16  C   UNL     1     -10.929  13.937  66.320  0.00  0.00    +0.004 A 
ATOM     17  C   UNL     1     -12.043  14.283  67.018  0.00  0.00    -0.002 A 
ATOM     18  C   UNL     1     -12.029  13.956  68.370  0.00  0.00    -0.000 A 
ATOM     19  C   UNL     1     -10.999  13.171  68.878  0.00  0.00    -0.000 A 
ATOM     20  C   UNL     1     -10.075  12.588  68.017  0.00  0.00    -0.000 A 
ATOM     21  C   UNL     1     -10.137  12.858  66.656  0.00  0.00    -0.002 A 
ENDBRANCH  14  16
ENDBRANCH  12  14
ENDBRANCH   9  11
BRANCH  10  22
ATOM     22  C   UNL     1      -6.455  19.232  68.983  0.00  0.00    +0.401 C 
ATOM     23  OXT UNL     1      -6.875  20.062  70.017  0.00  0.00    -0.239 OA
ATOM     24  O   UNL     1      -5.861  19.829  68.034  0.00  0.00    -0.239 OA
ENDBRANCH  10  22
TORSDOF 4
ENDMDL
MODEL 9
REMARK VINA RESULT:      -6.1      2.198      2.689
REMARK  Name = 
REMARK  4 active torsions:
REMARK  status: ('A' for Active; 'I' for Inactive)
REMARK    1  A    between atoms: CA_3  and  C_4
REMARK    2  A    between atoms: CA_10  and  N_11
REMARK    3  A    between atoms: C_12  and  CA_14
REMARK    4  A    between atoms: CA_14  and  C_16
REMARK                            x       y       z     vdW  Elec       q    Type
REMARK                         _______ _______ _______ _____ _____    ______ ____
ROOT
ATOM      1  C   UNL     1     -12.452  11.810  63.571  0.00  0.00    +0.029 C 
ATOM      2  C   UNL     1     -12.067  12.767  64.594  0.00  0.00    -0.013 C 
ATOM      3  C   UNL     1     -12.059  14.204  64.160  0.00  0.00    +0.083 C 
ATOM      4  S   UNL     1     -11.269  15.252  65.430  0.00  0.00    -0.114 S 
ATOM      5  C   UNL     1     -11.718  14.277  67.008  0.00  0.00    +0.157 C 
ATOM      6  N   UNL     1     -10.757  13.160  66.617  0.00  0.00    -0.242 N 
ATOM      7  C   UNL     1      -9.563  13.921  66.932  0.00  0.00    +0.253 C 
ATOM      8  O   UNL     1      -8.364  13.622  67.050  0.00  0.00    -0.273 OA
ATOM      9  CA  UNL     1     -10.455  14.657  68.080  0.00  0.00    +0.200 C 
ATOM     10  CA  UNL     1     -11.237  12.340  65.548  0.00  0.00    +0.128 C 
ENDROOT
BRANCH   9  11
ATOM     11  N   UNL     1     -10.168  16.137  67.530  0.00  0.00    -0.194 NA
ATOM     12  C   UNL     1      -9.276  16.797  68.409  0.00  0.00    +0.264 C 
ATOM     13  O   UNL     1      -8.451  16.262  69.154  0.00  0.00    -0.271 OA
BRANCH  12  14
ATOM     14  CA  UNL     1      -9.737  18.316  68.832  0.00  0.00    +0.191 C 
ATOM     15  N   UNL     1     -10.675  18.460  67.533  0.00  0.00    -0.118 NA
BRANCH  14  16
ATOM     16  C   UNL     1      -8.457  18.999  68.059  0.00  0.00    +0.004 A 
ATOM     17  C   UNL     1      -8.701  19.414  66.789  0.00  0.00    -0.002 A 
ATOM     18  C   UNL     1      -7.666  20.114  66.177  0.00  0.00    -0.000 A 
ATOM     19  C   UNL     1      -6.554  20.490  66.923  0.00  0.00    -0.000 A 
ATOM     20  C   UNL     1      -6.542  20.305  68.302  0.00  0.00    -0.000 A 
ATOM     21  C   UNL     1      -7.613  19.671  68.920  0.00  0.00    -0.002 A 
ENDBRANCH  14  16
ENDBRANCH  12  14
ENDBRANCH   9  11
BRANCH  10  22
ATOM     22  C   UNL     1     -10.551  11.047  65.424  0.00  0.00    +0.401 C 
ATOM     23  OXT UNL     1     -10.797  10.020  66.330  0.00  0.00    -0.239 OA
ATOM     24  O   UNL     1      -9.496  10.902  64.735  0.00  0.00    -0.239 OA
ENDBRANCH  10  22
TORSDOF 4
ENDMDL
