MODEL 1
REMARK VINA RESULT:      -5.0      0.000      0.000
REMARK  Name = 
REMARK  3 active torsions:
REMARK  status: ('A' for Active; 'I' for Inactive)
REMARK    1  A    between atoms: C_2  and  C_3
REMARK    2  A    between atoms: C_2  and  C_5
REMARK    3  A    between atoms: C_11  and  C_12
REMARK                            x       y       z     vdW  Elec       q    Type
REMARK                         _______ _______ _______ _____ _____    ______ ____
ROOT
ATOM      1  C   UNL     1     -11.735  12.575  66.541  0.00  0.00    +0.226 C 
ATOM      2  N   UNL     1     -10.671  12.662  65.673  0.00  0.00    -0.271 N 
ATOM      3  C   UNL     1     -10.663  12.779  64.102  0.00  0.00    +0.179 C 
ATOM      4  C   UNL     1     -11.192  11.219  63.966  0.00  0.00    +0.033 C 
ATOM      5  C   UNL     1     -10.118  10.615  64.804  0.00  0.00    +0.024 C 
ATOM      6  C   UNL     1      -9.527  11.736  65.657  0.00  0.00    +0.094 C 
ATOM      7  O   UNL     1     -11.733  11.583  67.341  0.00  0.00    -0.275 OA
ENDROOT
BRANCH   3   8
ATOM      8  C   UNL     1     -12.130  13.371  63.837  0.00  0.00    +0.382 C 
ATOM      9  O   UNL     1     -13.020  12.352  63.555  0.00  0.00    -0.244 OA
ATOM     10  O   UNL     1     -12.485  14.471  63.848  0.00  0.00    -0.244 OA
ENDBRANCH   3   8
BRANCH   1  12
ATOM     11  C   UNL     1     -10.610  14.587  67.142  0.00  0.00    +0.011 C 
ATOM     12  C   UNL     1     -12.118  13.976  67.241  0.00  0.00    +0.088 C 
BRANCH  12  13
ATOM     13  C   UNL     1     -11.913  13.429  68.768  0.00  0.00    +0.078 C 
ATOM     14  S   UNL     1     -11.950  14.907  69.847  0.00  0.00    -0.082 S 
ENDBRANCH  12  13
ENDBRANCH   1  12
TORSDOF 3
ENDMDL
MODEL 2
REMARK VINA RESULT:      -4.8      2.341      2.894
REMARK  Name = 
REMARK  3 active torsions:
REMARK  status: ('A' for Active; 'I' for Inactive)
REMARK    1  A    between atoms: C_2  and  C_3
REMARK    2  A    between atoms: C_2  and  C_5
REMARK    3  A    between atoms: C_11  and  C_12
REMARK                            x       y       z     vdW  Elec       q    Type
REMARK                         _______ _______ _______ _____ _____    ______ ____
ROOT
ATOM      1  C   UNL     1     -10.626  15.161  66.689  0.00  0.00    +0.226 C 
ATOM      2  N   UNL     1     -10.288  14.115  65.861  0.00  0.00    -0.271 N 
ATOM      3  C   UNL     1     -11.193  13.271  64.886  0.00  0.00    +0.179 C 
ATOM      4  C   UNL     1     -11.950  12.563  66.173  0.00  0.00    +0.033 C 
ATOM      5  C   UNL     1     -10.707  12.088  66.844  0.00  0.00    +0.024 C 
ATOM      6  C   UNL     1      -9.549  12.915  66.290  0.00  0.00    +0.094 C 
ATOM      7  O   UNL     1     -10.317  15.033  67.918  0.00  0.00    -0.275 OA
ENDROOT
BRANCH   3   8
ATOM      8  C   UNL     1     -12.406  14.291  64.646  0.00  0.00    +0.382 C 
ATOM      9  O   UNL     1     -13.449  14.017  65.513  0.00  0.00    -0.244 OA
ATOM     10  O   UNL     1     -12.496  15.151  63.879  0.00  0.00    -0.244 OA
ENDBRANCH   3   8
BRANCH   1  12
ATOM     11  C   UNL     1      -8.665  16.423  66.202  0.00  0.00    +0.011 C 
ATOM     12  C   UNL     1     -10.280  16.611  66.076  0.00  0.00    +0.088 C 
BRANCH  12  13
ATOM     13  C   UNL     1     -10.408  17.399  67.504  0.00  0.00    +0.078 C 
ATOM     14  S   UNL     1     -10.548  19.176  67.093  0.00  0.00    -0.082 S 
ENDBRANCH  12  13
ENDBRANCH   1  12
TORSDOF 3
ENDMDL
MODEL 3
REMARK VINA RESULT:      -4.6      1.308      1.732
REMARK  Name = 
REMARK  3 active torsions:
REMARK  status: ('A' for Active; 'I' for Inactive)
REMARK    1  A    between atoms: C_2  and  C_3
REMARK    2  A    between atoms: C_2  and  C_5
REMARK    3  A    between atoms: C_11  and  C_12
REMARK                            x       y       z     vdW  Elec       q    Type
REMARK                         _______ _______ _______ _____ _____    ______ ____
ROOT
ATOM      1  C   UNL     1     -11.625  13.819  67.072  0.00  0.00    +0.226 C 
ATOM      2  N   UNL     1     -10.562  13.576  66.233  0.00  0.00    -0.271 N 
ATOM      3  C   UNL     1     -10.419  13.842  64.687  0.00  0.00    +0.179 C 
ATOM      4  C   UNL     1     -11.498  12.634  64.362  0.00  0.00    +0.033 C 
ATOM      5  C   UNL     1     -10.789  11.577  65.137  0.00  0.00    +0.024 C 
ATOM      6  C   UNL     1      -9.863  12.284  66.124  0.00  0.00    +0.094 C 
ATOM      7  O   UNL     1     -12.051  12.827  67.749  0.00  0.00    -0.275 OA
ENDROOT
BRANCH   3   8
ATOM      8  C   UNL     1     -11.527  14.982  64.476  0.00  0.00    +0.382 C 
ATOM      9  O   UNL     1     -10.977  16.235  64.679  0.00  0.00    -0.244 OA
ATOM     10  O   UNL     1     -12.645  14.872  64.206  0.00  0.00    -0.244 OA
ENDBRANCH   3   8
BRANCH   1  12
ATOM     11  C   UNL     1      -9.892  14.970  68.232  0.00  0.00    +0.011 C 
ATOM     12  C   UNL     1     -11.480  15.178  67.927  0.00  0.00    +0.088 C 
BRANCH  12  13
ATOM     13  C   UNL     1     -11.950  14.504  69.341  0.00  0.00    +0.078 C 
ATOM     14  S   UNL     1     -11.696  15.784  70.624  0.00  0.00    -0.082 S 
ENDBRANCH  12  13
ENDBRANCH   1  12
TORSDOF 3
ENDMDL
MODEL 4
REMARK VINA RESULT:      -4.6      3.320      5.063
REMARK  Name = 
REMARK  3 active torsions:
REMARK  status: ('A' for Active; 'I' for Inactive)
REMARK    1  A    between atoms: C_2  and  C_3
REMARK    2  A    between atoms: C_2  and  C_5
REMARK    3  A    between atoms: C_11  and  C_12
REMARK                            x       y       z     vdW  Elec       q    Type
REMARK                         _______ _______ _______ _____ _____    ______ ____
ROOT
ATOM      1  C   UNL     1     -10.469  14.796  66.435  0.00  0.00    +0.226 C 
ATOM      2  N   UNL     1     -10.958  15.689  67.360  0.00  0.00    -0.271 N 
ATOM      3  C   UNL     1     -10.487  17.156  67.687  0.00  0.00    +0.179 C 
ATOM      4  C   UNL     1      -9.092  16.578  68.357  0.00  0.00    +0.033 C 
ATOM      5  C   UNL     1      -9.751  15.638  69.307  0.00  0.00    +0.024 C 
ATOM      6  C   UNL     1     -11.165  15.386  68.786  0.00  0.00    +0.094 C 
ATOM      7  O   UNL     1     -10.125  13.652  66.879  0.00  0.00    -0.275 OA
ENDROOT
BRANCH   3   8
ATOM      8  C   UNL     1      -9.750  17.547  66.318  0.00  0.00    +0.382 C 
ATOM      9  O   UNL     1     -10.635  18.159  65.449  0.00  0.00    -0.244 OA
ATOM     10  O   UNL     1      -8.651  17.375  66.006  0.00  0.00    -0.244 OA
ENDBRANCH   3   8
BRANCH   1  12
ATOM     11  C   UNL     1     -12.569  13.912  65.739  0.00  0.00    +0.011 C 
ATOM     12  C   UNL     1     -11.329  14.735  65.072  0.00  0.00    +0.088 C 
BRANCH  12  13
ATOM     13  C   UNL     1     -10.597  13.387  64.506  0.00  0.00    +0.078 C 
ATOM     14  S   UNL     1     -11.880  12.459  63.590  0.00  0.00    -0.082 S 
ENDBRANCH  12  13
ENDBRANCH   1  12
TORSDOF 3
ENDMDL
MODEL 5
REMARK VINA RESULT:      -4.5      3.495      5.564
REMARK  Name = 
REMARK  3 active torsions:
REMARK  status: ('A' for Active; 'I' for Inactive)
REMARK    1  A    between atoms: C_2  and  C_3
REMARK    2  A    between atoms: C_2  and  C_5
REMARK    3  A    between atoms: C_11  and  C_12
REMARK                            x       y       z     vdW  Elec       q    Type
REMARK                         _______ _______ _______ _____ _____    ______ ____
ROOT
ATOM      1  C   UNL     1     -10.344  15.800  66.247  0.00  0.00    +0.226 C 
ATOM      2  N   UNL     1      -9.343  16.449  66.933  0.00  0.00    -0.271 N 
ATOM      3  C   UNL     1      -9.379  17.142  68.348  0.00  0.00    +0.179 C 
ATOM      4  C   UNL     1     -10.334  18.351  67.751  0.00  0.00    +0.033 C 
ATOM      5  C   UNL     1      -9.435  18.717  66.620  0.00  0.00    +0.024 C 
ATOM      6  C   UNL     1      -8.510  17.527  66.374  0.00  0.00    +0.094 C 
ATOM      7  O   UNL     1     -10.584  16.217  65.068  0.00  0.00    -0.275 OA
ENDROOT
BRANCH   3   8
ATOM      8  C   UNL     1     -10.628  16.392  69.017  0.00  0.00    +0.382 C 
ATOM      9  O   UNL     1     -10.201  15.301  69.753  0.00  0.00    -0.244 OA
ATOM     10  O   UNL     1     -11.754  16.642  68.945  0.00  0.00    -0.244 OA
ENDBRANCH   3   8
BRANCH   1  12
ATOM     11  C   UNL     1     -10.314  13.939  64.761  0.00  0.00    +0.011 C 
ATOM     12  C   UNL     1     -10.280  14.194  66.372  0.00  0.00    +0.088 C 
BRANCH  12  13
ATOM     13  C   UNL     1     -11.894  14.003  66.545  0.00  0.00    +0.078 C 
ATOM     14  S   UNL     1     -12.436  12.955  65.147  0.00  0.00    -0.082 S 
ENDBRANCH  12  13
ENDBRANCH   1  12
TORSDOF 3
ENDMDL
MODEL 6
REMARK VINA RESULT:      -4.4      1.610      1.666
REMARK  Name = 
REMARK  3 active torsions:
REMARK  status: ('A' for Active; 'I' for Inactive)
REMARK    1  A    between atoms: C_2  and  C_3
REMARK    2  A    between atoms: C_2  and  C_5
REMARK    3  A    between atoms: C_11  and  C_12
REMARK                            x       y       z     vdW  Elec       q    Type
REMARK                         _______ _______ _______ _____ _____    ______ ____
ROOT
ATOM      1  C   UNL     1     -11.337  11.419  66.815  0.00  0.00    +0.226 C 
ATOM      2  N   UNL     1     -10.544  12.119  65.935  0.00  0.00    -0.271 N 
ATOM      3  C   UNL     1     -10.941  12.896  64.624  0.00  0.00    +0.179 C 
ATOM      4  C   UNL     1     -11.266  11.470  63.856  0.00  0.00    +0.033 C 
ATOM      5  C   UNL     1      -9.945  10.838  64.133  0.00  0.00    +0.024 C 
ATOM      6  C   UNL     1      -9.322  11.589  65.308  0.00  0.00    +0.094 C 
ATOM      7  O   UNL     1     -11.001  10.211  67.043  0.00  0.00    -0.275 OA
ENDROOT
BRANCH   3   8
ATOM      8  C   UNL     1     -12.495  13.180  64.902  0.00  0.00    +0.382 C 
ATOM      9  O   UNL     1     -13.277  12.187  64.339  0.00  0.00    -0.244 OA
ATOM     10  O   UNL     1     -12.986  14.059  65.467  0.00  0.00    -0.244 OA
ENDBRANCH   3   8
BRANCH   1  12
ATOM     11  C   UNL     1     -10.326  13.086  68.184  0.00  0.00    +0.011 C 
ATOM     12  C   UNL     1     -11.725  12.250  68.141  0.00  0.00    +0.088 C 
BRANCH  12  13
ATOM     13  C   UNL     1     -11.198  11.104  69.182  0.00  0.00    +0.078 C 
ATOM     14  S   UNL     1     -12.325  11.168  70.622  0.00  0.00    -0.082 S 
ENDBRANCH  12  13
ENDBRANCH   1  12
TORSDOF 3
ENDMDL
MODEL 7
REMARK VINA RESULT:      -4.4      2.516      3.467
REMARK  Name = 
REMARK  3 active torsions:
REMARK  status: ('A' for Active; 'I' for Inactive)
REMARK    1  A    between atoms: C_2  and  C_3
REMARK    2  A    between atoms: C_2  and  C_5
REMARK    3  A    between atoms: C_11  and  C_12
REMARK                            x       y       z     vdW  Elec       q    Type
REMARK                         _______ _______ _______ _____ _____    ______ ____
ROOT
ATOM      1  C   UNL     1     -10.682  12.640  66.926  0.00  0.00    +0.226 C 
ATOM      2  N   UNL     1     -11.552  13.697  66.785  0.00  0.00    -0.271 N 
ATOM      3  C   UNL     1     -12.172  14.320  65.478  0.00  0.00    +0.179 C 
ATOM      4  C   UNL     1     -10.698  14.927  65.046  0.00  0.00    +0.033 C 
ATOM      5  C   UNL     1     -10.443  15.649  66.324  0.00  0.00    +0.024 C 
ATOM      6  C   UNL     1     -11.353  15.028  67.383  0.00  0.00    +0.094 C 
ATOM      7  O   UNL     1      -9.611  12.870  67.576  0.00  0.00    -0.275 OA
ENDROOT
BRANCH   3   8
ATOM      8  C   UNL     1     -12.039  13.086  64.464  0.00  0.00    +0.382 C 
ATOM      9  O   UNL     1     -13.188  12.315  64.486  0.00  0.00    -0.244 OA
ATOM     10  O   UNL     1     -11.153  12.793  63.783  0.00  0.00    -0.244 OA
ENDBRANCH   3   8
BRANCH   1  12
ATOM     11  C   UNL     1     -11.299  11.515  68.933  0.00  0.00    +0.011 C 
ATOM     12  C   UNL     1     -11.403  11.255  67.327  0.00  0.00    +0.088 C 
BRANCH  12  13
ATOM     13  C   UNL     1     -10.033  10.364  67.273  0.00  0.00    +0.078 C 
ATOM     14  S   UNL     1      -9.859   9.802  65.540  0.00  0.00    -0.082 S 
ENDBRANCH  12  13
ENDBRANCH   1  12
TORSDOF 3
ENDMDL
MODEL 8
REMARK VINA RESULT:      -4.4      4.270      5.817
REMARK  Name = 
REMARK  3 active torsions:
REMARK  status: ('A' for Active; 'I' for Inactive)
REMARK    1  A    between atoms: C_2  and  C_3
REMARK    2  A    between atoms: C_2  and  C_5
REMARK    3  A    between atoms: C_11  and  C_12
REMARK                            x       y       z     vdW  Elec       q    Type
REMARK                         _______ _______ _______ _____ _____    ______ ____
ROOT
ATOM      1  C   UNL     1      -9.452  17.653  66.791  0.00  0.00    +0.226 C 
ATOM      2  N   UNL     1     -10.469  16.738  66.645  0.00  0.00    -0.271 N 
ATOM      3  C   UNL     1     -10.878  15.532  67.573  0.00  0.00    +0.179 C 
ATOM      4  C   UNL     1      -9.509  14.714  67.142  0.00  0.00    +0.033 C 
ATOM      5  C   UNL     1      -9.730  14.800  65.671  0.00  0.00    +0.024 C 
ATOM      6  C   UNL     1     -10.712  15.945  65.428  0.00  0.00    +0.094 C 
ATOM      7  O   UNL     1      -8.644  17.763  65.812  0.00  0.00    -0.275 OA
ENDROOT
BRANCH   3   8
ATOM      8  C   UNL     1     -10.242  15.999  68.969  0.00  0.00    +0.382 C 
ATOM      9  O   UNL     1     -11.162  16.729  69.700  0.00  0.00    -0.244 OA
ATOM     10  O   UNL     1      -9.181  15.814  69.385  0.00  0.00    -0.244 OA
ENDBRANCH   3   8
BRANCH   1  12
ATOM     11  C   UNL     1     -10.459  19.652  65.975  0.00  0.00    +0.011 C 
ATOM     12  C   UNL     1      -9.933  19.066  67.402  0.00  0.00    +0.088 C 
BRANCH  12  13
ATOM     13  C   UNL     1      -8.466  19.778  67.276  0.00  0.00    +0.078 C 
ATOM     14  S   UNL     1      -7.540  19.305  68.782  0.00  0.00    -0.082 S 
ENDBRANCH  12  13
ENDBRANCH   1  12
TORSDOF 3
ENDMDL
MODEL 9
REMARK VINA RESULT:      -4.3      4.874      6.608
REMARK  Name = 
REMARK  3 active torsions:
REMARK  status: ('A' for Active; 'I' for Inactive)
REMARK    1  A    between atoms: C_2  and  C_3
REMARK    2  A    between atoms: C_2  and  C_5
REMARK    3  A    between atoms: C_11  and  C_12
REMARK                            x       y       z     vdW  Elec       q    Type
REMARK                         _______ _______ _______ _____ _____    ______ ____
ROOT
ATOM      1  C   UNL     1      -9.970  17.229  67.507  0.00  0.00    +0.226 C 
ATOM      2  N   UNL     1      -9.636  18.136  66.528  0.00  0.00    -0.271 N 
ATOM      3  C   UNL     1      -8.294  18.933  66.312  0.00  0.00    +0.179 C 
ATOM      4  C   UNL     1      -8.604  19.851  67.650  0.00  0.00    +0.033 C 
ATOM      5  C   UNL     1      -9.963  20.294  67.226  0.00  0.00    +0.024 C 
ATOM      6  C   UNL     1     -10.447  19.310  66.164  0.00  0.00    +0.094 C 
ATOM      7  O   UNL     1     -11.032  17.474  68.168  0.00  0.00    -0.275 OA
ENDROOT
BRANCH   3   8
ATOM      8  C   UNL     1      -7.260  18.000  67.106  0.00  0.00    +0.382 C 
ATOM      9  O   UNL     1      -6.725  17.043  66.263  0.00  0.00    -0.244 OA
ATOM     10  O   UNL     1      -6.951  18.036  68.219  0.00  0.00    -0.244 OA
ENDBRANCH   3   8
BRANCH   1  12
ATOM     11  C   UNL     1     -10.459  15.948  65.559  0.00  0.00    +0.011 C 
ATOM     12  C   UNL     1      -9.832  15.691  67.042  0.00  0.00    +0.088 C 
BRANCH  12  13
ATOM     13  C   UNL     1     -11.261  15.223  67.684  0.00  0.00    +0.078 C 
ATOM     14  S   UNL     1     -11.999  14.056  66.484  0.00  0.00    -0.082 S 
ENDBRANCH  12  13
ENDBRANCH   1  12
TORSDOF 3
ENDMDL
