MODEL 1
REMARK VINA RESULT:      -8.1      0.000      0.000
REMARK  Name = 
REMARK  10 active torsions:
REMARK  status: ('A' for Active; 'I' for Inactive)
REMARK    1  A    between atoms: S_2  and  C_5
REMARK    2  A    between atoms: C_5  and  C_6
REMARK    3  A    between atoms: C_6  and  N_7
REMARK    4  A    between atoms: N_7  and  C_8
REMARK    5  A    between atoms: C_8  and  C_9
REMARK    6  A    between atoms: C_12  and  C_13
REMARK    7  A    between atoms: N_21  and  C_22
REMARK    8  A    between atoms: C_25  and  O_26
REMARK    9  A    between atoms: O_26  and  C_27
REMARK   10  A    between atoms: C_27  and  C_28
REMARK                            x       y       z     vdW  Elec       q    Type
REMARK                         _______ _______ _______ _____ _____    ______ ____
ROOT
ATOM      1  C   UNL     1     -10.266  14.956  66.728  0.00  0.00    +0.035 A 
ATOM      2  C   UNL     1      -9.817  13.783  66.133  0.00  0.00    +0.007 A 
ATOM      3  C   UNL     1     -10.731  13.017  65.418  0.00  0.00    +0.051 A 
ATOM      4  C   UNL     1     -12.082  13.342  65.375  0.00  0.00    +0.086 A 
ATOM      5  N   UNL     1     -12.871  12.745  64.475  0.00  0.00    -0.224 NA
ATOM      6  C   UNL     1     -12.267  12.036  63.493  0.00  0.00    +0.200 A 
ATOM      7  N   UNL     1     -11.034  11.509  63.689  0.00  0.00    -0.207 NA
ATOM      8  C   UNL     1     -12.556  14.245  66.321  0.00  0.00    +0.019 A 
ATOM      9  C   UNL     1     -10.190  12.015  64.622  0.00  0.00    +0.155 A 
ATOM     10  N   UNL     1      -9.201  11.163  65.214  0.00  0.00    -0.194 NA
ATOM     11  C   UNL     1     -11.620  15.059  66.946  0.00  0.00    +0.005 A 
ENDROOT
BRANCH  10  12
ATOM     12  C   UNL     1      -9.696  10.018  65.918  0.00  0.00    +0.073 A 
ATOM     13  C   UNL     1     -10.473  10.129  67.059  0.00  0.00    +0.031 A 
ATOM     14  C   UNL     1     -10.501   9.142  68.037  0.00  0.00    +0.093 A 
ATOM     15 CL   UNL     1     -11.072   9.629  69.631  0.00  0.00    -0.079 Cl
ATOM     16  C   UNL     1      -9.587   8.099  67.950  0.00  0.00    +0.150 A 
ATOM     17  C   UNL     1      -9.091   7.827  66.683  0.00  0.00    +0.039 A 
ATOM     18  C   UNL     1      -9.184   8.754  65.654  0.00  0.00    +0.020 A 
BRANCH  16  19
ATOM     19  O   UNL     1      -8.953   7.580  69.082  0.00  0.00    -0.470 OA
BRANCH  19  20
ATOM     20  C   UNL     1      -9.184   6.256  69.543  0.00  0.00    +0.232 C 
BRANCH  20  21
ATOM     21  C   UNL     1     -10.028   6.377  70.772  0.00  0.00    +0.023 A 
ATOM     22  C   UNL     1     -11.393   6.181  70.758  0.00  0.00    +0.029 A 
ATOM     23  C   UNL     1     -12.252   6.867  71.610  0.00  0.00    +0.140 A 
ATOM     24  F   UNL     1     -13.511   7.229  71.227  0.00  0.00    -0.204 F 
ATOM     25  C   UNL     1     -11.658   7.706  72.545  0.00  0.00    +0.030 A 
ATOM     26  C   UNL     1     -10.302   7.637  72.830  0.00  0.00    +0.002 A 
ATOM     27  C   UNL     1      -9.506   7.031  71.873  0.00  0.00    -0.001 A 
ENDBRANCH  20  21
ENDBRANCH  19  20
ENDBRANCH  16  19
ENDBRANCH  10  12
BRANCH   1  30
ATOM     28  C   UNL     1      -8.413  17.755  67.861  0.00  0.00    +0.140 A 
ATOM     29  O   UNL     1      -9.547  17.163  67.614  0.00  0.00    -0.456 OA
ATOM     30  C   UNL     1      -9.416  16.152  66.806  0.00  0.00    +0.145 A 
ATOM     31  C   UNL     1      -8.137  16.273  66.280  0.00  0.00    +0.040 A 
ATOM     32  C   UNL     1      -7.424  17.071  67.165  0.00  0.00    +0.038 A 
BRANCH  28  33
ATOM     33  C   UNL     1      -8.178  18.998  68.656  0.00  0.00    +0.153 C 
BRANCH  33  34
ATOM     34  N   UNL     1      -6.819  19.481  68.419  0.00  0.00    -0.208 NA
BRANCH  34  35
ATOM     35  C   UNL     1      -6.186  19.588  69.705  0.00  0.00    +0.114 C 
BRANCH  35  36
ATOM     36  C   UNL     1      -5.370  20.834  69.882  0.00  0.00    +0.170 C 
BRANCH  36  38
ATOM     37  C   UNL     1      -2.634  20.622  70.714  0.00  0.00    +0.176 C 
ATOM     38  S   UNL     1      -4.302  20.787  71.285  0.00  0.00    -0.007 S 
ATOM     39  O   UNL     1      -4.494  21.994  72.151  0.00  0.00    -0.173 OA
ATOM     40  O   UNL     1      -4.602  19.560  72.116  0.00  0.00    -0.173 OA
ENDBRANCH  36  38
ENDBRANCH  35  36
ENDBRANCH  34  35
ENDBRANCH  33  34
ENDBRANCH  28  33
ENDBRANCH   1  30
TORSDOF 10
ENDMDL
MODEL 2
REMARK VINA RESULT:      -8.0      4.200      5.165
REMARK  Name = 
REMARK  10 active torsions:
REMARK  status: ('A' for Active; 'I' for Inactive)
REMARK    1  A    between atoms: S_2  and  C_5
REMARK    2  A    between atoms: C_5  and  C_6
REMARK    3  A    between atoms: C_6  and  N_7
REMARK    4  A    between atoms: N_7  and  C_8
REMARK    5  A    between atoms: C_8  and  C_9
REMARK    6  A    between atoms: C_12  and  C_13
REMARK    7  A    between atoms: N_21  and  C_22
REMARK    8  A    between atoms: C_25  and  O_26
REMARK    9  A    between atoms: O_26  and  C_27
REMARK   10  A    between atoms: C_27  and  C_28
REMARK                            x       y       z     vdW  Elec       q    Type
REMARK                         _______ _______ _______ _____ _____    ______ ____
ROOT
ATOM      1  C   UNL     1     -10.571  12.444  65.714  0.00  0.00    +0.035 A 
ATOM      2  C   UNL     1      -9.472  11.791  66.259  0.00  0.00    +0.007 A 
ATOM      3  C   UNL     1      -8.758  10.917  65.448  0.00  0.00    +0.051 A 
ATOM      4  C   UNL     1      -9.174  10.612  64.158  0.00  0.00    +0.086 A 
ATOM      5  N   UNL     1      -8.331   9.986  63.328  0.00  0.00    -0.224 NA
ATOM      6  C   UNL     1      -7.034   9.900  63.708  0.00  0.00    +0.200 A 
ATOM      7  N   UNL     1      -6.703   9.940  65.021  0.00  0.00    -0.207 NA
ATOM      8  C   UNL     1     -10.483  10.930  63.812  0.00  0.00    +0.019 A 
ATOM      9  C   UNL     1      -7.525  10.503  65.940  0.00  0.00    +0.155 A 
ATOM     10  N   UNL     1      -7.475  10.053  67.300  0.00  0.00    -0.194 NA
ATOM     11  C   UNL     1     -11.132  11.878  64.593  0.00  0.00    +0.005 A 
ENDROOT
BRANCH  10  12
ATOM     12  C   UNL     1      -7.767   8.667  67.516  0.00  0.00    +0.073 A 
ATOM     13  C   UNL     1      -8.915   8.067  67.026  0.00  0.00    +0.031 A 
ATOM     14  C   UNL     1      -9.494   6.962  67.637  0.00  0.00    +0.093 A 
ATOM     15 CL   UNL     1     -11.186   6.649  67.255  0.00  0.00    -0.079 Cl
ATOM     16  C   UNL     1      -9.009   6.562  68.876  0.00  0.00    +0.150 A 
ATOM     17  C   UNL     1      -7.702   6.928  69.166  0.00  0.00    +0.039 A 
ATOM     18  C   UNL     1      -7.060   7.938  68.464  0.00  0.00    +0.020 A 
BRANCH  16  19
ATOM     19  O   UNL     1      -9.861   6.122  69.892  0.00  0.00    -0.470 OA
BRANCH  19  20
ATOM     20  C   UNL     1     -10.078   6.872  71.080  0.00  0.00    +0.232 C 
BRANCH  20  21
ATOM     21  C   UNL     1     -11.322   7.672  70.853  0.00  0.00    +0.023 A 
ATOM     22  C   UNL     1     -11.295   8.989  70.446  0.00  0.00    +0.029 A 
ATOM     23  C   UNL     1     -12.267   9.906  70.831  0.00  0.00    +0.140 A 
ATOM     24  F   UNL     1     -11.972  11.222  71.046  0.00  0.00    -0.204 F 
ATOM     25  C   UNL     1     -13.324   9.410  71.581  0.00  0.00    +0.030 A 
ATOM     26  C   UNL     1     -13.573   8.049  71.683  0.00  0.00    +0.002 A 
ATOM     27  C   UNL     1     -12.512   7.210  71.384  0.00  0.00    -0.001 A 
ENDBRANCH  20  21
ENDBRANCH  19  20
ENDBRANCH  16  19
ENDBRANCH  10  12
BRANCH   1  30
ATOM     28  C   UNL     1     -10.725  15.605  67.306  0.00  0.00    +0.140 A 
ATOM     29  O   UNL     1     -10.972  14.326  67.286  0.00  0.00    -0.456 OA
ATOM     30  C   UNL     1     -10.906  13.825  66.087  0.00  0.00    +0.145 A 
ATOM     31  C   UNL     1     -10.881  14.922  65.236  0.00  0.00    +0.040 A 
ATOM     32  C   UNL     1     -10.454  16.000  66.001  0.00  0.00    +0.038 A 
BRANCH  28  33
ATOM     33  C   UNL     1     -10.801  16.538  68.471  0.00  0.00    +0.153 C 
BRANCH  33  34
ATOM     34  N   UNL     1     -10.591  15.790  69.709  0.00  0.00    -0.208 NA
BRANCH  34  35
ATOM     35  C   UNL     1     -11.788  15.937  70.492  0.00  0.00    +0.114 C 
BRANCH  35  36
ATOM     36  C   UNL     1     -12.400  14.638  70.922  0.00  0.00    +0.170 C 
BRANCH  36  38
ATOM     37  C   UNL     1     -12.493  15.163  73.739  0.00  0.00    +0.176 C 
ATOM     38  S   UNL     1     -13.474  14.787  72.313  0.00  0.00    -0.007 S 
ATOM     39  O   UNL     1     -14.541  15.809  72.066  0.00  0.00    -0.173 OA
ATOM     40  O   UNL     1     -14.147  13.460  72.584  0.00  0.00    -0.173 OA
ENDBRANCH  36  38
ENDBRANCH  35  36
ENDBRANCH  34  35
ENDBRANCH  33  34
ENDBRANCH  28  33
ENDBRANCH   1  30
TORSDOF 10
ENDMDL
MODEL 3
REMARK VINA RESULT:      -7.9      4.277     10.387
REMARK  Name = 
REMARK  10 active torsions:
REMARK  status: ('A' for Active; 'I' for Inactive)
REMARK    1  A    between atoms: S_2  and  C_5
REMARK    2  A    between atoms: C_5  and  C_6
REMARK    3  A    between atoms: C_6  and  N_7
REMARK    4  A    between atoms: N_7  and  C_8
REMARK    5  A    between atoms: C_8  and  C_9
REMARK    6  A    between atoms: C_12  and  C_13
REMARK    7  A    between atoms: N_21  and  C_22
REMARK    8  A    between atoms: C_25  and  O_26
REMARK    9  A    between atoms: O_26  and  C_27
REMARK   10  A    between atoms: C_27  and  C_28
REMARK                            x       y       z     vdW  Elec       q    Type
REMARK                         _______ _______ _______ _____ _____    ______ ____
ROOT
ATOM      1  C   UNL     1      -9.649   9.297  66.290  0.00  0.00    +0.035 A 
ATOM      2  C   UNL     1     -10.328  10.453  66.658  0.00  0.00    +0.007 A 
ATOM      3  C   UNL     1     -10.783  11.297  65.651  0.00  0.00    +0.051 A 
ATOM      4  C   UNL     1     -10.491  11.062  64.313  0.00  0.00    +0.086 A 
ATOM      5  N   UNL     1     -11.159  11.734  63.368  0.00  0.00    -0.224 NA
ATOM      6  C   UNL     1     -12.255  12.428  63.758  0.00  0.00    +0.200 A 
ATOM      7  N   UNL     1     -12.367  12.867  65.034  0.00  0.00    -0.207 NA
ATOM      8  C   UNL     1      -9.465  10.168  64.026  0.00  0.00    +0.019 A 
ATOM      9  C   UNL     1     -11.681  12.282  66.046  0.00  0.00    +0.155 A 
ATOM     10  N   UNL     1     -11.347  13.051  67.209  0.00  0.00    -0.194 NA
ATOM     11  C   UNL     1      -9.101   9.278  65.029  0.00  0.00    +0.005 A 
ENDROOT
BRANCH  10  12
ATOM     12  C   UNL     1     -10.531  14.207  66.986  0.00  0.00    +0.073 A 
ATOM     13  C   UNL     1      -9.211  14.272  67.401  0.00  0.00    +0.031 A 
ATOM     14  C   UNL     1      -8.587  15.476  67.706  0.00  0.00    +0.093 A 
ATOM     15 CL   UNL     1      -7.142  15.381  68.710  0.00  0.00    -0.079 Cl
ATOM     16  C   UNL     1      -9.364  16.626  67.770  0.00  0.00    +0.150 A 
ATOM     17  C   UNL     1     -10.545  16.605  67.040  0.00  0.00    +0.039 A 
ATOM     18  C   UNL     1     -11.106  15.412  66.605  0.00  0.00    +0.020 A 
BRANCH  16  19
ATOM     19  O   UNL     1      -9.157  17.600  68.749  0.00  0.00    -0.470 OA
BRANCH  19  20
ATOM     20  C   UNL     1      -9.213  18.991  68.462  0.00  0.00    +0.232 C 
BRANCH  20  21
ATOM     21  C   UNL     1      -7.818  19.407  68.117  0.00  0.00    +0.023 A 
ATOM     22  C   UNL     1      -6.845  19.614  69.072  0.00  0.00    +0.029 A 
ATOM     23  C   UNL     1      -5.836  20.557  68.914  0.00  0.00    +0.140 A 
ATOM     24  F   UNL     1      -5.323  21.249  69.973  0.00  0.00    -0.204 F 
ATOM     25  C   UNL     1      -5.801  21.229  67.700  0.00  0.00    +0.030 A 
ATOM     26  C   UNL     1      -6.516  20.784  66.597  0.00  0.00    +0.002 A 
ATOM     27  C   UNL     1      -7.575  19.931  66.860  0.00  0.00    -0.001 A 
ENDBRANCH  20  21
ENDBRANCH  19  20
ENDBRANCH  16  19
ENDBRANCH  10  12
BRANCH   1  30
ATOM     28  C   UNL     1     -10.786   6.740  68.463  0.00  0.00    +0.140 A 
ATOM     29  O   UNL     1     -10.240   7.905  68.262  0.00  0.00    -0.456 OA
ATOM     30  C   UNL     1      -9.798   8.046  67.046  0.00  0.00    +0.145 A 
ATOM     31  C   UNL     1      -9.820   6.769  66.503  0.00  0.00    +0.040 A 
ATOM     32  C   UNL     1     -10.718   6.034  67.268  0.00  0.00    +0.038 A 
BRANCH  28  33
ATOM     33  C   UNL     1     -11.312   6.180  69.745  0.00  0.00    +0.153 C 
BRANCH  33  34
ATOM     34  N   UNL     1     -10.749   6.924  70.870  0.00  0.00    -0.208 NA
BRANCH  34  35
ATOM     35  C   UNL     1     -11.858   7.478  71.598  0.00  0.00    +0.114 C 
BRANCH  35  36
ATOM     36  C   UNL     1     -11.689   8.922  71.963  0.00  0.00    +0.170 C 
BRANCH  36  38
ATOM     37  C   UNL     1     -12.203  10.641  69.727  0.00  0.00    +0.176 C 
ATOM     38  S   UNL     1     -12.886   9.985  71.223  0.00  0.00    -0.007 S 
ATOM     39  O   UNL     1     -14.181   9.266  70.995  0.00  0.00    -0.173 OA
ATOM     40  O   UNL     1     -13.156  11.163  72.132  0.00  0.00    -0.173 OA
ENDBRANCH  36  38
ENDBRANCH  35  36
ENDBRANCH  34  35
ENDBRANCH  33  34
ENDBRANCH  28  33
ENDBRANCH   1  30
TORSDOF 10
ENDMDL
MODEL 4
REMARK VINA RESULT:      -7.9      5.102      7.902
REMARK  Name = 
REMARK  10 active torsions:
REMARK  status: ('A' for Active; 'I' for Inactive)
REMARK    1  A    between atoms: S_2  and  C_5
REMARK    2  A    between atoms: C_5  and  C_6
REMARK    3  A    between atoms: C_6  and  N_7
REMARK    4  A    between atoms: N_7  and  C_8
REMARK    5  A    between atoms: C_8  and  C_9
REMARK    6  A    between atoms: C_12  and  C_13
REMARK    7  A    between atoms: N_21  and  C_22
REMARK    8  A    between atoms: C_25  and  O_26
REMARK    9  A    between atoms: O_26  and  C_27
REMARK   10  A    between atoms: C_27  and  C_28
REMARK                            x       y       z     vdW  Elec       q    Type
REMARK                         _______ _______ _______ _____ _____    ______ ____
ROOT
ATOM      1  C   UNL     1     -11.657  10.573  70.216  0.00  0.00    +0.035 A 
ATOM      2  C   UNL     1     -11.610   9.204  70.456  0.00  0.00    +0.007 A 
ATOM      3  C   UNL     1     -12.608   8.640  71.242  0.00  0.00    +0.051 A 
ATOM      4  C   UNL     1     -13.577   9.419  71.864  0.00  0.00    +0.086 A 
ATOM      5  N   UNL     1     -14.659   8.828  72.383  0.00  0.00    -0.224 NA
ATOM      6  C   UNL     1     -14.872   7.530  72.062  0.00  0.00    +0.200 A 
ATOM      7  N   UNL     1     -13.834   6.733  71.709  0.00  0.00    -0.207 NA
ATOM      8  C   UNL     1     -13.337  10.785  71.962  0.00  0.00    +0.019 A 
ATOM      9  C   UNL     1     -12.678   7.252  71.228  0.00  0.00    +0.155 A 
ATOM     10  N   UNL     1     -11.454   6.528  71.407  0.00  0.00    -0.194 NA
ATOM     11  C   UNL     1     -12.398  11.328  71.094  0.00  0.00    +0.005 A 
ENDROOT
BRANCH  10  12
ATOM     12  C   UNL     1     -11.068   6.266  72.761  0.00  0.00    +0.073 A 
ATOM     13  C   UNL     1     -10.234   7.114  73.471  0.00  0.00    +0.031 A 
ATOM     14  C   UNL     1      -9.424   6.665  74.506  0.00  0.00    +0.093 A 
ATOM     15 CL   UNL     1      -8.059   7.691  74.941  0.00  0.00    -0.079 Cl
ATOM     16  C   UNL     1      -9.316   5.295  74.714  0.00  0.00    +0.150 A 
ATOM     17  C   UNL     1     -10.375   4.524  74.256  0.00  0.00    +0.039 A 
ATOM     18  C   UNL     1     -11.279   5.014  73.324  0.00  0.00    +0.020 A 
BRANCH  16  19
ATOM     19  O   UNL     1      -8.099   4.695  75.047  0.00  0.00    -0.470 OA
BRANCH  19  20
ATOM     20  C   UNL     1      -7.501   3.689  74.240  0.00  0.00    +0.232 C 
BRANCH  20  21
ATOM     21  C   UNL     1      -7.112   4.353  72.957  0.00  0.00    +0.023 A 
ATOM     22  C   UNL     1      -6.296   5.464  72.912  0.00  0.00    +0.029 A 
ATOM     23  C   UNL     1      -6.425   6.443  71.933  0.00  0.00    +0.140 A 
ATOM     24  F   UNL     1      -6.178   7.760  72.193  0.00  0.00    -0.204 F 
ATOM     25  C   UNL     1      -7.369   6.207  70.942  0.00  0.00    +0.030 A 
ATOM     26  C   UNL     1      -7.927   4.951  70.749  0.00  0.00    +0.002 A 
ATOM     27  C   UNL     1      -7.846   4.075  71.818  0.00  0.00    -0.001 A 
ENDBRANCH  20  21
ENDBRANCH  19  20
ENDBRANCH  16  19
ENDBRANCH  10  12
BRANCH   1  30
ATOM     28  C   UNL     1      -9.910  12.260  67.637  0.00  0.00    +0.140 A 
ATOM     29  O   UNL     1     -10.633  12.272  68.720  0.00  0.00    -0.456 OA
ATOM     30  C   UNL     1     -11.241  11.141  68.925  0.00  0.00    +0.145 A 
ATOM     31  C   UNL     1     -11.112  10.438  67.735  0.00  0.00    +0.040 A 
ATOM     32  C   UNL     1     -10.031  10.999  67.067  0.00  0.00    +0.038 A 
BRANCH  28  33
ATOM     33  C   UNL     1      -9.152  13.394  67.025  0.00  0.00    +0.153 C 
BRANCH  33  34
ATOM     34  N   UNL     1      -9.874  14.643  67.253  0.00  0.00    -0.208 NA
BRANCH  34  35
ATOM     35  C   UNL     1     -11.043  14.607  66.416  0.00  0.00    +0.114 C 
BRANCH  35  36
ATOM     36  C   UNL     1     -10.750  14.349  64.969  0.00  0.00    +0.170 C 
BRANCH  36  38
ATOM     37  C   UNL     1     -10.719  11.922  63.440  0.00  0.00    +0.176 C 
ATOM     38  S   UNL     1     -11.766  13.098  64.253  0.00  0.00    -0.007 S 
ATOM     39  O   UNL     1     -12.649  12.462  65.283  0.00  0.00    -0.173 OA
ATOM     40  O   UNL     1     -12.650  13.705  63.186  0.00  0.00    -0.173 OA
ENDBRANCH  36  38
ENDBRANCH  35  36
ENDBRANCH  34  35
ENDBRANCH  33  34
ENDBRANCH  28  33
ENDBRANCH   1  30
TORSDOF 10
ENDMDL
MODEL 5
REMARK VINA RESULT:      -7.8      4.512      5.715
REMARK  Name = 
REMARK  10 active torsions:
REMARK  status: ('A' for Active; 'I' for Inactive)
REMARK    1  A    between atoms: S_2  and  C_5
REMARK    2  A    between atoms: C_5  and  C_6
REMARK    3  A    between atoms: C_6  and  N_7
REMARK    4  A    between atoms: N_7  and  C_8
REMARK    5  A    between atoms: C_8  and  C_9
REMARK    6  A    between atoms: C_12  and  C_13
REMARK    7  A    between atoms: N_21  and  C_22
REMARK    8  A    between atoms: C_25  and  O_26
REMARK    9  A    between atoms: O_26  and  C_27
REMARK   10  A    between atoms: C_27  and  C_28
REMARK                            x       y       z     vdW  Elec       q    Type
REMARK                         _______ _______ _______ _____ _____    ______ ____
ROOT
ATOM      1  C   UNL     1     -10.339  11.519  66.636  0.00  0.00    +0.035 A 
ATOM      2  C   UNL     1      -9.411  11.073  67.570  0.00  0.00    +0.007 A 
ATOM      3  C   UNL     1      -8.394  10.231  67.135  0.00  0.00    +0.051 A 
ATOM      4  C   UNL     1      -8.348   9.753  65.831  0.00  0.00    +0.086 A 
ATOM      5  N   UNL     1      -7.229   9.171  65.384  0.00  0.00    -0.224 NA
ATOM      6  C   UNL     1      -6.118   9.296  66.148  0.00  0.00    +0.200 A 
ATOM      7  N   UNL     1      -6.225   9.503  67.482  0.00  0.00    -0.207 NA
ATOM      8  C   UNL     1      -9.505   9.859  65.066  0.00  0.00    +0.019 A 
ATOM      9  C   UNL     1      -7.347  10.034  68.027  0.00  0.00    +0.155 A 
ATOM     10  N   UNL     1      -7.685   9.724  69.385  0.00  0.00    -0.194 NA
ATOM     11  C   UNL     1     -10.458  10.781  65.483  0.00  0.00    +0.005 A 
ENDROOT
BRANCH  10  12
ATOM     12  C   UNL     1      -7.894   8.338  69.682  0.00  0.00    +0.073 A 
ATOM     13  C   UNL     1      -8.861   7.581  69.042  0.00  0.00    +0.031 A 
ATOM     14  C   UNL     1      -9.454   6.476  69.639  0.00  0.00    +0.093 A 
ATOM     15 CL   UNL     1     -10.998   5.954  68.970  0.00  0.00    -0.079 Cl
ATOM     16  C   UNL     1      -9.199   6.234  70.983  0.00  0.00    +0.150 A 
ATOM     17  C   UNL     1      -8.015   6.759  71.482  0.00  0.00    +0.039 A 
ATOM     18  C   UNL     1      -7.334   7.770  70.819  0.00  0.00    +0.020 A 
BRANCH  16  19
ATOM     19  O   UNL     1     -10.197   5.793  71.854  0.00  0.00    -0.470 OA
BRANCH  19  20
ATOM     20  C   UNL     1     -10.835   6.660  72.782  0.00  0.00    +0.232 C 
BRANCH  20  21
ATOM     21  C   UNL     1     -11.897   7.387  72.019  0.00  0.00    +0.023 A 
ATOM     22  C   UNL     1     -11.877   8.754  71.835  0.00  0.00    +0.029 A 
ATOM     23  C   UNL     1     -13.040   9.509  71.743  0.00  0.00    +0.140 A 
ATOM     24  F   UNL     1     -13.112  10.785  72.223  0.00  0.00    -0.204 F 
ATOM     25  C   UNL     1     -14.238   8.807  71.760  0.00  0.00    +0.030 A 
ATOM     26  C   UNL     1     -14.283   7.434  71.566  0.00  0.00    +0.002 A 
ATOM     27  C   UNL     1     -13.100   6.747  71.785  0.00  0.00    -0.001 A 
ENDBRANCH  20  21
ENDBRANCH  19  20
ENDBRANCH  16  19
ENDBRANCH  10  12
BRANCH   1  30
ATOM     28  C   UNL     1     -11.058  14.877  67.510  0.00  0.00    +0.140 A 
ATOM     29  O   UNL     1     -11.088  13.600  67.769  0.00  0.00    -0.456 OA
ATOM     30  C   UNL     1     -10.909  12.872  66.706  0.00  0.00    +0.145 A 
ATOM     31  C   UNL     1     -11.044  13.750  65.639  0.00  0.00    +0.040 A 
ATOM     32  C   UNL     1     -10.822  15.023  66.149  0.00  0.00    +0.038 A 
BRANCH  28  33
ATOM     33  C   UNL     1     -11.318  16.011  68.448  0.00  0.00    +0.153 C 
BRANCH  33  34
ATOM     34  N   UNL     1     -10.608  15.779  69.704  0.00  0.00    -0.208 NA
BRANCH  34  35
ATOM     35  C   UNL     1     -11.571  15.933  70.761  0.00  0.00    +0.114 C 
BRANCH  35  36
ATOM     36  C   UNL     1     -12.286  14.667  71.125  0.00  0.00    +0.170 C 
BRANCH  36  38
ATOM     37  C   UNL     1     -12.572  15.268  73.914  0.00  0.00    +0.176 C 
ATOM     38  S   UNL     1     -13.454  14.864  72.432  0.00  0.00    -0.007 S 
ATOM     39  O   UNL     1     -14.489  15.889  72.083  0.00  0.00    -0.173 OA
ATOM     40  O   UNL     1     -14.160  13.551  72.690  0.00  0.00    -0.173 OA
ENDBRANCH  36  38
ENDBRANCH  35  36
ENDBRANCH  34  35
ENDBRANCH  33  34
ENDBRANCH  28  33
ENDBRANCH   1  30
TORSDOF 10
ENDMDL
MODEL 6
REMARK VINA RESULT:      -7.8      5.260      7.766
REMARK  Name = 
REMARK  10 active torsions:
REMARK  status: ('A' for Active; 'I' for Inactive)
REMARK    1  A    between atoms: S_2  and  C_5
REMARK    2  A    between atoms: C_5  and  C_6
REMARK    3  A    between atoms: C_6  and  N_7
REMARK    4  A    between atoms: N_7  and  C_8
REMARK    5  A    between atoms: C_8  and  C_9
REMARK    6  A    between atoms: C_12  and  C_13
REMARK    7  A    between atoms: N_21  and  C_22
REMARK    8  A    between atoms: C_25  and  O_26
REMARK    9  A    between atoms: O_26  and  C_27
REMARK   10  A    between atoms: C_27  and  C_28
REMARK                            x       y       z     vdW  Elec       q    Type
REMARK                         _______ _______ _______ _____ _____    ______ ____
ROOT
ATOM      1  C   UNL     1      -5.019  19.212  67.750  0.00  0.00    +0.035 A 
ATOM      2  C   UNL     1      -6.013  18.653  66.955  0.00  0.00    +0.007 A 
ATOM      3  C   UNL     1      -7.329  18.733  67.395  0.00  0.00    +0.051 A 
ATOM      4  C   UNL     1      -7.653  19.260  68.639  0.00  0.00    +0.086 A 
ATOM      5  N   UNL     1      -8.928  19.561  68.912  0.00  0.00    -0.224 NA
ATOM      6  C   UNL     1      -9.801  19.565  67.876  0.00  0.00    +0.200 A 
ATOM      7  N   UNL     1      -9.558  18.812  66.776  0.00  0.00    -0.207 NA
ATOM      8  C   UNL     1      -6.626  19.397  69.567  0.00  0.00    +0.019 A 
ATOM      9  C   UNL     1      -8.303  18.413  66.456  0.00  0.00    +0.155 A 
ATOM     10  N   UNL     1      -8.117  17.212  65.696  0.00  0.00    -0.194 NA
ATOM     11  C   UNL     1      -5.326  19.406  69.076  0.00  0.00    +0.005 A 
ENDROOT
BRANCH  10  12
ATOM     12  C   UNL     1      -8.621  16.008  66.288  0.00  0.00    +0.073 A 
ATOM     13  C   UNL     1      -9.627  15.259  65.701  0.00  0.00    +0.031 A 
ATOM     14  C   UNL     1     -10.489  14.462  66.444  0.00  0.00    +0.093 A 
ATOM     15 CL   UNL     1     -12.009  14.015  65.673  0.00  0.00    -0.079 Cl
ATOM     16  C   UNL     1     -10.453  14.562  67.830  0.00  0.00    +0.150 A 
ATOM     17  C   UNL     1      -9.263  15.020  68.377  0.00  0.00    +0.039 A 
ATOM     18  C   UNL     1      -8.325  15.696  67.609  0.00  0.00    +0.020 A 
BRANCH  16  19
ATOM     19  O   UNL     1     -11.618  14.533  68.600  0.00  0.00    -0.470 OA
BRANCH  19  20
ATOM     20  C   UNL     1     -12.060  15.653  69.354  0.00  0.00    +0.232 C 
BRANCH  20  21
ATOM     21  C   UNL     1     -12.077  15.219  70.786  0.00  0.00    +0.023 A 
ATOM     22  C   UNL     1     -12.675  14.047  71.200  0.00  0.00    +0.029 A 
ATOM     23  C   UNL     1     -13.271  13.918  72.449  0.00  0.00    +0.140 A 
ATOM     24  F   UNL     1     -14.375  13.139  72.645  0.00  0.00    -0.204 F 
ATOM     25  C   UNL     1     -13.161  15.006  73.305  0.00  0.00    +0.030 A 
ATOM     26  C   UNL     1     -12.259  16.033  73.067  0.00  0.00    +0.002 A 
ATOM     27  C   UNL     1     -11.799  16.154  71.766  0.00  0.00    -0.001 A 
ENDBRANCH  20  21
ENDBRANCH  19  20
ENDBRANCH  16  19
ENDBRANCH  10  12
BRANCH   1  30
ATOM     28  C   UNL     1      -2.820  20.990  65.616  0.00  0.00    +0.140 A 
ATOM     29  O   UNL     1      -3.518  19.929  65.904  0.00  0.00    -0.456 OA
ATOM     30  C   UNL     1      -3.847  19.875  67.162  0.00  0.00    +0.145 A 
ATOM     31  C   UNL     1      -3.066  20.840  67.782  0.00  0.00    +0.040 A 
ATOM     32  C   UNL     1      -2.676  21.726  66.786  0.00  0.00    +0.038 A 
BRANCH  28  33
ATOM     33  C   UNL     1      -2.185  21.347  64.311  0.00  0.00    +0.153 C 
BRANCH  33  34
ATOM     34  N   UNL     1      -3.130  22.115  63.503  0.00  0.00    -0.208 NA
BRANCH  34  35
ATOM     35  C   UNL     1      -3.206  21.465  62.222  0.00  0.00    +0.114 C 
BRANCH  35  36
ATOM     36  C   UNL     1      -4.426  21.822  61.427  0.00  0.00    +0.170 C 
BRANCH  36  38
ATOM     37  C   UNL     1      -5.330  19.411  62.689  0.00  0.00    +0.176 C 
ATOM     38  S   UNL     1      -5.856  20.890  61.869  0.00  0.00    -0.007 S 
ATOM     39  O   UNL     1      -6.796  21.705  62.705  0.00  0.00    -0.173 OA
ATOM     40  O   UNL     1      -6.592  20.458  60.621  0.00  0.00    -0.173 OA
ENDBRANCH  36  38
ENDBRANCH  35  36
ENDBRANCH  34  35
ENDBRANCH  33  34
ENDBRANCH  28  33
ENDBRANCH   1  30
TORSDOF 10
ENDMDL
MODEL 7
REMARK VINA RESULT:      -7.6      4.082      7.122
REMARK  Name = 
REMARK  10 active torsions:
REMARK  status: ('A' for Active; 'I' for Inactive)
REMARK    1  A    between atoms: S_2  and  C_5
REMARK    2  A    between atoms: C_5  and  C_6
REMARK    3  A    between atoms: C_6  and  N_7
REMARK    4  A    between atoms: N_7  and  C_8
REMARK    5  A    between atoms: C_8  and  C_9
REMARK    6  A    between atoms: C_12  and  C_13
REMARK    7  A    between atoms: N_21  and  C_22
REMARK    8  A    between atoms: C_25  and  O_26
REMARK    9  A    between atoms: O_26  and  C_27
REMARK   10  A    between atoms: C_27  and  C_28
REMARK                            x       y       z     vdW  Elec       q    Type
REMARK                         _______ _______ _______ _____ _____    ______ ____
ROOT
ATOM      1  C   UNL     1     -11.593  10.470  69.973  0.00  0.00    +0.035 A 
ATOM      2  C   UNL     1     -11.570   9.117  70.295  0.00  0.00    +0.007 A 
ATOM      3  C   UNL     1     -12.542   8.631  71.162  0.00  0.00    +0.051 A 
ATOM      4  C   UNL     1     -13.457   9.473  71.781  0.00  0.00    +0.086 A 
ATOM      5  N   UNL     1     -14.526   8.946  72.388  0.00  0.00    -0.224 NA
ATOM      6  C   UNL     1     -14.789   7.638  72.158  0.00  0.00    +0.200 A 
ATOM      7  N   UNL     1     -13.791   6.792  71.805  0.00  0.00    -0.207 NA
ATOM      8  C   UNL     1     -13.177  10.836  71.783  0.00  0.00    +0.019 A 
ATOM      9  C   UNL     1     -12.647   7.247  71.237  0.00  0.00    +0.155 A 
ATOM     10  N   UNL     1     -11.435   6.500  71.400  0.00  0.00    -0.194 NA
ATOM     11  C   UNL     1     -12.269  11.298  70.838  0.00  0.00    +0.005 A 
ENDROOT
BRANCH  10  12
ATOM     12  C   UNL     1     -10.988   6.309  72.748  0.00  0.00    +0.073 A 
ATOM     13  C   UNL     1     -10.180   7.228  73.397  0.00  0.00    +0.031 A 
ATOM     14  C   UNL     1      -9.311   6.861  74.417  0.00  0.00    +0.093 A 
ATOM     15 CL   UNL     1      -7.992   7.977  74.766  0.00  0.00    -0.079 Cl
ATOM     16  C   UNL     1      -9.117   5.508  74.667  0.00  0.00    +0.150 A 
ATOM     17  C   UNL     1     -10.147   4.663  74.276  0.00  0.00    +0.039 A 
ATOM     18  C   UNL     1     -11.108   5.069  73.360  0.00  0.00    +0.020 A 
BRANCH  16  19
ATOM     19  O   UNL     1      -7.858   4.989  74.976  0.00  0.00    -0.470 OA
BRANCH  19  20
ATOM     20  C   UNL     1      -7.227   3.997  74.178  0.00  0.00    +0.232 C 
BRANCH  20  21
ATOM     21  C   UNL     1      -6.910   4.648  72.868  0.00  0.00    +0.023 A 
ATOM     22  C   UNL     1      -6.140   5.788  72.772  0.00  0.00    +0.029 A 
ATOM     23  C   UNL     1      -6.342   6.741  71.779  0.00  0.00    +0.140 A 
ATOM     24  F   UNL     1      -6.137   8.071  72.004  0.00  0.00    -0.204 F 
ATOM     25  C   UNL     1      -7.310   6.448  70.827  0.00  0.00    +0.030 A 
ATOM     26  C   UNL     1      -7.825   5.168  70.679  0.00  0.00    +0.002 A 
ATOM     27  C   UNL     1      -7.673   4.319  71.762  0.00  0.00    -0.001 A 
ENDBRANCH  20  21
ENDBRANCH  19  20
ENDBRANCH  16  19
ENDBRANCH  10  12
BRANCH   1  30
ATOM     28  C   UNL     1     -11.284  12.360  66.993  0.00  0.00    +0.140 A 
ATOM     29  O   UNL     1     -11.977  11.605  67.797  0.00  0.00    -0.456 OA
ATOM     30  C   UNL     1     -11.228  10.947  68.632  0.00  0.00    +0.145 A 
ATOM     31  C   UNL     1      -9.935  11.084  68.146  0.00  0.00    +0.040 A 
ATOM     32  C   UNL     1      -9.944  12.206  67.326  0.00  0.00    +0.038 A 
BRANCH  28  33
ATOM     33  C   UNL     1     -11.780  13.181  65.847  0.00  0.00    +0.153 C 
BRANCH  33  34
ATOM     34  N   UNL     1     -10.646  13.805  65.167  0.00  0.00    -0.208 NA
BRANCH  34  35
ATOM     35  C   UNL     1     -10.852  15.226  65.235  0.00  0.00    +0.114 C 
BRANCH  35  36
ATOM     36  C   UNL     1     -10.473  15.837  66.550  0.00  0.00    +0.170 C 
BRANCH  36  38
ATOM     37  C   UNL     1      -9.979  18.268  67.988  0.00  0.00    +0.176 C 
ATOM     38  S   UNL     1      -9.829  17.473  66.412  0.00  0.00    -0.007 S 
ATOM     39  O   UNL     1      -8.418  17.459  65.910  0.00  0.00    -0.173 OA
ATOM     40  O   UNL     1     -10.667  18.272  65.440  0.00  0.00    -0.173 OA
ENDBRANCH  36  38
ENDBRANCH  35  36
ENDBRANCH  34  35
ENDBRANCH  33  34
ENDBRANCH  28  33
ENDBRANCH   1  30
TORSDOF 10
ENDMDL
MODEL 8
REMARK VINA RESULT:      -7.5      4.557     10.930
REMARK  Name = 
REMARK  10 active torsions:
REMARK  status: ('A' for Active; 'I' for Inactive)
REMARK    1  A    between atoms: S_2  and  C_5
REMARK    2  A    between atoms: C_5  and  C_6
REMARK    3  A    between atoms: C_6  and  N_7
REMARK    4  A    between atoms: N_7  and  C_8
REMARK    5  A    between atoms: C_8  and  C_9
REMARK    6  A    between atoms: C_12  and  C_13
REMARK    7  A    between atoms: N_21  and  C_22
REMARK    8  A    between atoms: C_25  and  O_26
REMARK    9  A    between atoms: O_26  and  C_27
REMARK   10  A    between atoms: C_27  and  C_28
REMARK                            x       y       z     vdW  Elec       q    Type
REMARK                         _______ _______ _______ _____ _____    ______ ____
ROOT
ATOM      1  C   UNL     1      -9.768   9.271  66.468  0.00  0.00    +0.035 A 
ATOM      2  C   UNL     1     -10.443  10.456  66.740  0.00  0.00    +0.007 A 
ATOM      3  C   UNL     1     -10.872  11.229  65.667  0.00  0.00    +0.051 A 
ATOM      4  C   UNL     1     -10.556  10.899  64.355  0.00  0.00    +0.086 A 
ATOM      5  N   UNL     1     -11.200  11.507  63.352  0.00  0.00    -0.224 NA
ATOM      6  C   UNL     1     -12.296  12.235  63.670  0.00  0.00    +0.200 A 
ATOM      7  N   UNL     1     -12.430  12.764  64.910  0.00  0.00    -0.207 NA
ATOM      8  C   UNL     1      -9.532   9.979  64.153  0.00  0.00    +0.019 A 
ATOM      9  C   UNL     1     -11.768  12.247  65.974  0.00  0.00    +0.155 A 
ATOM     10  N   UNL     1     -11.450  13.094  67.086  0.00  0.00    -0.194 NA
ATOM     11  C   UNL     1      -9.196   9.159  65.223  0.00  0.00    +0.005 A 
ENDROOT
BRANCH  10  12
ATOM     12  C   UNL     1     -10.619  14.225  66.799  0.00  0.00    +0.073 A 
ATOM     13  C   UNL     1      -9.237  14.163  66.856  0.00  0.00    +0.031 A 
ATOM     14  C   UNL     1      -8.454  15.277  67.130  0.00  0.00    +0.093 A 
ATOM     15 CL   UNL     1      -6.816  14.967  67.700  0.00  0.00    -0.079 Cl
ATOM     16  C   UNL     1      -9.086  16.446  67.535  0.00  0.00    +0.150 A 
ATOM     17  C   UNL     1     -10.411  16.589  67.145  0.00  0.00    +0.039 A 
ATOM     18  C   UNL     1     -11.166  15.500  66.731  0.00  0.00    +0.020 A 
BRANCH  16  19
ATOM     19  O   UNL     1      -8.555  17.262  68.536  0.00  0.00    -0.470 OA
BRANCH  19  20
ATOM     20  C   UNL     1      -8.741  18.671  68.549  0.00  0.00    +0.232 C 
BRANCH  20  21
ATOM     21  C   UNL     1      -7.438  19.273  68.127  0.00  0.00    +0.023 A 
ATOM     22  C   UNL     1      -6.457  19.629  69.029  0.00  0.00    +0.029 A 
ATOM     23  C   UNL     1      -5.600  20.702  68.810  0.00  0.00    +0.140 A 
ATOM     24  F   UNL     1      -5.137  21.476  69.835  0.00  0.00    -0.204 F 
ATOM     25  C   UNL     1      -5.721  21.353  67.590  0.00  0.00    +0.030 A 
ATOM     26  C   UNL     1      -6.421  20.795  66.530  0.00  0.00    +0.002 A 
ATOM     27  C   UNL     1      -7.334  19.805  66.855  0.00  0.00    -0.001 A 
ENDBRANCH  20  21
ENDBRANCH  19  20
ENDBRANCH  16  19
ENDBRANCH  10  12
BRANCH   1  30
ATOM     28  C   UNL     1     -10.950   6.897  68.817  0.00  0.00    +0.140 A 
ATOM     29  O   UNL     1     -10.375   8.031  68.534  0.00  0.00    -0.456 OA
ATOM     30  C   UNL     1      -9.942   8.078  67.308  0.00  0.00    +0.145 A 
ATOM     31  C   UNL     1     -10.004   6.769  66.852  0.00  0.00    +0.040 A 
ATOM     32  C   UNL     1     -10.913   6.112  67.671  0.00  0.00    +0.038 A 
BRANCH  28  33
ATOM     33  C   UNL     1     -11.478   6.439  70.138  0.00  0.00    +0.153 C 
BRANCH  33  34
ATOM     34  N   UNL     1     -10.451   6.615  71.162  0.00  0.00    -0.208 NA
BRANCH  34  35
ATOM     35  C   UNL     1     -11.117   7.108  72.338  0.00  0.00    +0.114 C 
BRANCH  35  36
ATOM     36  C   UNL     1     -10.322   6.955  73.599  0.00  0.00    +0.170 C 
BRANCH  36  38
ATOM     37  C   UNL     1      -8.689   4.598  73.603  0.00  0.00    +0.176 C 
ATOM     38  S   UNL     1     -10.216   5.291  74.174  0.00  0.00    -0.007 S 
ATOM     39  O   UNL     1     -10.354   5.223  75.664  0.00  0.00    -0.173 OA
ATOM     40  O   UNL     1     -11.325   4.467  73.560  0.00  0.00    -0.173 OA
ENDBRANCH  36  38
ENDBRANCH  35  36
ENDBRANCH  34  35
ENDBRANCH  33  34
ENDBRANCH  28  33
ENDBRANCH   1  30
TORSDOF 10
ENDMDL
MODEL 9
REMARK VINA RESULT:      -7.5      2.751      3.106
REMARK  Name = 
REMARK  10 active torsions:
REMARK  status: ('A' for Active; 'I' for Inactive)
REMARK    1  A    between atoms: S_2  and  C_5
REMARK    2  A    between atoms: C_5  and  C_6
REMARK    3  A    between atoms: C_6  and  N_7
REMARK    4  A    between atoms: N_7  and  C_8
REMARK    5  A    between atoms: C_8  and  C_9
REMARK    6  A    between atoms: C_12  and  C_13
REMARK    7  A    between atoms: N_21  and  C_22
REMARK    8  A    between atoms: C_25  and  O_26
REMARK    9  A    between atoms: O_26  and  C_27
REMARK   10  A    between atoms: C_27  and  C_28
REMARK                            x       y       z     vdW  Elec       q    Type
REMARK                         _______ _______ _______ _____ _____    ______ ____
ROOT
ATOM      1  C   UNL     1      -9.950  14.912  66.296  0.00  0.00    +0.035 A 
ATOM      2  C   UNL     1      -9.639  13.664  65.768  0.00  0.00    +0.007 A 
ATOM      3  C   UNL     1     -10.664  12.917  65.199  0.00  0.00    +0.051 A 
ATOM      4  C   UNL     1     -11.987  13.342  65.237  0.00  0.00    +0.086 A 
ATOM      5  N   UNL     1     -12.892  12.739  64.458  0.00  0.00    -0.224 NA
ATOM      6  C   UNL     1     -12.428  11.909  63.495  0.00  0.00    +0.200 A 
ATOM      7  N   UNL     1     -11.223  11.305  63.635  0.00  0.00    -0.207 NA
ATOM      8  C   UNL     1     -12.312  14.352  66.137  0.00  0.00    +0.019 A 
ATOM      9  C   UNL     1     -10.267  11.816  64.449  0.00  0.00    +0.155 A 
ATOM     10  N   UNL     1      -9.294  10.939  65.030  0.00  0.00    -0.194 NA
ATOM     11  C   UNL     1     -11.269  15.137  66.612  0.00  0.00    +0.005 A 
ENDROOT
BRANCH  10  12
ATOM     12  C   UNL     1      -9.806   9.895  65.867  0.00  0.00    +0.073 A 
ATOM     13  C   UNL     1     -10.458  10.156  67.061  0.00  0.00    +0.031 A 
ATOM     14  C   UNL     1     -10.469   9.251  68.115  0.00  0.00    +0.093 A 
ATOM     15 CL   UNL     1     -10.845   9.903  69.708  0.00  0.00    -0.079 Cl
ATOM     16  C   UNL     1      -9.651   8.131  68.033  0.00  0.00    +0.150 A 
ATOM     17  C   UNL     1      -9.301   7.724  66.753  0.00  0.00    +0.039 A 
ATOM     18  C   UNL     1      -9.420   8.576  65.664  0.00  0.00    +0.020 A 
BRANCH  16  19
ATOM     19  O   UNL     1      -8.953   7.647  69.142  0.00  0.00    -0.470 OA
BRANCH  19  20
ATOM     20  C   UNL     1      -9.165   6.342  69.664  0.00  0.00    +0.232 C 
BRANCH  20  21
ATOM     21  C   UNL     1     -10.077   6.501  70.840  0.00  0.00    +0.023 A 
ATOM     22  C   UNL     1     -11.437   6.283  70.762  0.00  0.00    +0.029 A 
ATOM     23  C   UNL     1     -12.349   6.991  71.537  0.00  0.00    +0.140 A 
ATOM     24  F   UNL     1     -13.590   7.316  71.072  0.00  0.00    -0.204 F 
ATOM     25  C   UNL     1     -11.818   7.876  72.466  0.00  0.00    +0.030 A 
ATOM     26  C   UNL     1     -10.478   7.841  72.826  0.00  0.00    +0.002 A 
ATOM     27  C   UNL     1      -9.623   7.208  71.939  0.00  0.00    -0.001 A 
ENDBRANCH  20  21
ENDBRANCH  19  20
ENDBRANCH  16  19
ENDBRANCH  10  12
BRANCH   1  30
ATOM     28  C   UNL     1      -8.425  18.104  66.489  0.00  0.00    +0.140 A 
ATOM     29  O   UNL     1      -9.300  17.288  65.973  0.00  0.00    -0.456 OA
ATOM     30  C   UNL     1      -9.013  16.040  66.202  0.00  0.00    +0.145 A 
ATOM     31  C   UNL     1      -7.706  16.049  66.669  0.00  0.00    +0.040 A 
ATOM     32  C   UNL     1      -7.467  17.335  67.138  0.00  0.00    +0.038 A 
BRANCH  28  33
ATOM     33  C   UNL     1      -8.364  19.591  66.355  0.00  0.00    +0.153 C 
BRANCH  33  34
ATOM     34  N   UNL     1      -7.058  20.068  66.805  0.00  0.00    -0.208 NA
BRANCH  34  35
ATOM     35  C   UNL     1      -6.443  20.720  65.680  0.00  0.00    +0.114 C 
BRANCH  35  36
ATOM     36  C   UNL     1      -5.549  19.828  64.871  0.00  0.00    +0.170 C 
BRANCH  36  38
ATOM     37  C   UNL     1      -3.798  21.207  63.067  0.00  0.00    +0.176 C 
ATOM     38  S   UNL     1      -5.346  20.356  63.201  0.00  0.00    -0.007 S 
ATOM     39  O   UNL     1      -5.450  19.202  62.252  0.00  0.00    -0.173 OA
ATOM     40  O   UNL     1      -6.424  21.356  62.846  0.00  0.00    -0.173 OA
ENDBRANCH  36  38
ENDBRANCH  35  36
ENDBRANCH  34  35
ENDBRANCH  33  34
ENDBRANCH  28  33
ENDBRANCH   1  30
TORSDOF 10
ENDMDL
