MODEL 1
REMARK VINA RESULT:      -6.8      0.000      0.000
REMARK  Name = 
REMARK  9 active torsions:
REMARK  status: ('A' for Active; 'I' for Inactive)
REMARK    1  A    between atoms: C_2  and  C_4
REMARK    2  A    between atoms: C_8  and  C_9
REMARK    3  A    between atoms: C_12  and  N_13
REMARK    4  A    between atoms: C_14  and  C_16
REMARK    5  A    between atoms: C_16  and  N_17
REMARK    6  A    between atoms: N_17  and  C_18
REMARK    7  A    between atoms: N_17  and  C_22
REMARK    8  A    between atoms: C_18  and  C_19
REMARK    9  A    between atoms: C_22  and  C_23
REMARK                            x       y       z     vdW  Elec       q    Type
REMARK                         _______ _______ _______ _____ _____    ______ ____
ROOT
ATOM      1  N   UNL     1     -10.952  14.559  69.828  0.00  0.00    -0.179 NA
ATOM      2  C   UNL     1     -11.050  15.424  68.690  0.00  0.00    +0.262 C 
ATOM      3  O   UNL     1     -12.166  16.014  68.569  0.00  0.00    -0.271 OA
ENDROOT
BRANCH   1   5
ATOM      4  C   UNL     1     -12.704  13.831  71.287  0.00  0.00    -0.007 A 
ATOM      5  C   UNL     1     -12.016  13.639  70.096  0.00  0.00    +0.065 A 
ATOM      6  C   UNL     1     -11.835  12.314  69.716  0.00  0.00    -0.007 A 
ATOM      7  C   UNL     1     -12.561  11.287  70.306  0.00  0.00    -0.003 A 
ATOM      8  C   UNL     1     -13.084  11.504  71.559  0.00  0.00    -0.001 A 
ATOM      9  C   UNL     1     -13.141  12.780  72.075  0.00  0.00    -0.003 A 
BRANCH   4  11
ATOM     10  C   UNL     1     -14.725  15.195  71.667  0.00  0.00    +0.005 C 
ATOM     11  C   UNL     1     -13.209  15.217  71.523  0.00  0.00    +0.024 C 
ATOM     12  C   UNL     1     -12.640  15.737  72.831  0.00  0.00    +0.005 C 
ENDBRANCH   4  11
BRANCH   6  13
ATOM     13  C   UNL     1     -10.785  12.021  68.699  0.00  0.00    +0.024 C 
ATOM     14  C   UNL     1     -11.381  11.937  67.299  0.00  0.00    +0.005 C 
ATOM     15  C   UNL     1     -10.195  10.644  68.972  0.00  0.00    +0.005 C 
ENDBRANCH   6  13
ENDBRANCH   1   5
BRANCH   2  16
ATOM     16  C   UNL     1      -9.833  16.130  68.188  0.00  0.00    +0.161 C 
BRANCH  16  17
ATOM     17  N   UNL     1     -10.198  16.755  66.937  0.00  0.00    -0.246 NA
BRANCH  17  18
ATOM     18  C   UNL     1      -9.903  15.859  65.848  0.00  0.00    +0.189 C 
BRANCH  18  19
ATOM     19  C   UNL     1     -11.002  15.791  64.851  0.00  0.00    +0.381 C 
ATOM     20  O   UNL     1     -11.848  14.680  64.850  0.00  0.00    -0.244 OA
ATOM     21  O   UNL     1     -11.339  16.788  64.160  0.00  0.00    -0.244 OA
ENDBRANCH  18  19
ENDBRANCH  17  18
BRANCH  17  22
ATOM     22  C   UNL     1      -9.520  18.029  66.830  0.00  0.00    +0.189 C 
BRANCH  22  23
ATOM     23  C   UNL     1     -10.507  19.145  66.827  0.00  0.00    +0.381 C 
ATOM     24  O   UNL     1     -10.697  19.823  65.642  0.00  0.00    -0.244 OA
ATOM     25  O   UNL     1     -10.742  19.767  67.905  0.00  0.00    -0.244 OA
ENDBRANCH  22  23
ENDBRANCH  17  22
ENDBRANCH  16  17
ENDBRANCH   2  16
TORSDOF 9
ENDMDL
MODEL 2
REMARK VINA RESULT:      -6.4      1.265      4.219
REMARK  Name = 
REMARK  9 active torsions:
REMARK  status: ('A' for Active; 'I' for Inactive)
REMARK    1  A    between atoms: C_2  and  C_4
REMARK    2  A    between atoms: C_8  and  C_9
REMARK    3  A    between atoms: C_12  and  N_13
REMARK    4  A    between atoms: C_14  and  C_16
REMARK    5  A    between atoms: C_16  and  N_17
REMARK    6  A    between atoms: N_17  and  C_18
REMARK    7  A    between atoms: N_17  and  C_22
REMARK    8  A    between atoms: C_18  and  C_19
REMARK    9  A    between atoms: C_22  and  C_23
REMARK                            x       y       z     vdW  Elec       q    Type
REMARK                         _______ _______ _______ _____ _____    ______ ____
ROOT
ATOM      1  N   UNL     1     -11.892  13.847  68.778  0.00  0.00    -0.179 NA
ATOM      2  C   UNL     1     -10.877  14.840  68.589  0.00  0.00    +0.262 C 
ATOM      3  O   UNL     1      -9.700  14.449  68.852  0.00  0.00    -0.271 OA
ENDROOT
BRANCH   1   5
ATOM      4  C   UNL     1     -11.819  11.699  69.831  0.00  0.00    -0.007 A 
ATOM      5  C   UNL     1     -11.898  13.077  69.986  0.00  0.00    +0.065 A 
ATOM      6  C   UNL     1     -12.703  13.518  71.029  0.00  0.00    -0.007 A 
ATOM      7  C   UNL     1     -13.129  12.653  72.028  0.00  0.00    -0.003 A 
ATOM      8  C   UNL     1     -13.168  11.307  71.745  0.00  0.00    -0.001 A 
ATOM      9  C   UNL     1     -12.530  10.817  70.626  0.00  0.00    -0.003 A 
BRANCH   4  11
ATOM     10  C   UNL     1      -9.927  10.121  69.693  0.00  0.00    +0.005 C 
ATOM     11  C   UNL     1     -10.704  11.210  68.965  0.00  0.00    +0.024 C 
ATOM     12  C   UNL     1     -11.287  10.586  67.710  0.00  0.00    +0.005 C 
ENDBRANCH   4  11
BRANCH   6  13
ATOM     13  C   UNL     1     -13.154  14.939  71.005  0.00  0.00    +0.024 C 
ATOM     14  C   UNL     1     -12.281  15.810  71.901  0.00  0.00    +0.005 C 
ATOM     15  C   UNL     1     -14.555  15.029  71.593  0.00  0.00    +0.005 C 
ENDBRANCH   6  13
ENDBRANCH   1   5
BRANCH   2  16
ATOM     16  C   UNL     1     -11.044  15.880  67.530  0.00  0.00    +0.161 C 
BRANCH  16  17
ATOM     17  N   UNL     1      -9.768  16.006  66.864  0.00  0.00    -0.246 NA
BRANCH  17  18
ATOM     18  C   UNL     1      -9.379  17.393  66.825  0.00  0.00    +0.189 C 
BRANCH  18  19
ATOM     19  C   UNL     1      -8.920  17.894  68.145  0.00  0.00    +0.381 C 
ATOM     20  O   UNL     1      -9.699  18.834  68.821  0.00  0.00    -0.244 OA
ATOM     21  O   UNL     1      -7.979  17.343  68.777  0.00  0.00    -0.244 OA
ENDBRANCH  18  19
ENDBRANCH  17  18
BRANCH  17  22
ATOM     22  C   UNL     1      -9.858  15.401  65.552  0.00  0.00    +0.189 C 
BRANCH  22  23
ATOM     23  C   UNL     1     -11.162  15.736  64.913  0.00  0.00    +0.381 C 
ATOM     24  O   UNL     1     -12.004  14.690  64.599  0.00  0.00    -0.244 OA
ATOM     25  O   UNL     1     -11.262  16.798  64.231  0.00  0.00    -0.244 OA
ENDBRANCH  22  23
ENDBRANCH  17  22
ENDBRANCH  16  17
ENDBRANCH   2  16
TORSDOF 9
ENDMDL
MODEL 3
REMARK VINA RESULT:      -6.1      1.360      2.441
REMARK  Name = 
REMARK  9 active torsions:
REMARK  status: ('A' for Active; 'I' for Inactive)
REMARK    1  A    between atoms: C_2  and  C_4
REMARK    2  A    between atoms: C_8  and  C_9
REMARK    3  A    between atoms: C_12  and  N_13
REMARK    4  A    between atoms: C_14  and  C_16
REMARK    5  A    between atoms: C_16  and  N_17
REMARK    6  A    between atoms: N_17  and  C_18
REMARK    7  A    between atoms: N_17  and  C_22
REMARK    8  A    between atoms: C_18  and  C_19
REMARK    9  A    between atoms: C_22  and  C_23
REMARK                            x       y       z     vdW  Elec       q    Type
REMARK                         _______ _______ _______ _____ _____    ______ ____
ROOT
ATOM      1  N   UNL     1     -10.945  14.735  69.801  0.00  0.00    -0.179 NA
ATOM      2  C   UNL     1     -11.155  15.758  68.820  0.00  0.00    +0.262 C 
ATOM      3  O   UNL     1     -12.315  16.270  68.831  0.00  0.00    -0.271 OA
ENDROOT
BRANCH   1   5
ATOM      4  C   UNL     1     -12.524  13.606  71.201  0.00  0.00    -0.007 A 
ATOM      5  C   UNL     1     -11.927  13.703  69.951  0.00  0.00    +0.065 A 
ATOM      6  C   UNL     1     -11.700  12.496  69.301  0.00  0.00    -0.007 A 
ATOM      7  C   UNL     1     -12.312  11.322  69.721  0.00  0.00    -0.003 A 
ATOM      8  C   UNL     1     -12.742  11.249  71.025  0.00  0.00    -0.001 A 
ATOM      9  C   UNL     1     -12.831  12.392  71.790  0.00  0.00    -0.003 A 
BRANCH   4  11
ATOM     10  C   UNL     1     -14.607  14.857  71.631  0.00  0.00    +0.005 C 
ATOM     11  C   UNL     1     -13.089  14.878  71.746  0.00  0.00    +0.024 C 
ATOM     12  C   UNL     1     -12.750  14.979  73.222  0.00  0.00    +0.005 C 
ENDBRANCH   4  11
BRANCH   6  13
ATOM     13  C   UNL     1     -10.722  12.487  68.175  0.00  0.00    +0.024 C 
ATOM     14  C   UNL     1     -11.327  11.864  66.923  0.00  0.00    +0.005 C 
ATOM     15  C   UNL     1      -9.544  11.595  68.543  0.00  0.00    +0.005 C 
ENDBRANCH   6  13
ENDBRANCH   1   5
BRANCH   2  16
ATOM     16  C   UNL     1     -10.015  16.628  68.400  0.00  0.00    +0.161 C 
BRANCH  16  17
ATOM     17  N   UNL     1      -9.591  16.160  67.100  0.00  0.00    -0.246 NA
BRANCH  17  18
ATOM     18  C   UNL     1      -8.152  16.188  67.025  0.00  0.00    +0.189 C 
BRANCH  18  19
ATOM     19  C   UNL     1      -7.626  17.523  66.644  0.00  0.00    +0.381 C 
ATOM     20  O   UNL     1      -7.382  18.466  67.644  0.00  0.00    -0.244 OA
ATOM     21  O   UNL     1      -7.182  17.761  65.489  0.00  0.00    -0.244 OA
ENDBRANCH  18  19
ENDBRANCH  17  18
BRANCH  17  22
ATOM     22  C   UNL     1     -10.232  16.960  66.078  0.00  0.00    +0.189 C 
BRANCH  22  23
ATOM     23  C   UNL     1     -10.833  16.085  65.033  0.00  0.00    +0.381 C 
ATOM     24  O   UNL     1     -11.533  16.697  64.015  0.00  0.00    -0.244 OA
ATOM     25  O   UNL     1     -11.144  14.893  65.327  0.00  0.00    -0.244 OA
ENDBRANCH  22  23
ENDBRANCH  17  22
ENDBRANCH  16  17
ENDBRANCH   2  16
TORSDOF 9
ENDMDL
MODEL 4
REMARK VINA RESULT:      -6.0      1.858      4.291
REMARK  Name = 
REMARK  9 active torsions:
REMARK  status: ('A' for Active; 'I' for Inactive)
REMARK    1  A    between atoms: C_2  and  C_4
REMARK    2  A    between atoms: C_8  and  C_9
REMARK    3  A    between atoms: C_12  and  N_13
REMARK    4  A    between atoms: C_14  and  C_16
REMARK    5  A    between atoms: C_16  and  N_17
REMARK    6  A    between atoms: N_17  and  C_18
REMARK    7  A    between atoms: N_17  and  C_22
REMARK    8  A    between atoms: C_18  and  C_19
REMARK    9  A    between atoms: C_22  and  C_23
REMARK                            x       y       z     vdW  Elec       q    Type
REMARK                         _______ _______ _______ _____ _____    ______ ____
ROOT
ATOM      1  N   UNL     1     -11.208  15.412  68.624  0.00  0.00    -0.179 NA
ATOM      2  C   UNL     1     -10.218  16.414  68.888  0.00  0.00    +0.262 C 
ATOM      3  O   UNL     1      -9.035  15.973  68.996  0.00  0.00    -0.271 OA
ENDROOT
BRANCH   1   5
ATOM      4  C   UNL     1     -11.016  13.027  68.710  0.00  0.00    -0.007 A 
ATOM      5  C   UNL     1     -11.209  14.213  69.408  0.00  0.00    +0.065 A 
ATOM      6  C   UNL     1     -12.094  14.141  70.477  0.00  0.00    -0.007 A 
ATOM      7  C   UNL     1     -12.498  12.919  71.001  0.00  0.00    -0.003 A 
ATOM      8  C   UNL     1     -12.417  11.811  70.190  0.00  0.00    -0.001 A 
ATOM      9  C   UNL     1     -11.692  11.860  69.020  0.00  0.00    -0.003 A 
BRANCH   4  11
ATOM     10  C   UNL     1      -8.849  11.928  68.275  0.00  0.00    +0.005 C 
ATOM     11  C   UNL     1      -9.826  12.998  67.806  0.00  0.00    +0.024 C 
ATOM     12  C   UNL     1     -10.276  12.616  66.407  0.00  0.00    +0.005 C 
ENDBRANCH   4  11
BRANCH   6  13
ATOM     13  C   UNL     1     -12.653  15.419  71.003  0.00  0.00    +0.024 C 
ATOM     14  C   UNL     1     -11.865  15.911  72.210  0.00  0.00    +0.005 C 
ATOM     15  C   UNL     1     -14.066  15.174  71.513  0.00  0.00    +0.005 C 
ENDBRANCH   6  13
ENDBRANCH   1   5
BRANCH   2  16
ATOM     16  C   UNL     1     -10.399  17.795  68.346  0.00  0.00    +0.161 C 
BRANCH  16  17
ATOM     17  N   UNL     1      -9.609  17.876  67.138  0.00  0.00    -0.246 NA
BRANCH  17  18
ATOM     18  C   UNL     1      -8.620  18.914  67.279  0.00  0.00    +0.189 C 
BRANCH  18  19
ATOM     19  C   UNL     1      -7.277  18.491  66.807  0.00  0.00    +0.381 C 
ATOM     20  O   UNL     1      -7.126  18.063  65.487  0.00  0.00    -0.244 OA
ATOM     21  O   UNL     1      -6.235  18.715  67.478  0.00  0.00    -0.244 OA
ENDBRANCH  18  19
ENDBRANCH  17  18
BRANCH  17  22
ATOM     22  C   UNL     1     -10.493  18.077  66.010  0.00  0.00    +0.189 C 
BRANCH  22  23
ATOM     23  C   UNL     1     -10.667  16.805  65.252  0.00  0.00    +0.381 C 
ATOM     24  O   UNL     1      -9.678  15.852  65.373  0.00  0.00    -0.244 OA
ATOM     25  O   UNL     1     -11.359  16.806  64.191  0.00  0.00    -0.244 OA
ENDBRANCH  22  23
ENDBRANCH  17  22
ENDBRANCH  16  17
ENDBRANCH   2  16
TORSDOF 9
ENDMDL
MODEL 5
REMARK VINA RESULT:      -6.0      2.041      2.760
REMARK  Name = 
REMARK  9 active torsions:
REMARK  status: ('A' for Active; 'I' for Inactive)
REMARK    1  A    between atoms: C_2  and  C_4
REMARK    2  A    between atoms: C_8  and  C_9
REMARK    3  A    between atoms: C_12  and  N_13
REMARK    4  A    between atoms: C_14  and  C_16
REMARK    5  A    between atoms: C_16  and  N_17
REMARK    6  A    between atoms: N_17  and  C_18
REMARK    7  A    between atoms: N_17  and  C_22
REMARK    8  A    between atoms: C_18  and  C_19
REMARK    9  A    between atoms: C_22  and  C_23
REMARK                            x       y       z     vdW  Elec       q    Type
REMARK                         _______ _______ _______ _____ _____    ______ ____
ROOT
ATOM      1  N   UNL     1     -11.265  16.128  68.400  0.00  0.00    -0.179 NA
ATOM      2  C   UNL     1      -9.988  16.369  69.003  0.00  0.00    +0.262 C 
ATOM      3  O   UNL     1      -9.157  15.419  68.881  0.00  0.00    -0.271 OA
ENDROOT
BRANCH   1   5
ATOM      4  C   UNL     1     -12.088  14.519  69.970  0.00  0.00    -0.007 A 
ATOM      5  C   UNL     1     -11.922  14.878  68.638  0.00  0.00    +0.065 A 
ATOM      6  C   UNL     1     -11.654  13.830  67.766  0.00  0.00    -0.007 A 
ATOM      7  C   UNL     1     -11.857  12.508  68.139  0.00  0.00    -0.003 A 
ATOM      8  C   UNL     1     -11.856  12.208  69.481  0.00  0.00    -0.001 A 
ATOM      9  C   UNL     1     -11.948  13.217  70.416  0.00  0.00    -0.003 A 
BRANCH   4  11
ATOM     10  C   UNL     1     -14.062  15.057  71.349  0.00  0.00    +0.005 C 
ATOM     11  C   UNL     1     -12.716  15.557  70.843  0.00  0.00    +0.024 C 
ATOM     12  C   UNL     1     -11.834  15.783  72.058  0.00  0.00    +0.005 C 
ENDBRANCH   4  11
BRANCH   6  13
ATOM     13  C   UNL     1     -11.074  14.167  66.433  0.00  0.00    +0.024 C 
ATOM     14  C   UNL     1     -12.095  13.964  65.320  0.00  0.00    +0.005 C 
ATOM     15  C   UNL     1      -9.939  13.202  66.124  0.00  0.00    +0.005 C 
ENDBRANCH   6  13
ENDBRANCH   1   5
BRANCH   2  16
ATOM     16  C   UNL     1      -9.448  17.761  69.066  0.00  0.00    +0.161 C 
BRANCH  16  17
ATOM     17  N   UNL     1      -9.103  18.136  67.714  0.00  0.00    -0.246 NA
BRANCH  17  18
ATOM     18  C   UNL     1      -7.678  18.323  67.615  0.00  0.00    +0.189 C 
BRANCH  18  19
ATOM     19  C   UNL     1      -7.087  17.601  66.460  0.00  0.00    +0.381 C 
ATOM     20  O   UNL     1      -6.785  16.244  66.591  0.00  0.00    -0.244 OA
ATOM     21  O   UNL     1      -7.054  18.103  65.305  0.00  0.00    -0.244 OA
ENDBRANCH  18  19
ENDBRANCH  17  18
BRANCH  17  22
ATOM     22  C   UNL     1      -9.861  19.312  67.343  0.00  0.00    +0.189 C 
BRANCH  22  23
ATOM     23  C   UNL     1     -10.577  19.086  66.056  0.00  0.00    +0.381 C 
ATOM     24  O   UNL     1     -10.503  17.826  65.500  0.00  0.00    -0.244 OA
ATOM     25  O   UNL     1     -10.773  20.064  65.276  0.00  0.00    -0.244 OA
ENDBRANCH  22  23
ENDBRANCH  17  22
ENDBRANCH  16  17
ENDBRANCH   2  16
TORSDOF 9
ENDMDL
MODEL 6
REMARK VINA RESULT:      -5.8      2.955      6.866
REMARK  Name = 
REMARK  9 active torsions:
REMARK  status: ('A' for Active; 'I' for Inactive)
REMARK    1  A    between atoms: C_2  and  C_4
REMARK    2  A    between atoms: C_8  and  C_9
REMARK    3  A    between atoms: C_12  and  N_13
REMARK    4  A    between atoms: C_14  and  C_16
REMARK    5  A    between atoms: C_16  and  N_17
REMARK    6  A    between atoms: N_17  and  C_18
REMARK    7  A    between atoms: N_17  and  C_22
REMARK    8  A    between atoms: C_18  and  C_19
REMARK    9  A    between atoms: C_22  and  C_23
REMARK                            x       y       z     vdW  Elec       q    Type
REMARK                         _______ _______ _______ _____ _____    ______ ____
ROOT
ATOM      1  N   UNL     1      -8.122  16.928  68.287  0.00  0.00    -0.179 NA
ATOM      2  C   UNL     1      -8.125  16.147  67.086  0.00  0.00    +0.262 C 
ATOM      3  O   UNL     1      -7.051  16.206  66.415  0.00  0.00    -0.271 OA
ENDROOT
BRANCH   1   5
ATOM      4  C   UNL     1      -8.227  19.086  67.257  0.00  0.00    -0.007 A 
ATOM      5  C   UNL     1      -7.658  18.282  68.237  0.00  0.00    +0.065 A 
ATOM      6  C   UNL     1      -6.312  18.513  68.494  0.00  0.00    -0.007 A 
ATOM      7  C   UNL     1      -5.678  19.664  68.045  0.00  0.00    -0.003 A 
ATOM      8  C   UNL     1      -6.222  20.323  66.967  0.00  0.00    -0.001 A 
ATOM      9  C   UNL     1      -7.499  20.023  66.545  0.00  0.00    -0.003 A 
BRANCH   4  11
ATOM     10  C   UNL     1     -10.257  19.923  68.382  0.00  0.00    +0.005 C 
ATOM     11  C   UNL     1      -9.721  19.097  67.220  0.00  0.00    +0.024 C 
ATOM     12  C   UNL     1     -10.180  19.770  65.939  0.00  0.00    +0.005 C 
ENDBRANCH   4  11
BRANCH   6  13
ATOM     13  C   UNL     1      -5.550  17.452  69.213  0.00  0.00    +0.024 C 
ATOM     14  C   UNL     1      -5.280  17.849  70.659  0.00  0.00    +0.005 C 
ATOM     15  C   UNL     1      -4.179  17.299  68.570  0.00  0.00    +0.005 C 
ENDBRANCH   6  13
ENDBRANCH   1   5
BRANCH   2  16
ATOM     16  C   UNL     1      -8.913  14.880  67.026  0.00  0.00    +0.161 C 
BRANCH  16  17
ATOM     17  N   UNL     1     -10.244  15.235  66.591  0.00  0.00    -0.246 NA
BRANCH  17  18
ATOM     18  C   UNL     1     -11.216  14.565  67.417  0.00  0.00    +0.189 C 
BRANCH  18  19
ATOM     19  C   UNL     1     -11.369  15.202  68.749  0.00  0.00    +0.381 C 
ATOM     20  O   UNL     1     -11.625  16.573  68.820  0.00  0.00    -0.244 OA
ATOM     21  O   UNL     1     -11.499  14.523  69.802  0.00  0.00    -0.244 OA
ENDBRANCH  18  19
ENDBRANCH  17  18
BRANCH  17  22
ATOM     22  C   UNL     1     -10.379  14.924  65.183  0.00  0.00    +0.189 C 
BRANCH  22  23
ATOM     23  C   UNL     1     -11.530  15.665  64.594  0.00  0.00    +0.381 C 
ATOM     24  O   UNL     1     -12.543  14.921  64.029  0.00  0.00    -0.244 OA
ATOM     25  O   UNL     1     -11.353  16.843  64.164  0.00  0.00    -0.244 OA
ENDBRANCH  22  23
ENDBRANCH  17  22
ENDBRANCH  16  17
ENDBRANCH   2  16
TORSDOF 9
ENDMDL
MODEL 7
REMARK VINA RESULT:      -5.8      3.109      6.744
REMARK  Name = 
REMARK  9 active torsions:
REMARK  status: ('A' for Active; 'I' for Inactive)
REMARK    1  A    between atoms: C_2  and  C_4
REMARK    2  A    between atoms: C_8  and  C_9
REMARK    3  A    between atoms: C_12  and  N_13
REMARK    4  A    between atoms: C_14  and  C_16
REMARK    5  A    between atoms: C_16  and  N_17
REMARK    6  A    between atoms: N_17  and  C_18
REMARK    7  A    between atoms: N_17  and  C_22
REMARK    8  A    between atoms: C_18  and  C_19
REMARK    9  A    between atoms: C_22  and  C_23
REMARK                            x       y       z     vdW  Elec       q    Type
REMARK                         _______ _______ _______ _____ _____    ______ ____
ROOT
ATOM      1  N   UNL     1      -8.038  16.248  68.619  0.00  0.00    -0.179 NA
ATOM      2  C   UNL     1      -8.172  15.455  67.433  0.00  0.00    +0.262 C 
ATOM      3  O   UNL     1      -7.079  15.179  66.855  0.00  0.00    -0.271 OA
ENDROOT
BRANCH   1   5
ATOM      4  C   UNL     1      -6.145  17.426  69.489  0.00  0.00    -0.007 A 
ATOM      5  C   UNL     1      -7.201  17.410  68.587  0.00  0.00    +0.065 A 
ATOM      6  C   UNL     1      -7.810  18.638  68.357  0.00  0.00    -0.007 A 
ATOM      7  C   UNL     1      -7.207  19.828  68.743  0.00  0.00    -0.003 A 
ATOM      8  C   UNL     1      -6.276  19.781  69.753  0.00  0.00    -0.001 A 
ATOM      9  C   UNL     1      -5.749  18.573  70.155  0.00  0.00    -0.003 A 
BRANCH   4  11
ATOM     10  C   UNL     1      -3.956  16.536  68.776  0.00  0.00    +0.005 C 
ATOM     11  C   UNL     1      -5.270  16.215  69.477  0.00  0.00    +0.024 C 
ATOM     12  C   UNL     1      -4.935  15.831  70.908  0.00  0.00    +0.005 C 
ENDBRANCH   4  11
BRANCH   6  13
ATOM     13  C   UNL     1      -9.168  18.635  67.740  0.00  0.00    +0.024 C 
ATOM     14  C   UNL     1      -9.098  18.943  66.249  0.00  0.00    +0.005 C 
ATOM     15  C   UNL     1      -9.996  19.757  68.349  0.00  0.00    +0.005 C 
ENDBRANCH   6  13
ENDBRANCH   1   5
BRANCH   2  16
ATOM     16  C   UNL     1      -9.285  14.463  67.326  0.00  0.00    +0.161 C 
BRANCH  16  17
ATOM     17  N   UNL     1     -10.405  15.154  66.731  0.00  0.00    -0.246 NA
BRANCH  17  18
ATOM     18  C   UNL     1     -11.625  14.734  67.371  0.00  0.00    +0.189 C 
BRANCH  18  19
ATOM     19  C   UNL     1     -11.704  15.168  68.789  0.00  0.00    +0.381 C 
ATOM     20  O   UNL     1     -11.637  16.530  69.087  0.00  0.00    -0.244 OA
ATOM     21  O   UNL     1     -12.054  14.380  69.709  0.00  0.00    -0.244 OA
ENDBRANCH  18  19
ENDBRANCH  17  18
BRANCH  17  22
ATOM     22  C   UNL     1     -10.400  14.920  65.302  0.00  0.00    +0.189 C 
BRANCH  22  23
ATOM     23  C   UNL     1     -11.507  15.672  64.647  0.00  0.00    +0.381 C 
ATOM     24  O   UNL     1     -12.487  14.938  64.015  0.00  0.00    -0.244 OA
ATOM     25  O   UNL     1     -11.296  16.851  64.236  0.00  0.00    -0.244 OA
ENDBRANCH  22  23
ENDBRANCH  17  22
ENDBRANCH  16  17
ENDBRANCH   2  16
TORSDOF 9
ENDMDL
MODEL 8
REMARK VINA RESULT:      -5.7      1.882      2.264
REMARK  Name = 
REMARK  9 active torsions:
REMARK  status: ('A' for Active; 'I' for Inactive)
REMARK    1  A    between atoms: C_2  and  C_4
REMARK    2  A    between atoms: C_8  and  C_9
REMARK    3  A    between atoms: C_12  and  N_13
REMARK    4  A    between atoms: C_14  and  C_16
REMARK    5  A    between atoms: C_16  and  N_17
REMARK    6  A    between atoms: N_17  and  C_18
REMARK    7  A    between atoms: N_17  and  C_22
REMARK    8  A    between atoms: C_18  and  C_19
REMARK    9  A    between atoms: C_22  and  C_23
REMARK                            x       y       z     vdW  Elec       q    Type
REMARK                         _______ _______ _______ _____ _____    ______ ____
ROOT
ATOM      1  N   UNL     1     -10.874  14.791  70.019  0.00  0.00    -0.179 NA
ATOM      2  C   UNL     1     -10.956  15.811  69.016  0.00  0.00    +0.262 C 
ATOM      3  O   UNL     1     -12.099  16.349  68.902  0.00  0.00    -0.271 OA
ENDROOT
BRANCH   1   5
ATOM      4  C   UNL     1     -12.610  13.704  71.258  0.00  0.00    -0.007 A 
ATOM      5  C   UNL     1     -11.890  13.783  70.073  0.00  0.00    +0.065 A 
ATOM      6  C   UNL     1     -11.628  12.569  69.449  0.00  0.00    -0.007 A 
ATOM      7  C   UNL     1     -12.307  11.411  69.808  0.00  0.00    -0.003 A 
ATOM      8  C   UNL     1     -12.865  11.352  71.063  0.00  0.00    -0.001 A 
ATOM      9  C   UNL     1     -13.002  12.499  71.815  0.00  0.00    -0.003 A 
BRANCH   4  11
ATOM     10  C   UNL     1     -14.710  14.954  71.594  0.00  0.00    +0.005 C 
ATOM     11  C   UNL     1     -13.195  14.991  71.743  0.00  0.00    +0.024 C 
ATOM     12  C   UNL     1     -12.892  15.147  73.222  0.00  0.00    +0.005 C 
ENDBRANCH   4  11
BRANCH   6  13
ATOM     13  C   UNL     1     -10.544  12.533  68.426  0.00  0.00    +0.024 C 
ATOM     14  C   UNL     1     -11.117  12.412  67.019  0.00  0.00    +0.005 C 
ATOM     15  C   UNL     1      -9.704  11.281  68.631  0.00  0.00    +0.005 C 
ENDBRANCH   6  13
ENDBRANCH   1   5
BRANCH   2  16
ATOM     16  C   UNL     1      -9.759  16.651  68.711  0.00  0.00    +0.161 C 
BRANCH  16  17
ATOM     17  N   UNL     1      -9.339  16.309  67.372  0.00  0.00    -0.246 NA
BRANCH  17  18
ATOM     18  C   UNL     1     -10.498  16.075  66.549  0.00  0.00    +0.189 C 
BRANCH  18  19
ATOM     19  C   UNL     1     -10.650  17.087  65.474  0.00  0.00    +0.381 C 
ATOM     20  O   UNL     1     -11.280  16.722  64.283  0.00  0.00    -0.244 OA
ATOM     21  O   UNL     1     -10.438  18.312  65.677  0.00  0.00    -0.244 OA
ENDBRANCH  18  19
ENDBRANCH  17  18
BRANCH  17  22
ATOM     22  C   UNL     1      -8.443  15.174  67.433  0.00  0.00    +0.189 C 
BRANCH  22  23
ATOM     23  C   UNL     1      -7.042  15.629  67.660  0.00  0.00    +0.381 C 
ATOM     24  O   UNL     1      -6.397  16.250  66.611  0.00  0.00    -0.244 OA
ATOM     25  O   UNL     1      -6.329  15.033  68.520  0.00  0.00    -0.244 OA
ENDBRANCH  22  23
ENDBRANCH  17  22
ENDBRANCH  16  17
ENDBRANCH   2  16
TORSDOF 9
ENDMDL
MODEL 9
REMARK VINA RESULT:      -5.7      2.504      3.901
REMARK  Name = 
REMARK  9 active torsions:
REMARK  status: ('A' for Active; 'I' for Inactive)
REMARK    1  A    between atoms: C_2  and  C_4
REMARK    2  A    between atoms: C_8  and  C_9
REMARK    3  A    between atoms: C_12  and  N_13
REMARK    4  A    between atoms: C_14  and  C_16
REMARK    5  A    between atoms: C_16  and  N_17
REMARK    6  A    between atoms: N_17  and  C_18
REMARK    7  A    between atoms: N_17  and  C_22
REMARK    8  A    between atoms: C_18  and  C_19
REMARK    9  A    between atoms: C_22  and  C_23
REMARK                            x       y       z     vdW  Elec       q    Type
REMARK                         _______ _______ _______ _____ _____    ______ ____
ROOT
ATOM      1  N   UNL     1      -9.508  11.766  68.223  0.00  0.00    -0.179 NA
ATOM      2  C   UNL     1     -10.055  13.040  67.864  0.00  0.00    +0.262 C 
ATOM      3  O   UNL     1     -11.266  13.210  68.201  0.00  0.00    -0.271 OA
ENDROOT
BRANCH   1   5
ATOM      4  C   UNL     1     -10.414   9.686  68.989  0.00  0.00    -0.007 A 
ATOM      5  C   UNL     1     -10.260  10.580  67.937  0.00  0.00    +0.065 A 
ATOM      6  C   UNL     1     -10.107  10.006  66.681  0.00  0.00    -0.007 A 
ATOM      7  C   UNL     1     -10.408   8.669  66.456  0.00  0.00    -0.003 A 
ATOM      8  C   UNL     1     -10.390   7.813  67.532  0.00  0.00    -0.001 A 
ATOM      9  C   UNL     1     -10.370   8.314  68.815  0.00  0.00    -0.003 A 
BRANCH   4  11
ATOM     10  C   UNL     1     -12.412  10.579  70.129  0.00  0.00    +0.005 C 
ATOM     11  C   UNL     1     -10.926  10.274  70.264  0.00  0.00    +0.024 C 
ATOM     12  C   UNL     1     -10.775   9.252  71.377  0.00  0.00    +0.005 C 
ENDBRANCH   4  11
BRANCH   6  13
ATOM     13  C   UNL     1      -9.542  10.856  65.593  0.00  0.00    +0.024 C 
ATOM     14  C   UNL     1     -10.637  11.354  64.657  0.00  0.00    +0.005 C 
ATOM     15  C   UNL     1      -8.620  10.010  64.726  0.00  0.00    +0.005 C 
ENDBRANCH   6  13
ENDBRANCH   1   5
BRANCH   2  16
ATOM     16  C   UNL     1      -9.170  14.243  67.824  0.00  0.00    +0.161 C 
BRANCH  16  17
ATOM     17  N   UNL     1      -9.902  15.279  67.132  0.00  0.00    -0.246 NA
BRANCH  17  18
ATOM     18  C   UNL     1      -9.721  15.128  65.711  0.00  0.00    +0.189 C 
BRANCH  18  19
ATOM     19  C   UNL     1     -10.933  15.502  64.938  0.00  0.00    +0.381 C 
ATOM     20  O   UNL     1     -12.051  14.667  64.985  0.00  0.00    -0.244 OA
ATOM     21  O   UNL     1     -11.072  16.645  64.428  0.00  0.00    -0.244 OA
ENDBRANCH  18  19
ENDBRANCH  17  18
BRANCH  17  22
ATOM     22  C   UNL     1      -9.477  16.570  67.629  0.00  0.00    +0.189 C 
BRANCH  22  23
ATOM     23  C   UNL     1     -10.634  17.312  68.205  0.00  0.00    +0.381 C 
ATOM     24  O   UNL     1     -11.628  16.572  68.808  0.00  0.00    -0.244 OA
ATOM     25  O   UNL     1     -10.949  18.439  67.721  0.00  0.00    -0.244 OA
ENDBRANCH  22  23
ENDBRANCH  17  22
ENDBRANCH  16  17
ENDBRANCH   2  16
TORSDOF 9
ENDMDL
