MODEL 1
REMARK VINA RESULT:      -4.7      0.000      0.000
REMARK  Name = 
REMARK  3 active torsions:
REMARK  status: ('A' for Active; 'I' for Inactive)
REMARK    1  A    between atoms: C_2  and  C_3
REMARK    2  A    between atoms: C_3  and  N_4
REMARK    3  A    between atoms: C_12  and  C_13
REMARK                            x       y       z     vdW  Elec       q    Type
REMARK                         _______ _______ _______ _____ _____    ______ ____
ROOT
ATOM      1  N   UNL     1     -10.052  13.615  66.068  0.00  0.00    -0.265 NA
ATOM      2  C   UNL     1     -10.524  14.602  64.952  0.00  0.00    +0.124 C 
ATOM      3  C   UNL     1     -12.132  14.026  65.055  0.00  0.00    +0.202 C 
ATOM      4  O   UNL     1     -12.582  14.945  63.955  0.00  0.00    -0.219 OA
ATOM      5  C   UNL     1     -11.793  12.803  63.911  0.00  0.00    +0.215 C 
ATOM      6  O   UNL     1     -13.210  12.313  63.951  0.00  0.00    -0.218 OA
ATOM      7  C   UNL     1     -11.319  11.686  65.130  0.00  0.00    +0.201 C 
ATOM      8  O   UNL     1     -10.692  10.786  64.081  0.00  0.00    -0.219 OA
ATOM      9  C   UNL     1      -9.879  12.427  65.391  0.00  0.00    +0.108 C 
ENDROOT
BRANCH   2  10
ATOM     10  C   UNL     1     -10.779  15.825  66.008  0.00  0.00    +0.201 C 
ATOM     11  O   UNL     1     -10.197  16.919  65.343  0.00  0.00    -0.219 OA
ENDBRANCH   2  10
BRANCH   1  12
ATOM     12  C   UNL     1     -10.853  13.739  67.197  0.00  0.00    +0.108 C 
BRANCH  12  14
ATOM     13  O   UNL     1     -11.066  12.238  68.974  0.00  0.00    -0.219 OA
ATOM     14  C   UNL     1     -10.124  13.017  68.325  0.00  0.00    +0.199 C 
ENDBRANCH  12  14
ENDBRANCH   1  12
TORSDOF 3
ENDMDL
MODEL 2
REMARK VINA RESULT:      -4.6      1.246      3.508
REMARK  Name = 
REMARK  3 active torsions:
REMARK  status: ('A' for Active; 'I' for Inactive)
REMARK    1  A    between atoms: C_2  and  C_3
REMARK    2  A    between atoms: C_3  and  N_4
REMARK    3  A    between atoms: C_12  and  C_13
REMARK                            x       y       z     vdW  Elec       q    Type
REMARK                         _______ _______ _______ _____ _____    ______ ____
ROOT
ATOM      1  N   UNL     1     -11.376  14.239  65.801  0.00  0.00    -0.265 NA
ATOM      2  C   UNL     1     -10.730  13.029  66.551  0.00  0.00    +0.124 C 
ATOM      3  C   UNL     1      -9.911  12.528  65.134  0.00  0.00    +0.202 C 
ATOM      4  O   UNL     1      -9.319  11.340  65.840  0.00  0.00    -0.219 OA
ATOM      5  C   UNL     1     -11.258  11.590  64.659  0.00  0.00    +0.215 C 
ATOM      6  O   UNL     1     -10.540  11.100  63.436  0.00  0.00    -0.218 OA
ATOM      7  C   UNL     1     -11.958  12.895  63.786  0.00  0.00    +0.201 C 
ATOM      8  O   UNL     1     -13.279  12.152  63.707  0.00  0.00    -0.219 OA
ATOM      9  C   UNL     1     -12.447  13.673  65.145  0.00  0.00    +0.108 C 
ENDROOT
BRANCH   2  10
ATOM     10  C   UNL     1      -9.469  13.916  67.096  0.00  0.00    +0.201 C 
ATOM     11  O   UNL     1      -9.680  13.910  68.486  0.00  0.00    -0.219 OA
ENDBRANCH   2  10
BRANCH   1  12
ATOM     12  C   UNL     1     -10.399  14.991  65.160  0.00  0.00    +0.108 C 
BRANCH  12  14
ATOM     13  O   UNL     1     -11.528  16.630  63.936  0.00  0.00    -0.219 OA
ATOM     14  C   UNL     1     -10.898  16.431  65.153  0.00  0.00    +0.199 C 
ENDBRANCH  12  14
ENDBRANCH   1  12
TORSDOF 3
ENDMDL
MODEL 3
REMARK VINA RESULT:      -4.6      1.689      4.728
REMARK  Name = 
REMARK  3 active torsions:
REMARK  status: ('A' for Active; 'I' for Inactive)
REMARK    1  A    between atoms: C_2  and  C_3
REMARK    2  A    between atoms: C_3  and  N_4
REMARK    3  A    between atoms: C_12  and  C_13
REMARK                            x       y       z     vdW  Elec       q    Type
REMARK                         _______ _______ _______ _____ _____    ______ ____
ROOT
ATOM      1  N   UNL     1     -10.668  14.094  66.464  0.00  0.00    -0.265 NA
ATOM      2  C   UNL     1     -10.417  14.168  68.005  0.00  0.00    +0.124 C 
ATOM      3  C   UNL     1     -11.402  15.562  68.146  0.00  0.00    +0.202 C 
ATOM      4  O   UNL     1     -11.132  15.661  69.621  0.00  0.00    -0.219 OA
ATOM      5  C   UNL     1     -10.062  16.570  67.820  0.00  0.00    +0.215 C 
ATOM      6  O   UNL     1     -10.896  17.806  67.987  0.00  0.00    -0.218 OA
ATOM      7  C   UNL     1     -10.353  16.541  66.126  0.00  0.00    +0.201 C 
ATOM      8  O   UNL     1      -8.972  17.115  65.864  0.00  0.00    -0.219 OA
ATOM      9  C   UNL     1      -9.780  15.014  65.951  0.00  0.00    +0.108 C 
ENDROOT
BRANCH   2  10
ATOM     10  C   UNL     1     -11.639  13.137  68.351  0.00  0.00    +0.201 C 
ATOM     11  O   UNL     1     -10.979  12.125  69.070  0.00  0.00    -0.219 OA
ENDBRANCH   2  10
BRANCH   1  12
ATOM     12  C   UNL     1     -12.031  14.115  66.192  0.00  0.00    +0.108 C 
BRANCH  12  14
ATOM     13  O   UNL     1     -13.096  12.572  64.798  0.00  0.00    -0.219 OA
ATOM     14  C   UNL     1     -12.193  13.621  64.759  0.00  0.00    +0.199 C 
ENDBRANCH  12  14
ENDBRANCH   1  12
TORSDOF 3
ENDMDL
MODEL 4
REMARK VINA RESULT:      -4.5      1.454      4.351
REMARK  Name = 
REMARK  3 active torsions:
REMARK  status: ('A' for Active; 'I' for Inactive)
REMARK    1  A    between atoms: C_2  and  C_3
REMARK    2  A    between atoms: C_3  and  N_4
REMARK    3  A    between atoms: C_12  and  C_13
REMARK                            x       y       z     vdW  Elec       q    Type
REMARK                         _______ _______ _______ _____ _____    ______ ____
ROOT
ATOM      1  N   UNL     1     -10.182  14.044  65.597  0.00  0.00    -0.265 NA
ATOM      2  C   UNL     1     -10.533  12.529  65.754  0.00  0.00    +0.124 C 
ATOM      3  C   UNL     1     -11.628  12.866  67.026  0.00  0.00    +0.202 C 
ATOM      4  O   UNL     1     -11.939  11.407  67.207  0.00  0.00    -0.219 OA
ATOM      5  C   UNL     1     -10.368  12.753  68.173  0.00  0.00    +0.215 C 
ATOM      6  O   UNL     1     -11.320  12.998  69.306  0.00  0.00    -0.218 OA
ATOM      7  C   UNL     1     -10.002  14.428  68.051  0.00  0.00    +0.201 C 
ATOM      8  O   UNL     1      -8.685  14.207  68.774  0.00  0.00    -0.219 OA
ATOM      9  C   UNL     1      -9.260  14.263  66.597  0.00  0.00    +0.108 C 
ENDROOT
BRANCH   2  10
ATOM     10  C   UNL     1     -11.690  12.578  64.599  0.00  0.00    +0.201 C 
ATOM     11  O   UNL     1     -11.346  11.483  63.787  0.00  0.00    -0.219 OA
ENDBRANCH   2  10
BRANCH   1  12
ATOM     12  C   UNL     1     -11.340  14.798  65.448  0.00  0.00    +0.108 C 
BRANCH  12  14
ATOM     13  O   UNL     1     -11.601  16.528  63.900  0.00  0.00    -0.219 OA
ATOM     14  C   UNL     1     -10.894  16.198  65.043  0.00  0.00    +0.199 C 
ENDBRANCH  12  14
ENDBRANCH   1  12
TORSDOF 3
ENDMDL
MODEL 5
REMARK VINA RESULT:      -4.5      1.885      4.030
REMARK  Name = 
REMARK  3 active torsions:
REMARK  status: ('A' for Active; 'I' for Inactive)
REMARK    1  A    between atoms: C_2  and  C_3
REMARK    2  A    between atoms: C_3  and  N_4
REMARK    3  A    between atoms: C_12  and  C_13
REMARK                            x       y       z     vdW  Elec       q    Type
REMARK                         _______ _______ _______ _____ _____    ______ ____
ROOT
ATOM      1  N   UNL     1     -11.860  13.402  67.701  0.00  0.00    -0.265 NA
ATOM      2  C   UNL     1     -12.098  14.044  66.297  0.00  0.00    +0.124 C 
ATOM      3  C   UNL     1     -10.434  14.410  66.130  0.00  0.00    +0.202 C 
ATOM      4  O   UNL     1     -10.664  15.065  64.797  0.00  0.00    -0.219 OA
ATOM      5  C   UNL     1     -10.660  15.908  66.919  0.00  0.00    +0.215 C 
ATOM      6  O   UNL     1      -9.215  16.269  66.740  0.00  0.00    -0.218 OA
ATOM      7  C   UNL     1     -10.350  15.228  68.467  0.00  0.00    +0.201 C 
ATOM      8  O   UNL     1     -10.914  16.467  69.140  0.00  0.00    -0.219 OA
ATOM      9  C   UNL     1     -11.812  14.488  68.546  0.00  0.00    +0.108 C 
ENDROOT
BRANCH   2  10
ATOM     10  C   UNL     1     -11.974  12.614  65.514  0.00  0.00    +0.201 C 
ATOM     11  O   UNL     1     -13.161  12.583  64.760  0.00  0.00    -0.219 OA
ENDBRANCH   2  10
BRANCH   1  12
ATOM     12  C   UNL     1     -10.856  12.443  67.633  0.00  0.00    +0.108 C 
BRANCH  12  14
ATOM     13  O   UNL     1     -12.293  10.936  68.694  0.00  0.00    -0.219 OA
ATOM     14  C   UNL     1     -11.050  11.529  68.838  0.00  0.00    +0.199 C 
ENDBRANCH  12  14
ENDBRANCH   1  12
TORSDOF 3
ENDMDL
MODEL 6
REMARK VINA RESULT:      -4.4      1.530      3.846
REMARK  Name = 
REMARK  3 active torsions:
REMARK  status: ('A' for Active; 'I' for Inactive)
REMARK    1  A    between atoms: C_2  and  C_3
REMARK    2  A    between atoms: C_3  and  N_4
REMARK    3  A    between atoms: C_12  and  C_13
REMARK                            x       y       z     vdW  Elec       q    Type
REMARK                         _______ _______ _______ _____ _____    ______ ____
ROOT
ATOM      1  N   UNL     1     -10.947  13.576  66.537  0.00  0.00    -0.265 NA
ATOM      2  C   UNL     1     -11.822  14.576  65.714  0.00  0.00    +0.124 C 
ATOM      3  C   UNL     1     -10.430  15.310  65.039  0.00  0.00    +0.202 C 
ATOM      4  O   UNL     1     -11.265  16.300  64.276  0.00  0.00    -0.219 OA
ATOM      5  C   UNL     1     -10.332  16.391  66.358  0.00  0.00    +0.215 C 
ATOM      6  O   UNL     1      -9.141  17.079  65.760  0.00  0.00    -0.218 OA
ATOM      7  C   UNL     1      -9.326  15.324  67.257  0.00  0.00    +0.201 C 
ATOM      8  O   UNL     1      -9.571  16.134  68.518  0.00  0.00    -0.219 OA
ATOM      9  C   UNL     1     -10.563  14.315  67.634  0.00  0.00    +0.108 C 
ENDROOT
BRANCH   2  10
ATOM     10  C   UNL     1     -12.011  13.535  64.467  0.00  0.00    +0.201 C 
ATOM     11  O   UNL     1     -13.177  12.840  64.834  0.00  0.00    -0.219 OA
ENDBRANCH   2  10
BRANCH   1  12
ATOM     12  C   UNL     1     -10.047  12.920  65.706  0.00  0.00    +0.108 C 
BRANCH  12  14
ATOM     13  O   UNL     1     -10.841  10.914  66.603  0.00  0.00    -0.219 OA
ATOM     14  C   UNL     1      -9.668  11.625  66.417  0.00  0.00    +0.199 C 
ENDBRANCH  12  14
ENDBRANCH   1  12
TORSDOF 3
ENDMDL
MODEL 7
REMARK VINA RESULT:      -4.4      1.756      2.381
REMARK  Name = 
REMARK  3 active torsions:
REMARK  status: ('A' for Active; 'I' for Inactive)
REMARK    1  A    between atoms: C_2  and  C_3
REMARK    2  A    between atoms: C_3  and  N_4
REMARK    3  A    between atoms: C_12  and  C_13
REMARK                            x       y       z     vdW  Elec       q    Type
REMARK                         _______ _______ _______ _____ _____    ______ ____
ROOT
ATOM      1  N   UNL     1     -10.984  13.484  67.280  0.00  0.00    -0.265 NA
ATOM      2  C   UNL     1      -9.939  14.106  66.298  0.00  0.00    +0.124 C 
ATOM      3  C   UNL     1     -11.067  15.278  65.766  0.00  0.00    +0.202 C 
ATOM      4  O   UNL     1     -10.079  15.855  64.792  0.00  0.00    -0.219 OA
ATOM      5  C   UNL     1     -11.647  14.210  64.565  0.00  0.00    +0.215 C 
ATOM      6  O   UNL     1     -12.609  15.240  64.052  0.00  0.00    -0.218 OA
ATOM      7  C   UNL     1     -12.836  13.550  65.616  0.00  0.00    +0.201 C 
ATOM      8  O   UNL     1     -13.059  12.392  64.660  0.00  0.00    -0.219 OA
ATOM      9  C   UNL     1     -11.743  12.671  66.466  0.00  0.00    +0.108 C 
ENDROOT
BRANCH   2  10
ATOM     10  C   UNL     1      -9.300  15.083  67.444  0.00  0.00    +0.201 C 
ATOM     11  O   UNL     1      -7.931  14.771  67.371  0.00  0.00    -0.219 OA
ENDBRANCH   2  10
BRANCH   1  12
ATOM     12  C   UNL     1     -11.529  14.467  68.097  0.00  0.00    +0.108 C 
BRANCH  12  14
ATOM     13  O   UNL     1     -11.579  14.443  70.433  0.00  0.00    -0.219 OA
ATOM     14  C   UNL     1     -12.063  13.753  69.334  0.00  0.00    +0.199 C 
ENDBRANCH  12  14
ENDBRANCH   1  12
TORSDOF 3
ENDMDL
MODEL 8
REMARK VINA RESULT:      -4.4      1.619      3.788
REMARK  Name = 
REMARK  3 active torsions:
REMARK  status: ('A' for Active; 'I' for Inactive)
REMARK    1  A    between atoms: C_2  and  C_3
REMARK    2  A    between atoms: C_3  and  N_4
REMARK    3  A    between atoms: C_12  and  C_13
REMARK                            x       y       z     vdW  Elec       q    Type
REMARK                         _______ _______ _______ _____ _____    ______ ____
ROOT
ATOM      1  N   UNL     1     -11.471  13.674  65.639  0.00  0.00    -0.265 NA
ATOM      2  C   UNL     1     -10.598  14.571  66.574  0.00  0.00    +0.124 C 
ATOM      3  C   UNL     1      -9.402  13.353  66.703  0.00  0.00    +0.202 C 
ATOM      4  O   UNL     1      -8.577  14.196  67.634  0.00  0.00    -0.219 OA
ATOM      5  C   UNL     1     -10.218  12.659  68.033  0.00  0.00    +0.215 C 
ATOM      6  O   UNL     1      -9.155  11.612  68.194  0.00  0.00    -0.218 OA
ATOM      7  C   UNL     1     -11.151  11.628  67.022  0.00  0.00    +0.201 C 
ATOM      8  O   UNL     1     -12.088  11.320  68.177  0.00  0.00    -0.219 OA
ATOM      9  C   UNL     1     -12.131  12.843  66.517  0.00  0.00    +0.108 C 
ENDROOT
BRANCH   2  10
ATOM     10  C   UNL     1      -9.856  15.320  65.324  0.00  0.00    +0.201 C 
ATOM     11  O   UNL     1     -10.391  16.618  65.395  0.00  0.00    -0.219 OA
ENDBRANCH   2  10
BRANCH   1  12
ATOM     12  C   UNL     1     -10.717  13.208  64.569  0.00  0.00    +0.108 C 
BRANCH  12  14
ATOM     13  O   UNL     1     -12.577  13.731  63.255  0.00  0.00    -0.219 OA
ATOM     14  C   UNL     1     -11.709  12.689  63.534  0.00  0.00    +0.199 C 
ENDBRANCH  12  14
ENDBRANCH   1  12
TORSDOF 3
ENDMDL
MODEL 9
REMARK VINA RESULT:      -4.4      1.759      2.688
REMARK  Name = 
REMARK  3 active torsions:
REMARK  status: ('A' for Active; 'I' for Inactive)
REMARK    1  A    between atoms: C_2  and  C_3
REMARK    2  A    between atoms: C_3  and  N_4
REMARK    3  A    between atoms: C_12  and  C_13
REMARK                            x       y       z     vdW  Elec       q    Type
REMARK                         _______ _______ _______ _____ _____    ______ ____
ROOT
ATOM      1  N   UNL     1     -10.376  14.894  65.917  0.00  0.00    -0.265 NA
ATOM      2  C   UNL     1     -11.223  14.188  64.810  0.00  0.00    +0.124 C 
ATOM      3  C   UNL     1     -12.175  13.384  65.983  0.00  0.00    +0.202 C 
ATOM      4  O   UNL     1     -12.966  12.672  64.922  0.00  0.00    -0.219 OA
ATOM      5  C   UNL     1     -11.059  12.091  66.036  0.00  0.00    +0.215 C 
ATOM      6  O   UNL     1     -11.903  11.347  67.028  0.00  0.00    -0.218 OA
ATOM      7  C   UNL     1     -10.145  12.829  67.291  0.00  0.00    +0.201 C 
ATOM      8  O   UNL     1      -9.001  11.861  67.046  0.00  0.00    -0.219 OA
ATOM      9  C   UNL     1      -9.463  13.930  66.284  0.00  0.00    +0.108 C 
ENDROOT
BRANCH   2  10
ATOM     10  C   UNL     1     -12.263  15.443  64.669  0.00  0.00    +0.201 C 
ATOM     11  O   UNL     1     -11.569  16.309  63.806  0.00  0.00    -0.219 OA
ENDBRANCH   2  10
BRANCH   1  12
ATOM     12  C   UNL     1     -11.206  15.542  66.824  0.00  0.00    +0.108 C 
BRANCH  12  14
ATOM     13  O   UNL     1     -11.125  17.145  68.522  0.00  0.00    -0.219 OA
ATOM     14  C   UNL     1     -10.351  16.602  67.511  0.00  0.00    +0.199 C 
ENDBRANCH  12  14
ENDBRANCH   1  12
TORSDOF 3
ENDMDL
