MODEL 1
REMARK VINA RESULT:      -7.3      0.000      0.000
REMARK  Name = 
REMARK  0 active torsions:
REMARK  status: ('A' for Active; 'I' for Inactive)
REMARK                            x       y       z     vdW  Elec       q    Type
REMARK                         _______ _______ _______ _____ _____    ______ ____
ROOT
ATOM      1  C   UNL     1     -12.155  14.316  69.432  0.00  0.00    -0.005 C 
ATOM      2  C   UNL     1     -11.608  14.986  68.480  0.00  0.00    -0.026 C 
ATOM      3  C   UNL     1     -11.623  14.530  67.112  0.00  0.00    -0.020 C 
ATOM      4  C   UNL     1     -10.401  14.711  66.302  0.00  0.00    +0.037 C 
ATOM      5  C   UNL     1      -9.895  13.366  65.938  0.00  0.00    -0.019 C 
ATOM      6  C   UNL     1     -10.777  12.687  65.195  0.00  0.00    +0.038 C 
ATOM      7  C   UNL     1     -12.207  12.790  65.513  0.00  0.00    +0.195 C 
ATOM      8  O   UNL     1     -13.113  12.517  64.668  0.00  0.00    -0.287 OA
ATOM      9  C   UNL     1     -10.665  15.608  65.180  0.00  0.00    +0.009 C 
ATOM     10  C   UNL     1      -9.294  15.361  67.314  0.00  0.00    +0.008 C 
ATOM     11  C   UNL     1     -10.188  16.802  67.501  0.00  0.00    +0.005 C 
ATOM     12  C   UNL     1      -8.961  17.450  68.492  0.00  0.00    +0.007 C 
ATOM     13  C   UNL     1      -8.169  18.109  67.218  0.00  0.00    +0.052 C 
ATOM     14  C   UNL     1      -7.450  16.965  66.676  0.00  0.00    +0.007 C 
ATOM     15  C   UNL     1      -9.150  18.825  66.396  0.00  0.00    +0.007 C 
ATOM     16  C   UNL     1      -7.428  19.068  68.054  0.00  0.00    +0.150 C 
ATOM     17  O   UNL     1      -6.273  19.121  68.408  0.00  0.00    -0.296 OA
ATOM     18  C   UNL     1      -8.530  19.802  68.766  0.00  0.00    +0.064 C 
ATOM     19  C   UNL     1      -9.746  18.877  68.699  0.00  0.00    +0.008 C 
ATOM     20  C   UNL     1      -8.408  15.990  66.080  0.00  0.00    +0.001 C 
ATOM     21  C   UNL     1     -12.484  13.591  66.715  0.00  0.00    +0.038 C 
ATOM     22  C   UNL     1     -10.972  16.261  68.799  0.00  0.00    +0.026 C 
ENDROOT
TORSDOF 0
ENDMDL
MODEL 2
REMARK VINA RESULT:      -6.9      1.734      2.053
REMARK  Name = 
REMARK  0 active torsions:
REMARK  status: ('A' for Active; 'I' for Inactive)
REMARK                            x       y       z     vdW  Elec       q    Type
REMARK                         _______ _______ _______ _____ _____    ______ ____
ROOT
ATOM      1  C   UNL     1     -11.303  15.207  71.264  0.00  0.00    -0.005 C 
ATOM      2  C   UNL     1     -11.131  15.357  69.999  0.00  0.00    -0.026 C 
ATOM      3  C   UNL     1     -11.198  14.250  69.077  0.00  0.00    -0.020 C 
ATOM      4  C   UNL     1     -10.220  14.202  67.971  0.00  0.00    +0.037 C 
ATOM      5  C   UNL     1      -9.380  12.996  68.162  0.00  0.00    -0.019 C 
ATOM      6  C   UNL     1     -10.104  11.872  68.111  0.00  0.00    +0.038 C 
ATOM      7  C   UNL     1     -11.436  11.853  68.731  0.00  0.00    +0.195 C 
ATOM      8  O   UNL     1     -12.323  11.005  68.410  0.00  0.00    -0.287 OA
ATOM      9  C   UNL     1     -10.905  14.295  66.685  0.00  0.00    +0.009 C 
ATOM     10  C   UNL     1      -9.236  15.489  68.197  0.00  0.00    +0.008 C 
ATOM     11  C   UNL     1     -10.496  16.605  67.923  0.00  0.00    +0.005 C 
ATOM     12  C   UNL     1      -9.402  17.902  68.097  0.00  0.00    +0.007 C 
ATOM     13  C   UNL     1      -9.043  17.918  66.499  0.00  0.00    +0.052 C 
ATOM     14  C   UNL     1      -8.089  16.824  66.386  0.00  0.00    +0.007 C 
ATOM     15  C   UNL     1     -10.303  17.884  65.750  0.00  0.00    +0.007 C 
ATOM     16  C   UNL     1      -8.523  19.297  66.535  0.00  0.00    +0.150 C 
ATOM     17  O   UNL     1      -7.404  19.749  66.479  0.00  0.00    -0.296 OA
ATOM     18  C   UNL     1      -9.686  20.070  67.092  0.00  0.00    +0.064 C 
ATOM     19  C   UNL     1     -10.553  19.039  67.816  0.00  0.00    +0.008 C 
ATOM     20  C   UNL     1      -8.773  15.520  66.620  0.00  0.00    +0.001 C 
ATOM     21  C   UNL     1     -11.774  13.100  69.433  0.00  0.00    +0.038 C 
ATOM     22  C   UNL     1     -10.882  16.700  69.482  0.00  0.00    +0.026 C 
ENDROOT
TORSDOF 0
ENDMDL
MODEL 3
REMARK VINA RESULT:      -6.7      2.982      4.911
REMARK  Name = 
REMARK  0 active torsions:
REMARK  status: ('A' for Active; 'I' for Inactive)
REMARK                            x       y       z     vdW  Elec       q    Type
REMARK                         _______ _______ _______ _____ _____    ______ ____
ROOT
ATOM      1  C   UNL     1     -11.375  12.089  63.503  0.00  0.00    -0.005 C 
ATOM      2  C   UNL     1     -10.820  12.237  64.654  0.00  0.00    -0.026 C 
ATOM      3  C   UNL     1     -10.077  11.178  65.291  0.00  0.00    -0.020 C 
ATOM      4  C   UNL     1     -10.235  10.994  66.748  0.00  0.00    +0.037 C 
ATOM      5  C   UNL     1     -10.843   9.661  66.972  0.00  0.00    -0.019 C 
ATOM      6  C   UNL     1     -10.060   8.674  66.522  0.00  0.00    +0.038 C 
ATOM      7  C   UNL     1      -9.329   8.863  65.261  0.00  0.00    +0.195 C 
ATOM      8  O   UNL     1      -8.301   8.181  64.962  0.00  0.00    -0.287 OA
ATOM      9  C   UNL     1      -8.965  11.229  67.429  0.00  0.00    +0.009 C 
ATOM     10  C   UNL     1     -11.353  12.094  67.213  0.00  0.00    +0.008 C 
ATOM     11  C   UNL     1     -10.344  13.410  66.814  0.00  0.00    +0.005 C 
ATOM     12  C   UNL     1     -11.523  14.503  67.384  0.00  0.00    +0.007 C 
ATOM     13  C   UNL     1     -10.911  14.496  68.903  0.00  0.00    +0.052 C 
ATOM     14  C   UNL     1     -11.455  13.261  69.450  0.00  0.00    +0.007 C 
ATOM     15  C   UNL     1      -9.461  14.689  68.808  0.00  0.00    +0.007 C 
ATOM     16  C   UNL     1     -11.558  15.768  69.270  0.00  0.00    +0.150 C 
ATOM     17  O   UNL     1     -12.502  16.029  69.979  0.00  0.00    -0.296 OA
ATOM     18  C   UNL     1     -11.048  16.710  68.216  0.00  0.00    +0.064 C 
ATOM     19  C   UNL     1     -10.602  15.822  67.055  0.00  0.00    +0.008 C 
ATOM     20  C   UNL     1     -10.839  12.084  68.774  0.00  0.00    +0.001 C 
ATOM     21  C   UNL     1      -9.640  10.132  64.587  0.00  0.00    +0.038 C 
ATOM     22  C   UNL     1     -10.930  13.532  65.320  0.00  0.00    +0.026 C 
ENDROOT
TORSDOF 0
ENDMDL
MODEL 4
REMARK VINA RESULT:      -6.7      1.891      3.146
REMARK  Name = 
REMARK  0 active torsions:
REMARK  status: ('A' for Active; 'I' for Inactive)
REMARK                            x       y       z     vdW  Elec       q    Type
REMARK                         _______ _______ _______ _____ _____    ______ ____
ROOT
ATOM      1  C   UNL     1     -11.960  13.828  64.330  0.00  0.00    -0.005 C 
ATOM      2  C   UNL     1     -11.194  14.080  65.332  0.00  0.00    -0.026 C 
ATOM      3  C   UNL     1     -10.821  13.067  66.289  0.00  0.00    -0.020 C 
ATOM      4  C   UNL     1     -10.774  13.441  67.718  0.00  0.00    +0.037 C 
ATOM      5  C   UNL     1     -11.803  12.643  68.427  0.00  0.00    -0.019 C 
ATOM      6  C   UNL     1     -11.560  11.330  68.343  0.00  0.00    +0.038 C 
ATOM      7  C   UNL     1     -11.053  10.777  67.080  0.00  0.00    +0.195 C 
ATOM      8  O   UNL     1     -10.445   9.666  67.019  0.00  0.00    -0.287 OA
ATOM      9  C   UNL     1      -9.413  13.310  68.230  0.00  0.00    +0.009 C 
ATOM     10  C   UNL     1     -11.271  14.997  67.783  0.00  0.00    +0.008 C 
ATOM     11  C   UNL     1      -9.918  15.553  66.905  0.00  0.00    +0.005 C 
ATOM     12  C   UNL     1     -10.455  17.163  67.073  0.00  0.00    +0.007 C 
ATOM     13  C   UNL     1      -9.632  17.376  68.473  0.00  0.00    +0.052 C 
ATOM     14  C   UNL     1     -10.506  16.736  69.446  0.00  0.00    +0.007 C 
ATOM     15  C   UNL     1      -8.264  16.888  68.273  0.00  0.00    +0.007 C 
ATOM     16  C   UNL     1      -9.655  18.845  68.372  0.00  0.00    +0.150 C 
ATOM     17  O   UNL     1     -10.278  19.695  68.965  0.00  0.00    -0.296 OA
ATOM     18  C   UNL     1      -9.016  19.091  67.033  0.00  0.00    +0.064 C 
ATOM     19  C   UNL     1      -9.168  17.780  66.261  0.00  0.00    +0.008 C 
ATOM     20  C   UNL     1     -10.530  15.262  69.227  0.00  0.00    +0.001 C 
ATOM     21  C   UNL     1     -10.961  11.772  66.000  0.00  0.00    +0.038 C 
ATOM     22  C   UNL     1     -10.669  15.434  65.486  0.00  0.00    +0.026 C 
ENDROOT
TORSDOF 0
ENDMDL
MODEL 5
REMARK VINA RESULT:      -6.6      1.914      6.120
REMARK  Name = 
REMARK  0 active torsions:
REMARK  status: ('A' for Active; 'I' for Inactive)
REMARK                            x       y       z     vdW  Elec       q    Type
REMARK                         _______ _______ _______ _____ _____    ______ ____
ROOT
ATOM      1  C   UNL     1      -6.126  15.401  67.742  0.00  0.00    -0.005 C 
ATOM      2  C   UNL     1      -7.319  15.267  67.280  0.00  0.00    -0.026 C 
ATOM      3  C   UNL     1      -8.084  16.388  66.793  0.00  0.00    -0.020 C 
ATOM      4  C   UNL     1      -9.525  16.443  67.117  0.00  0.00    +0.037 C 
ATOM      5  C   UNL     1      -9.753  17.638  67.963  0.00  0.00    -0.019 C 
ATOM      6  C   UNL     1      -9.439  18.770  67.323  0.00  0.00    +0.038 C 
ATOM      7  C   UNL     1      -8.253  18.793  66.455  0.00  0.00    +0.195 C 
ATOM      8  O   UNL     1      -8.099  19.654  65.537  0.00  0.00    -0.287 OA
ATOM      9  C   UNL     1     -10.321  16.376  65.894  0.00  0.00    +0.009 C 
ATOM     10  C   UNL     1      -9.813  15.143  68.067  0.00  0.00    +0.008 C 
ATOM     11  C   UNL     1      -9.453  14.043  66.813  0.00  0.00    +0.005 C 
ATOM     12  C   UNL     1      -9.839  12.734  67.835  0.00  0.00    +0.007 C 
ATOM     13  C   UNL     1     -11.412  12.737  67.379  0.00  0.00    +0.052 C 
ATOM     14  C   UNL     1     -11.963  13.824  68.176  0.00  0.00    +0.007 C 
ATOM     15  C   UNL     1     -11.459  12.795  65.914  0.00  0.00    +0.007 C 
ATOM     16  C   UNL     1     -11.643  11.353  67.829  0.00  0.00    +0.150 C 
ATOM     17  O   UNL     1     -12.236  10.891  68.775  0.00  0.00    -0.296 OA
ATOM     18  C   UNL     1     -10.600  10.584  67.067  0.00  0.00    +0.064 C 
ATOM     19  C   UNL     1      -9.539  11.612  66.674  0.00  0.00    +0.008 C 
ATOM     20  C   UNL     1     -11.417  15.131  67.711  0.00  0.00    +0.001 C 
ATOM     21  C   UNL     1      -7.485  17.539  66.479  0.00  0.00    +0.038 C 
ATOM     22  C   UNL     1      -7.902  13.929  67.227  0.00  0.00    +0.026 C 
ENDROOT
TORSDOF 0
ENDMDL
MODEL 6
REMARK VINA RESULT:      -6.5      1.711      3.317
REMARK  Name = 
REMARK  0 active torsions:
REMARK  status: ('A' for Active; 'I' for Inactive)
REMARK                            x       y       z     vdW  Elec       q    Type
REMARK                         _______ _______ _______ _____ _____    ______ ____
ROOT
ATOM      1  C   UNL     1     -11.178  14.802  65.153  0.00  0.00    -0.005 C 
ATOM      2  C   UNL     1     -10.467  15.254  66.125  0.00  0.00    -0.026 C 
ATOM      3  C   UNL     1     -10.664  14.824  67.487  0.00  0.00    -0.020 C 
ATOM      4  C   UNL     1     -10.577  15.837  68.559  0.00  0.00    +0.037 C 
ATOM      5  C   UNL     1     -11.908  15.927  69.204  0.00  0.00    -0.019 C 
ATOM      6  C   UNL     1     -12.268  14.769  69.770  0.00  0.00    +0.038 C 
ATOM      7  C   UNL     1     -11.954  13.511  69.080  0.00  0.00    +0.195 C 
ATOM      8  O   UNL     1     -11.899  12.398  69.686  0.00  0.00    -0.287 OA
ATOM      9  C   UNL     1      -9.463  15.533  69.453  0.00  0.00    +0.009 C 
ATOM     10  C   UNL     1     -10.336  17.264  67.798  0.00  0.00    +0.008 C 
ATOM     11  C   UNL     1      -8.808  16.786  67.208  0.00  0.00    +0.005 C 
ATOM     12  C   UNL     1      -8.588  18.321  66.499  0.00  0.00    +0.007 C 
ATOM     13  C   UNL     1      -7.876  18.928  67.844  0.00  0.00    +0.052 C 
ATOM     14  C   UNL     1      -9.022  19.226  68.692  0.00  0.00    +0.007 C 
ATOM     15  C   UNL     1      -6.855  17.973  68.287  0.00  0.00    +0.007 C 
ATOM     16  C   UNL     1      -7.236  20.039  67.118  0.00  0.00    +0.150 C 
ATOM     17  O   UNL     1      -7.465  21.225  67.074  0.00  0.00    -0.296 OA
ATOM     18  C   UNL     1      -6.445  19.324  66.059  0.00  0.00    +0.064 C 
ATOM     19  C   UNL     1      -7.097  17.948  65.920  0.00  0.00    +0.008 C 
ATOM     20  C   UNL     1      -9.679  17.963  69.133  0.00  0.00    +0.001 C 
ATOM     21  C   UNL     1     -11.340  13.705  67.758  0.00  0.00    +0.038 C 
ATOM     22  C   UNL     1      -9.411  16.218  65.828  0.00  0.00    +0.026 C 
ENDROOT
TORSDOF 0
ENDMDL
MODEL 7
REMARK VINA RESULT:      -6.5      1.486      2.660
REMARK  Name = 
REMARK  0 active torsions:
REMARK  status: ('A' for Active; 'I' for Inactive)
REMARK                            x       y       z     vdW  Elec       q    Type
REMARK                         _______ _______ _______ _____ _____    ______ ____
ROOT
ATOM      1  C   UNL     1      -6.970  13.611  67.480  0.00  0.00    -0.005 C 
ATOM      2  C   UNL     1      -7.749  14.623  67.630  0.00  0.00    -0.026 C 
ATOM      3  C   UNL     1      -9.167  14.545  67.382  0.00  0.00    -0.020 C 
ATOM      4  C   UNL     1      -9.822  15.684  66.707  0.00  0.00    +0.037 C 
ATOM      5  C   UNL     1     -10.345  15.200  65.407  0.00  0.00    -0.019 C 
ATOM      6  C   UNL     1     -11.265  14.241  65.567  0.00  0.00    +0.038 C 
ATOM      7  C   UNL     1     -11.068  13.232  66.617  0.00  0.00    +0.195 C 
ATOM      8  O   UNL     1     -12.026  12.548  67.091  0.00  0.00    -0.287 OA
ATOM      9  C   UNL     1     -10.807  16.300  67.592  0.00  0.00    +0.009 C 
ATOM     10  C   UNL     1      -8.621  16.737  66.355  0.00  0.00    +0.008 C 
ATOM     11  C   UNL     1      -8.292  17.039  68.002  0.00  0.00    +0.005 C 
ATOM     12  C   UNL     1      -7.102  18.181  67.567  0.00  0.00    +0.007 C 
ATOM     13  C   UNL     1      -8.177  19.417  67.557  0.00  0.00    +0.052 C 
ATOM     14  C   UNL     1      -8.825  19.253  66.264  0.00  0.00    +0.007 C 
ATOM     15  C   UNL     1      -8.962  19.345  68.794  0.00  0.00    +0.007 C 
ATOM     16  C   UNL     1      -7.134  20.449  67.691  0.00  0.00    +0.150 C 
ATOM     17  O   UNL     1      -6.672  21.248  66.911  0.00  0.00    -0.296 OA
ATOM     18  C   UNL     1      -6.421  20.032  68.947  0.00  0.00    +0.064 C 
ATOM     19  C   UNL     1      -6.745  18.549  69.128  0.00  0.00    +0.008 C 
ATOM     20  C   UNL     1      -9.653  18.014  66.256  0.00  0.00    +0.001 C 
ATOM     21  C   UNL     1      -9.785  13.364  67.323  0.00  0.00    +0.038 C 
ATOM     22  C   UNL     1      -7.175  15.885  68.090  0.00  0.00    +0.026 C 
ENDROOT
TORSDOF 0
ENDMDL
MODEL 8
REMARK VINA RESULT:      -6.4      3.432      6.084
REMARK  Name = 
REMARK  0 active torsions:
REMARK  status: ('A' for Active; 'I' for Inactive)
REMARK                            x       y       z     vdW  Elec       q    Type
REMARK                         _______ _______ _______ _____ _____    ______ ____
ROOT
ATOM      1  C   UNL     1     -13.188  10.956  71.131  0.00  0.00    -0.005 C 
ATOM      2  C   UNL     1     -12.430  11.865  70.627  0.00  0.00    -0.026 C 
ATOM      3  C   UNL     1     -12.290  13.169  71.227  0.00  0.00    -0.020 C 
ATOM      4  C   UNL     1     -12.234  14.346  70.336  0.00  0.00    +0.037 C 
ATOM      5  C   UNL     1     -13.420  15.187  70.623  0.00  0.00    -0.019 C 
ATOM      6  C   UNL     1     -13.421  15.634  71.884  0.00  0.00    +0.038 C 
ATOM      7  C   UNL     1     -12.972  14.738  72.958  0.00  0.00    +0.195 C 
ATOM      8  O   UNL     1     -12.576  15.170  74.084  0.00  0.00    -0.287 OA
ATOM      9  C   UNL     1     -10.942  15.015  70.462  0.00  0.00    +0.009 C 
ATOM     10  C   UNL     1     -12.439  13.762  68.822  0.00  0.00    +0.008 C 
ATOM     11  C   UNL     1     -10.972  12.893  68.870  0.00  0.00    +0.005 C 
ATOM     12  C   UNL     1     -11.210  12.379  67.261  0.00  0.00    +0.007 C 
ATOM     13  C   UNL     1     -10.420  13.675  66.645  0.00  0.00    +0.052 C 
ATOM     14  C   UNL     1     -11.436  14.715  66.709  0.00  0.00    +0.007 C 
ATOM     15  C   UNL     1      -9.158  13.826  67.376  0.00  0.00    +0.007 C 
ATOM     16  C   UNL     1     -10.167  13.023  65.348  0.00  0.00    +0.150 C 
ATOM     17  O   UNL     1     -10.647  13.177  64.250  0.00  0.00    -0.296 OA
ATOM     18  C   UNL     1      -9.440  11.770  65.749  0.00  0.00    +0.064 C 
ATOM     19  C   UNL     1      -9.799  11.540  67.217  0.00  0.00    +0.008 C 
ATOM     20  C   UNL     1     -11.722  15.069  68.129  0.00  0.00    +0.001 C 
ATOM     21  C   UNL     1     -12.654  13.379  72.494  0.00  0.00    +0.038 C 
ATOM     22  C   UNL     1     -11.672  11.552  69.419  0.00  0.00    +0.026 C 
ENDROOT
TORSDOF 0
ENDMDL
MODEL 9
REMARK VINA RESULT:      -6.3      1.867      6.006
REMARK  Name = 
REMARK  0 active torsions:
REMARK  status: ('A' for Active; 'I' for Inactive)
REMARK                            x       y       z     vdW  Elec       q    Type
REMARK                         _______ _______ _______ _____ _____    ______ ____
ROOT
ATOM      1  C   UNL     1     -10.559  20.056  65.954  0.00  0.00    -0.005 C 
ATOM      2  C   UNL     1      -9.892  19.216  66.663  0.00  0.00    -0.026 C 
ATOM      3  C   UNL     1      -8.502  19.420  66.990  0.00  0.00    -0.020 C 
ATOM      4  C   UNL     1      -7.599  18.251  66.958  0.00  0.00    +0.037 C 
ATOM      5  C   UNL     1      -6.591  18.487  65.897  0.00  0.00    -0.019 C 
ATOM      6  C   UNL     1      -5.845  19.569  66.151  0.00  0.00    +0.038 C 
ATOM      7  C   UNL     1      -6.486  20.758  66.729  0.00  0.00    +0.195 C 
ATOM      8  O   UNL     1      -5.831  21.652  67.347  0.00  0.00    -0.287 OA
ATOM      9  C   UNL     1      -7.062  17.990  68.290  0.00  0.00    +0.009 C 
ATOM     10  C   UNL     1      -8.518  16.998  66.448  0.00  0.00    +0.008 C 
ATOM     11  C   UNL     1      -9.499  17.042  67.843  0.00  0.00    +0.005 C 
ATOM     12  C   UNL     1     -10.372  15.686  67.288  0.00  0.00    +0.007 C 
ATOM     13  C   UNL     1      -9.363  14.632  68.033  0.00  0.00    +0.052 C 
ATOM     14  C   UNL     1      -8.238  14.578  67.112  0.00  0.00    +0.007 C 
ATOM     15  C   UNL     1      -9.170  15.089  69.414  0.00  0.00    +0.007 C 
ATOM     16  C   UNL     1     -10.342  13.532  68.007  0.00  0.00    +0.150 C 
ATOM     17  O   UNL     1     -10.417  12.521  67.348  0.00  0.00    -0.296 OA
ATOM     18  C   UNL     1     -11.526  14.130  68.716  0.00  0.00    +0.064 C 
ATOM     19  C   UNL     1     -11.341  15.644  68.613  0.00  0.00    +0.008 C 
ATOM     20  C   UNL     1      -7.511  15.879  67.109  0.00  0.00    +0.001 C 
ATOM     21  C   UNL     1      -7.944  20.626  66.873  0.00  0.00    +0.038 C 
ATOM     22  C   UNL     1     -10.577  18.031  67.171  0.00  0.00    +0.026 C 
ENDROOT
TORSDOF 0
ENDMDL
