MODEL 1
REMARK VINA RESULT:      -6.5      0.000      0.000
REMARK  Name = 
REMARK  2 active torsions:
REMARK  status: ('A' for Active; 'I' for Inactive)
REMARK    1  A    between atoms: C_3  and  C_4
REMARK    2  A    between atoms: C_11  and  S_12
REMARK                            x       y       z     vdW  Elec       q    Type
REMARK                         _______ _______ _______ _____ _____    ______ ____
ROOT
ATOM      1  C   UNL     1     -12.166  12.346  63.395  0.00  0.00    +0.117 C 
ATOM      2  N   UNL     1     -11.848  12.818  63.876  0.00  0.00    -0.134 NA
ATOM      3  S   UNL     1     -12.076  14.268  64.704  0.00  0.00    +0.066 S 
ATOM      4  O   UNL     1     -13.022  14.007  65.860  0.00  0.00    -0.153 OA
ATOM      5  O   UNL     1     -12.595  15.387  63.860  0.00  0.00    -0.153 OA
ATOM      6  C   UNL     1     -10.576  14.772  65.436  0.00  0.00    +0.138 A 
ATOM      7  C   UNL     1      -9.796  13.745  65.959  0.00  0.00    +0.086 A 
ATOM      8  C   UNL     1      -8.798  14.021  66.833  0.00  0.00    +0.030 A 
ATOM      9  C   UNL     1      -8.420  15.347  67.044  0.00  0.00    +0.078 A 
ATOM     10  C   UNL     1      -9.139  16.349  66.415  0.00  0.00    +0.137 A 
ATOM     11 CL   UNL     1      -6.844  15.676  67.716  0.00  0.00    -0.081 Cl
ATOM     12  N   UNL     1     -10.224  12.455  65.505  0.00  0.00    -0.219 NA
ATOM     13  C   UNL     1     -10.370  16.082  65.834  0.00  0.00    +0.042 A 
ATOM     14  C   UNL     1     -10.277  12.471  63.892  0.00  0.00    +0.187 C 
ENDROOT
BRANCH  10  15
ATOM     15  S   UNL     1      -8.603  18.014  66.471  0.00  0.00    +0.094 S 
ATOM     16  O   UNL     1      -9.756  18.812  65.907  0.00  0.00    -0.150 OA
ATOM     17  O   UNL     1      -8.339  18.440  67.887  0.00  0.00    -0.150 OA
ATOM     18  N   UNL     1      -7.190  18.160  65.514  0.00  0.00    +0.039 NA
ENDBRANCH  10  15
BRANCH  14  19
ATOM     19  C   UNL     1     -10.622  10.826  63.834  0.00  0.00    +0.135 C 
ATOM     20 CL   UNL     1     -10.040  10.151  65.326  0.00  0.00    -0.110 Cl
ENDBRANCH  14  19
TORSDOF 2
ENDMDL
MODEL 2
REMARK VINA RESULT:      -6.3      4.702      5.926
REMARK  Name = 
REMARK  2 active torsions:
REMARK  status: ('A' for Active; 'I' for Inactive)
REMARK    1  A    between atoms: C_3  and  C_4
REMARK    2  A    between atoms: C_11  and  S_12
REMARK                            x       y       z     vdW  Elec       q    Type
REMARK                         _______ _______ _______ _____ _____    ______ ____
ROOT
ATOM      1  C   UNL     1     -10.504  13.589  65.402  0.00  0.00    +0.117 C 
ATOM      2  N   UNL     1     -10.612  13.620  66.139  0.00  0.00    -0.134 NA
ATOM      3  S   UNL     1     -10.918  12.683  67.505  0.00  0.00    +0.066 S 
ATOM      4  O   UNL     1      -9.627  11.994  67.903  0.00  0.00    -0.153 OA
ATOM      5  O   UNL     1     -12.005  11.672  67.331  0.00  0.00    -0.153 OA
ATOM      6  C   UNL     1     -11.327  13.715  68.849  0.00  0.00    +0.138 A 
ATOM      7  C   UNL     1     -10.611  14.906  68.924  0.00  0.00    +0.086 A 
ATOM      8  C   UNL     1     -10.588  15.620  70.075  0.00  0.00    +0.030 A 
ATOM      9  C   UNL     1     -11.450  15.271  71.113  0.00  0.00    +0.078 A 
ATOM     10  C   UNL     1     -12.244  14.147  70.967  0.00  0.00    +0.137 A 
ATOM     11 CL   UNL     1     -11.815  16.458  72.340  0.00  0.00    -0.081 Cl
ATOM     12  N   UNL     1      -9.913  15.194  67.706  0.00  0.00    -0.219 NA
ATOM     13  C   UNL     1     -11.990  13.226  69.961  0.00  0.00    +0.042 A 
ATOM     14  C   UNL     1     -10.970  15.150  66.486  0.00  0.00    +0.187 C 
ENDROOT
BRANCH  10  15
ATOM     15  S   UNL     1     -13.488  13.763  72.136  0.00  0.00    +0.094 S 
ATOM     16  O   UNL     1     -13.581  12.254  72.124  0.00  0.00    -0.150 OA
ATOM     17  O   UNL     1     -13.093  14.234  73.507  0.00  0.00    -0.150 OA
ATOM     18  N   UNL     1     -14.950  14.501  71.633  0.00  0.00    +0.039 NA
ENDBRANCH  10  15
BRANCH  14  19
ATOM     19  C   UNL     1      -9.812  15.688  65.393  0.00  0.00    +0.135 C 
ATOM     20 CL   UNL     1      -8.783  16.783  66.267  0.00  0.00    -0.110 Cl
ENDBRANCH  14  19
TORSDOF 2
ENDMDL
MODEL 3
REMARK VINA RESULT:      -6.1      4.346      5.997
REMARK  Name = 
REMARK  2 active torsions:
REMARK  status: ('A' for Active; 'I' for Inactive)
REMARK    1  A    between atoms: C_3  and  C_4
REMARK    2  A    between atoms: C_11  and  S_12
REMARK                            x       y       z     vdW  Elec       q    Type
REMARK                         _______ _______ _______ _____ _____    ______ ____
ROOT
ATOM      1  C   UNL     1     -12.158  15.989  71.881  0.00  0.00    +0.117 C 
ATOM      2  N   UNL     1     -11.952  15.725  71.216  0.00  0.00    -0.134 NA
ATOM      3  S   UNL     1     -10.921  15.997  69.910  0.00  0.00    +0.066 S 
ATOM      4  O   UNL     1      -9.525  15.567  70.315  0.00  0.00    -0.153 OA
ATOM      5  O   UNL     1     -10.900  17.409  69.422  0.00  0.00    -0.153 OA
ATOM      6  C   UNL     1     -11.362  14.956  68.584  0.00  0.00    +0.138 A 
ATOM      7  C   UNL     1     -11.765  13.673  68.943  0.00  0.00    +0.086 A 
ATOM      8  C   UNL     1     -11.805  12.684  68.018  0.00  0.00    +0.030 A 
ATOM      9  C   UNL     1     -11.646  13.001  66.670  0.00  0.00    +0.078 A 
ATOM     10  C   UNL     1     -11.364  14.311  66.326  0.00  0.00    +0.137 A 
ATOM     11 CL   UNL     1     -12.218  11.873  65.466  0.00  0.00    -0.081 Cl
ATOM     12  N   UNL     1     -12.048  13.568  70.344  0.00  0.00    -0.219 NA
ATOM     13  C   UNL     1     -10.958  15.226  67.287  0.00  0.00    +0.042 A 
ATOM     14  C   UNL     1     -13.111  14.717  70.740  0.00  0.00    +0.187 C 
ENDROOT
BRANCH  10  15
ATOM     15  S   UNL     1     -11.350  14.821  64.652  0.00  0.00    +0.094 S 
ATOM     16  O   UNL     1     -10.328  13.929  63.982  0.00  0.00    -0.150 OA
ATOM     17  O   UNL     1     -12.696  14.609  64.020  0.00  0.00    -0.150 OA
ATOM     18  N   UNL     1     -10.898  16.473  64.593  0.00  0.00    +0.039 NA
ENDBRANCH  10  15
BRANCH  14  19
ATOM     19  C   UNL     1     -13.256  14.118  72.304  0.00  0.00    +0.135 C 
ATOM     20 CL   UNL     1     -13.400  12.391  72.157  0.00  0.00    -0.110 Cl
ENDBRANCH  14  19
TORSDOF 2
ENDMDL
MODEL 4
REMARK VINA RESULT:      -5.9      2.742      2.960
REMARK  Name = 
REMARK  2 active torsions:
REMARK  status: ('A' for Active; 'I' for Inactive)
REMARK    1  A    between atoms: C_3  and  C_4
REMARK    2  A    between atoms: C_11  and  S_12
REMARK                            x       y       z     vdW  Elec       q    Type
REMARK                         _______ _______ _______ _____ _____    ______ ____
ROOT
ATOM      1  C   UNL     1     -10.757  10.325  65.595  0.00  0.00    +0.117 C 
ATOM      2  N   UNL     1     -10.890  11.024  65.816  0.00  0.00    -0.134 NA
ATOM      3  S   UNL     1     -11.287  12.567  65.269  0.00  0.00    +0.066 S 
ATOM      4  O   UNL     1     -12.766  12.582  64.934  0.00  0.00    -0.153 OA
ATOM      5  O   UNL     1     -10.492  13.029  64.091  0.00  0.00    -0.153 OA
ATOM      6  C   UNL     1     -11.091  13.720  66.561  0.00  0.00    +0.138 A 
ATOM      7  C   UNL     1     -11.472  13.270  67.822  0.00  0.00    +0.086 A 
ATOM      8  C   UNL     1     -11.687  14.153  68.827  0.00  0.00    +0.030 A 
ATOM      9  C   UNL     1     -11.324  15.488  68.655  0.00  0.00    +0.078 A 
ATOM     10  C   UNL     1     -10.833  15.888  67.425  0.00  0.00    +0.137 A 
ATOM     11 CL   UNL     1     -11.092  16.486  70.068  0.00  0.00    -0.081 Cl
ATOM     12  N   UNL     1     -11.642  11.848  67.860  0.00  0.00    -0.219 NA
ATOM     13  C   UNL     1     -10.969  15.076  66.308  0.00  0.00    +0.042 A 
ATOM     14  C   UNL     1     -10.294  11.155  67.304  0.00  0.00    +0.187 C 
ENDROOT
BRANCH  10  15
ATOM     15  S   UNL     1     -10.172  17.492  67.196  0.00  0.00    +0.094 S 
ATOM     16  O   UNL     1     -10.007  17.635  65.699  0.00  0.00    -0.150 OA
ATOM     17  O   UNL     1     -11.125  18.537  67.701  0.00  0.00    -0.150 OA
ATOM     18  N   UNL     1      -8.672  17.582  68.019  0.00  0.00    +0.039 NA
ENDBRANCH  10  15
BRANCH  14  19
ATOM     19  C   UNL     1     -10.861   9.620  67.687  0.00  0.00    +0.135 C 
ATOM     20 CL   UNL     1     -11.107   9.603  69.408  0.00  0.00    -0.110 Cl
ENDBRANCH  14  19
TORSDOF 2
ENDMDL
MODEL 5
REMARK VINA RESULT:      -5.8      4.016      4.406
REMARK  Name = 
REMARK  2 active torsions:
REMARK  status: ('A' for Active; 'I' for Inactive)
REMARK    1  A    between atoms: C_3  and  C_4
REMARK    2  A    between atoms: C_11  and  S_12
REMARK                            x       y       z     vdW  Elec       q    Type
REMARK                         _______ _______ _______ _____ _____    ______ ____
ROOT
ATOM      1  C   UNL     1      -9.953  10.869  64.873  0.00  0.00    +0.117 C 
ATOM      2  N   UNL     1     -10.332  11.219  65.411  0.00  0.00    -0.134 NA
ATOM      3  S   UNL     1     -11.257  12.586  65.748  0.00  0.00    +0.066 S 
ATOM      4  O   UNL     1     -12.639  12.376  65.160  0.00  0.00    -0.153 OA
ATOM      5  O   UNL     1     -10.676  13.867  65.244  0.00  0.00    -0.153 OA
ATOM      6  C   UNL     1     -11.501  12.724  67.468  0.00  0.00    +0.138 A 
ATOM      7  C   UNL     1     -11.701  11.521  68.138  0.00  0.00    +0.086 A 
ATOM      8  C   UNL     1     -12.228  11.512  69.387  0.00  0.00    +0.030 A 
ATOM      9  C   UNL     1     -12.372  12.715  70.077  0.00  0.00    +0.078 A 
ATOM     10  C   UNL     1     -12.052  13.894  69.428  0.00  0.00    +0.137 A 
ATOM     11 CL   UNL     1     -12.527  12.675  71.815  0.00  0.00    -0.081 Cl
ATOM     12  N   UNL     1     -11.344  10.389  67.336  0.00  0.00    -0.219 NA
ATOM     13  C   UNL     1     -11.877  13.922  68.052  0.00  0.00    +0.042 A 
ATOM     14  C   UNL     1      -9.833  10.592  66.806  0.00  0.00    +0.187 C 
ENDROOT
BRANCH  10  15
ATOM     15  S   UNL     1     -12.015  15.417  70.290  0.00  0.00    +0.094 S 
ATOM     16  O   UNL     1     -13.437  15.631  70.761  0.00  0.00    -0.150 OA
ATOM     17  O   UNL     1     -11.097  15.335  71.476  0.00  0.00    -0.150 OA
ATOM     18  N   UNL     1     -11.507  16.641  69.205  0.00  0.00    +0.039 NA
ENDBRANCH  10  15
BRANCH  14  19
ATOM     19  C   UNL     1      -9.808   9.054  66.126  0.00  0.00    +0.135 C 
ATOM     20 CL   UNL     1     -10.701   8.026  67.206  0.00  0.00    -0.110 Cl
ENDBRANCH  14  19
TORSDOF 2
ENDMDL
MODEL 6
REMARK VINA RESULT:      -5.8      4.238      4.997
REMARK  Name = 
REMARK  2 active torsions:
REMARK  status: ('A' for Active; 'I' for Inactive)
REMARK    1  A    between atoms: C_3  and  C_4
REMARK    2  A    between atoms: C_11  and  S_12
REMARK                            x       y       z     vdW  Elec       q    Type
REMARK                         _______ _______ _______ _____ _____    ______ ____
ROOT
ATOM      1  C   UNL     1     -11.968  13.569  70.011  0.00  0.00    +0.117 C 
ATOM      2  N   UNL     1     -11.591  14.033  69.566  0.00  0.00    -0.134 NA
ATOM      3  S   UNL     1     -10.591  14.100  68.211  0.00  0.00    +0.066 S 
ATOM      4  O   UNL     1     -11.454  13.905  66.980  0.00  0.00    -0.153 OA
ATOM      5  O   UNL     1      -9.475  13.106  68.216  0.00  0.00    -0.153 OA
ATOM      6  C   UNL     1      -9.914  15.699  68.056  0.00  0.00    +0.138 A 
ATOM      7  C   UNL     1     -10.774  16.742  68.384  0.00  0.00    +0.086 A 
ATOM      8  C   UNL     1     -10.493  18.009  67.991  0.00  0.00    +0.030 A 
ATOM      9  C   UNL     1      -9.243  18.295  67.444  0.00  0.00    +0.078 A 
ATOM     10  C   UNL     1      -8.356  17.253  67.238  0.00  0.00    +0.137 A 
ATOM     11 CL   UNL     1      -8.684  19.948  67.440  0.00  0.00    -0.081 Cl
ATOM     12  N   UNL     1     -11.933  16.287  69.092  0.00  0.00    -0.219 NA
ATOM     13  C   UNL     1      -8.785  15.935  67.290  0.00  0.00    +0.042 A 
ATOM     14  C   UNL     1     -11.449  15.422  70.366  0.00  0.00    +0.187 C 
ENDROOT
BRANCH  10  15
ATOM     15  S   UNL     1      -6.705  17.559  66.745  0.00  0.00    +0.094 S 
ATOM     16  O   UNL     1      -6.124  18.419  67.845  0.00  0.00    -0.150 OA
ATOM     17  O   UNL     1      -5.933  16.274  66.648  0.00  0.00    -0.150 OA
ATOM     18  N   UNL     1      -6.731  18.373  65.238  0.00  0.00    +0.039 NA
ENDBRANCH  10  15
BRANCH  14  19
ATOM     19  C   UNL     1     -13.025  15.277  70.934  0.00  0.00    +0.135 C 
ATOM     20 CL   UNL     1     -13.016  15.878  72.565  0.00  0.00    -0.110 Cl
ENDBRANCH  14  19
TORSDOF 2
ENDMDL
MODEL 7
REMARK VINA RESULT:      -5.7      3.309      4.550
REMARK  Name = 
REMARK  2 active torsions:
REMARK  status: ('A' for Active; 'I' for Inactive)
REMARK    1  A    between atoms: C_3  and  C_4
REMARK    2  A    between atoms: C_11  and  S_12
REMARK                            x       y       z     vdW  Elec       q    Type
REMARK                         _______ _______ _______ _____ _____    ______ ____
ROOT
ATOM      1  C   UNL     1     -10.604  16.376  65.418  0.00  0.00    +0.117 C 
ATOM      2  N   UNL     1     -10.175  16.745  65.904  0.00  0.00    -0.134 NA
ATOM      3  S   UNL     1      -9.931  18.244  66.633  0.00  0.00    +0.066 S 
ATOM      4  O   UNL     1     -10.990  18.425  67.703  0.00  0.00    -0.153 OA
ATOM      5  O   UNL     1      -9.956  19.402  65.689  0.00  0.00    -0.153 OA
ATOM      6  C   UNL     1      -8.408  18.248  67.481  0.00  0.00    +0.138 A 
ATOM      7  C   UNL     1      -8.085  17.059  68.127  0.00  0.00    +0.086 A 
ATOM      8  C   UNL     1      -7.121  17.038  69.079  0.00  0.00    +0.030 A 
ATOM      9  C   UNL     1      -6.313  18.159  69.260  0.00  0.00    +0.078 A 
ATOM     10  C   UNL     1      -6.579  19.295  68.516  0.00  0.00    +0.137 A 
ATOM     11 CL   UNL     1      -4.776  17.969  70.065  0.00  0.00    -0.081 Cl
ATOM     12  N   UNL     1      -8.910  15.968  67.698  0.00  0.00    -0.219 NA
ATOM     13  C   UNL     1      -7.779  19.430  67.832  0.00  0.00    +0.042 A 
ATOM     14  C   UNL     1      -8.836  15.872  66.088  0.00  0.00    +0.187 C 
ENDROOT
BRANCH  10  15
ATOM     15  S   UNL     1      -5.492  20.666  68.541  0.00  0.00    +0.094 S 
ATOM     16  O   UNL     1      -6.144  21.696  67.647  0.00  0.00    -0.150 OA
ATOM     17  O   UNL     1      -5.362  21.216  69.933  0.00  0.00    -0.150 OA
ATOM     18  N   UNL     1      -3.970  20.161  67.937  0.00  0.00    +0.039 NA
ENDBRANCH  10  15
BRANCH  14  19
ATOM     19  C   UNL     1      -9.738  14.453  66.079  0.00  0.00    +0.135 C 
ATOM     20 CL   UNL     1      -9.483  13.699  67.625  0.00  0.00    -0.110 Cl
ENDBRANCH  14  19
TORSDOF 2
ENDMDL
MODEL 8
REMARK VINA RESULT:      -5.7      1.816      5.756
REMARK  Name = 
REMARK  2 active torsions:
REMARK  status: ('A' for Active; 'I' for Inactive)
REMARK    1  A    between atoms: C_3  and  C_4
REMARK    2  A    between atoms: C_11  and  S_12
REMARK                            x       y       z     vdW  Elec       q    Type
REMARK                         _______ _______ _______ _____ _____    ______ ____
ROOT
ATOM      1  C   UNL     1      -7.375  18.114  68.434  0.00  0.00    +0.117 C 
ATOM      2  N   UNL     1      -7.715  17.644  67.966  0.00  0.00    -0.134 NA
ATOM      3  S   UNL     1      -8.428  17.526  66.444  0.00  0.00    +0.066 S 
ATOM      4  O   UNL     1      -7.322  17.474  65.409  0.00  0.00    -0.153 OA
ATOM      5  O   UNL     1      -9.381  18.630  66.120  0.00  0.00    -0.153 OA
ATOM      6  C   UNL     1      -9.268  16.005  66.303  0.00  0.00    +0.138 A 
ATOM      7  C   UNL     1      -8.637  14.919  66.902  0.00  0.00    +0.086 A 
ATOM      8  C   UNL     1      -9.000  13.654  66.581  0.00  0.00    +0.030 A 
ATOM      9  C   UNL     1     -10.145  13.445  65.813  0.00  0.00    +0.078 A 
ATOM     10  C   UNL     1     -10.828  14.546  65.327  0.00  0.00    +0.137 A 
ATOM     11 CL   UNL     1     -10.908  11.875  65.849  0.00  0.00    -0.081 Cl
ATOM     12  N   UNL     1      -7.589  15.326  67.791  0.00  0.00    -0.219 NA
ATOM     13  C   UNL     1     -10.246  15.805  65.343  0.00  0.00    +0.042 A 
ATOM     14  C   UNL     1      -8.195  16.386  68.847  0.00  0.00    +0.187 C 
ENDROOT
BRANCH  10  15
ATOM     15  S   UNL     1     -12.375  14.368  64.530  0.00  0.00    +0.094 S 
ATOM     16  O   UNL     1     -13.348  14.032  65.639  0.00  0.00    -0.150 OA
ATOM     17  O   UNL     1     -12.785  15.654  63.871  0.00  0.00    -0.150 OA
ATOM     18  N   UNL     1     -12.250  13.104  63.380  0.00  0.00    +0.039 NA
ENDBRANCH  10  15
BRANCH  14  19
ATOM     19  C   UNL     1      -6.757  16.423  69.716  0.00  0.00    +0.135 C 
ATOM     20 CL   UNL     1      -6.196  14.780  69.806  0.00  0.00    -0.110 Cl
ENDBRANCH  14  19
TORSDOF 2
ENDMDL
MODEL 9
REMARK VINA RESULT:      -5.6      6.161      8.253
REMARK  Name = 
REMARK  2 active torsions:
REMARK  status: ('A' for Active; 'I' for Inactive)
REMARK    1  A    between atoms: C_3  and  C_4
REMARK    2  A    between atoms: C_11  and  S_12
REMARK                            x       y       z     vdW  Elec       q    Type
REMARK                         _______ _______ _______ _____ _____    ______ ____
ROOT
ATOM      1  C   UNL     1     -12.107  16.260  71.538  0.00  0.00    +0.117 C 
ATOM      2  N   UNL     1     -12.217  15.539  71.387  0.00  0.00    -0.134 NA
ATOM      3  S   UNL     1     -13.124  14.186  71.819  0.00  0.00    +0.066 S 
ATOM      4  O   UNL     1     -14.509  14.338  71.223  0.00  0.00    -0.153 OA
ATOM      5  O   UNL     1     -13.223  13.953  73.292  0.00  0.00    -0.153 OA
ATOM      6  C   UNL     1     -12.451  12.762  71.074  0.00  0.00    +0.138 A 
ATOM      7  C   UNL     1     -11.972  12.939  69.779  0.00  0.00    +0.086 A 
ATOM      8  C   UNL     1     -11.743  11.867  68.982  0.00  0.00    +0.030 A 
ATOM      9  C   UNL     1     -11.787  10.585  69.529  0.00  0.00    +0.078 A 
ATOM     10  C   UNL     1     -12.151  10.443  70.856  0.00  0.00    +0.137 A 
ATOM     11 CL   UNL     1     -10.989   9.282  68.685  0.00  0.00    -0.081 Cl
ATOM     12  N   UNL     1     -11.830  14.323  69.439  0.00  0.00    -0.219 NA
ATOM     13  C   UNL     1     -12.738  11.493  71.547  0.00  0.00    +0.042 A 
ATOM     14  C   UNL     1     -10.925  15.039  70.568  0.00  0.00    +0.187 C 
ENDROOT
BRANCH  10  15
ATOM     15  S   UNL     1     -12.034   8.894  71.662  0.00  0.00    +0.094 S 
ATOM     16  O   UNL     1     -12.954   9.008  72.858  0.00  0.00    -0.150 OA
ATOM     17  O   UNL     1     -12.510   7.789  70.762  0.00  0.00    -0.150 OA
ATOM     18  N   UNL     1     -10.404   8.646  72.127  0.00  0.00    +0.039 NA
ENDBRANCH  10  15
BRANCH  14  19
ATOM     19  C   UNL     1     -10.892  16.480  69.704  0.00  0.00    +0.135 C 
ATOM     20 CL   UNL     1     -11.084  16.053  68.030  0.00  0.00    -0.110 Cl
ENDBRANCH  14  19
TORSDOF 2
ENDMDL
