MODEL 1
REMARK VINA RESULT:      -6.0      0.000      0.000
REMARK  Name = 
REMARK  5 active torsions:
REMARK  status: ('A' for Active; 'I' for Inactive)
REMARK    1  A    between atoms: C_2  and  C_3
REMARK    2  A    between atoms: C_5  and  C_6
REMARK    3  A    between atoms: C_5  and  O_8
REMARK    4  A    between atoms: O_8  and  C_9
REMARK    5  A    between atoms: C_11  and  C_12
REMARK                            x       y       z     vdW  Elec       q    Type
REMARK                         _______ _______ _______ _____ _____    ______ ____
ROOT
ATOM      1  O   UNL     1     -10.330  13.276  66.533  0.00  0.00    -0.303 OA
ENDROOT
BRANCH   1   2
ATOM      2  C   UNL     1     -10.577  14.714  66.992  0.00  0.00    +0.271 C 
ATOM      3  C   UNL     1      -8.862  15.039  66.840  0.00  0.00    +0.241 C 
ATOM      4  O   UNL     1      -8.426  14.672  68.225  0.00  0.00    -0.215 OA
ATOM      5  C   UNL     1      -9.036  16.719  67.166  0.00  0.00    +0.220 C 
ATOM      6  O   UNL     1      -9.388  16.973  65.718  0.00  0.00    -0.217 OA
ATOM      7  C   UNL     1     -10.686  16.631  67.628  0.00  0.00    +0.214 C 
ATOM      8  O   UNL     1     -10.607  17.960  68.322  0.00  0.00    -0.218 OA
ATOM      9  C   UNL     1     -10.291  15.768  69.076  0.00  0.00    +0.183 C 
ATOM     10  O   UNL     1     -10.558  14.379  68.497  0.00  0.00    -0.326 OA
BRANCH   9  11
ATOM     11  C   UNL     1     -11.830  15.941  69.650  0.00  0.00    +0.214 C 
ATOM     12  O   UNL     1     -11.540  16.163  71.001  0.00  0.00    -0.218 OA
ENDBRANCH   9  11
ENDBRANCH   1   2
BRANCH   1  18
ATOM     13  C   UNL     1     -10.823  10.523  66.784  0.00  0.00    +0.183 C 
ATOM     14  C   UNL     1      -9.712  11.142  65.619  0.00  0.00    +0.217 C 
ATOM     15  O   UNL     1      -9.713   9.826  64.892  0.00  0.00    -0.218 OA
ATOM     16  C   UNL     1     -11.044  11.732  64.701  0.00  0.00    +0.238 C 
ATOM     17  O   UNL     1     -10.181  12.768  63.993  0.00  0.00    -0.215 OA
ATOM     18  C   UNL     1     -11.342  12.687  66.004  0.00  0.00    +0.252 C 
ATOM     19  O   UNL     1     -11.765  11.691  66.721  0.00  0.00    -0.327 OA
BRANCH  13  21
ATOM     20  O   UNL     1     -10.820  11.039  69.143  0.00  0.00    -0.218 OA
ATOM     21  C   UNL     1      -9.970  11.184  68.046  0.00  0.00    +0.214 C 
ENDBRANCH  13  21
BRANCH  18  22
ATOM     22  C   UNL     1     -12.575  13.409  65.570  0.00  0.00    +0.241 C 
ATOM     23  O   UNL     1     -13.277  12.541  64.716  0.00  0.00    -0.215 OA
ENDBRANCH  18  22
ENDBRANCH   1  18
TORSDOF 5
ENDMDL
MODEL 2
REMARK VINA RESULT:      -5.7      2.343      4.935
REMARK  Name = 
REMARK  5 active torsions:
REMARK  status: ('A' for Active; 'I' for Inactive)
REMARK    1  A    between atoms: C_2  and  C_3
REMARK    2  A    between atoms: C_5  and  C_6
REMARK    3  A    between atoms: C_5  and  O_8
REMARK    4  A    between atoms: O_8  and  C_9
REMARK    5  A    between atoms: C_11  and  C_12
REMARK                            x       y       z     vdW  Elec       q    Type
REMARK                         _______ _______ _______ _____ _____    ______ ____
ROOT
ATOM      1  O   UNL     1      -9.929  16.252  66.866  0.00  0.00    -0.303 OA
ENDROOT
BRANCH   1   2
ATOM      2  C   UNL     1      -9.067  17.464  67.220  0.00  0.00    +0.271 C 
ATOM      3  C   UNL     1     -10.494  18.480  67.143  0.00  0.00    +0.241 C 
ATOM      4  O   UNL     1     -10.436  18.861  65.695  0.00  0.00    -0.215 OA
ATOM      5  C   UNL     1      -9.667  19.877  67.711  0.00  0.00    +0.220 C 
ATOM      6  O   UNL     1      -9.859  19.421  69.139  0.00  0.00    -0.217 OA
ATOM      7  C   UNL     1      -8.097  19.193  67.626  0.00  0.00    +0.214 C 
ATOM      8  O   UNL     1      -7.457  20.550  67.658  0.00  0.00    -0.218 OA
ATOM      9  C   UNL     1      -8.141  19.173  65.895  0.00  0.00    +0.183 C 
ATOM     10  O   UNL     1      -8.593  17.718  65.776  0.00  0.00    -0.326 OA
BRANCH   9  11
ATOM     11  C   UNL     1      -6.536  18.791  65.816  0.00  0.00    +0.214 C 
ATOM     12  O   UNL     1      -6.343  18.922  64.436  0.00  0.00    -0.218 OA
ENDBRANCH   9  11
ENDBRANCH   1   2
BRANCH   1  18
ATOM     13  C   UNL     1     -10.865  13.969  65.524  0.00  0.00    +0.183 C 
ATOM     14  C   UNL     1     -11.483  14.431  67.067  0.00  0.00    +0.217 C 
ATOM     15  O   UNL     1     -12.104  13.073  67.244  0.00  0.00    -0.218 OA
ATOM     16  C   UNL     1     -10.001  13.926  67.782  0.00  0.00    +0.238 C 
ATOM     17  O   UNL     1     -10.215  14.810  69.005  0.00  0.00    -0.215 OA
ATOM     18  C   UNL     1      -9.320  15.121  66.882  0.00  0.00    +0.252 C 
ATOM     19  O   UNL     1      -9.469  14.462  65.774  0.00  0.00    -0.327 OA
BRANCH  13  21
ATOM     20  O   UNL     1     -12.461  15.077  64.090  0.00  0.00    -0.218 OA
ATOM     21  C   UNL     1     -11.329  15.408  64.835  0.00  0.00    +0.214 C 
ENDBRANCH  13  21
BRANCH  18  22
ATOM     22  C   UNL     1      -7.876  14.973  67.235  0.00  0.00    +0.241 C 
ATOM     23  O   UNL     1      -7.604  13.595  67.275  0.00  0.00    -0.215 OA
ENDBRANCH  18  22
ENDBRANCH   1  18
TORSDOF 5
ENDMDL
MODEL 3
REMARK VINA RESULT:      -5.7      1.889      6.059
REMARK  Name = 
REMARK  5 active torsions:
REMARK  status: ('A' for Active; 'I' for Inactive)
REMARK    1  A    between atoms: C_2  and  C_3
REMARK    2  A    between atoms: C_5  and  C_6
REMARK    3  A    between atoms: C_5  and  O_8
REMARK    4  A    between atoms: O_8  and  C_9
REMARK    5  A    between atoms: C_11  and  C_12
REMARK                            x       y       z     vdW  Elec       q    Type
REMARK                         _______ _______ _______ _____ _____    ______ ____
ROOT
ATOM      1  O   UNL     1      -9.337  16.248  67.272  0.00  0.00    -0.303 OA
ENDROOT
BRANCH   1   2
ATOM      2  C   UNL     1     -10.344  15.152  66.923  0.00  0.00    +0.271 C 
ATOM      3  C   UNL     1      -9.840  14.259  68.344  0.00  0.00    +0.241 C 
ATOM      4  O   UNL     1      -8.741  13.443  67.735  0.00  0.00    -0.215 OA
ATOM      5  C   UNL     1     -11.055  13.056  68.159  0.00  0.00    +0.220 C 
ATOM      6  O   UNL     1     -12.055  13.946  68.861  0.00  0.00    -0.217 OA
ATOM      7  C   UNL     1     -11.572  13.575  66.608  0.00  0.00    +0.214 C 
ATOM      8  O   UNL     1     -12.237  12.256  66.341  0.00  0.00    -0.218 OA
ATOM      9  C   UNL     1     -10.088  13.058  65.881  0.00  0.00    +0.183 C 
ATOM     10  O   UNL     1      -9.417  14.430  65.925  0.00  0.00    -0.326 OA
BRANCH   9  11
ATOM     11  C   UNL     1     -10.702  13.290  64.365  0.00  0.00    +0.214 C 
ATOM     12  O   UNL     1     -10.085  12.218  63.709  0.00  0.00    -0.218 OA
ENDBRANCH   9  11
ENDBRANCH   1   2
BRANCH   1  18
ATOM     13  C   UNL     1      -7.298  18.138  66.877  0.00  0.00    +0.183 C 
ATOM     14  C   UNL     1      -8.145  18.019  68.374  0.00  0.00    +0.217 C 
ATOM     15  O   UNL     1      -7.620  19.362  68.798  0.00  0.00    -0.218 OA
ATOM     16  C   UNL     1      -9.525  18.717  67.618  0.00  0.00    +0.238 C 
ATOM     17  O   UNL     1     -10.473  18.127  68.655  0.00  0.00    -0.215 OA
ATOM     18  C   UNL     1      -9.518  17.371  66.676  0.00  0.00    +0.252 C 
ATOM     19  O   UNL     1      -8.468  17.757  66.017  0.00  0.00    -0.327 OA
BRANCH  13  21
ATOM     20  O   UNL     1      -5.482  16.609  66.434  0.00  0.00    -0.218 OA
ATOM     21  C   UNL     1      -6.766  16.567  66.978  0.00  0.00    +0.214 C 
ENDBRANCH  13  21
BRANCH  18  22
ATOM     22  C   UNL     1     -10.672  17.638  65.765  0.00  0.00    +0.241 C 
ATOM     23  O   UNL     1     -10.635  19.007  65.449  0.00  0.00    -0.215 OA
ENDBRANCH  18  22
ENDBRANCH   1  18
TORSDOF 5
ENDMDL
MODEL 4
REMARK VINA RESULT:      -5.6      1.381      5.594
REMARK  Name = 
REMARK  5 active torsions:
REMARK  status: ('A' for Active; 'I' for Inactive)
REMARK    1  A    between atoms: C_2  and  C_3
REMARK    2  A    between atoms: C_5  and  C_6
REMARK    3  A    between atoms: C_5  and  O_8
REMARK    4  A    between atoms: O_8  and  C_9
REMARK    5  A    between atoms: C_11  and  C_12
REMARK                            x       y       z     vdW  Elec       q    Type
REMARK                         _______ _______ _______ _____ _____    ______ ____
ROOT
ATOM      1  O   UNL     1     -10.681  15.171  66.792  0.00  0.00    -0.303 OA
ENDROOT
BRANCH   1   2
ATOM      2  C   UNL     1     -10.613  14.053  65.752  0.00  0.00    +0.271 C 
ATOM      3  C   UNL     1     -12.354  13.882  65.846  0.00  0.00    +0.241 C 
ATOM      4  O   UNL     1     -12.435  12.860  66.938  0.00  0.00    -0.215 OA
ATOM      5  C   UNL     1     -12.426  12.746  64.557  0.00  0.00    +0.220 C 
ATOM      6  O   UNL     1     -12.419  13.874  63.550  0.00  0.00    -0.217 OA
ATOM      7  C   UNL     1     -10.730  12.525  64.431  0.00  0.00    +0.214 C 
ATOM      8  O   UNL     1     -10.910  11.238  63.679  0.00  0.00    -0.218 OA
ATOM      9  C   UNL     1     -10.669  11.710  65.958  0.00  0.00    +0.183 C 
ATOM     10  O   UNL     1     -10.273  12.945  66.767  0.00  0.00    -0.326 OA
BRANCH   9  11
ATOM     11  C   UNL     1      -9.104  11.249  65.697  0.00  0.00    +0.214 C 
ATOM     12  O   UNL     1      -8.613  11.378  67.001  0.00  0.00    -0.218 OA
ENDBRANCH   9  11
ENDBRANCH   1   2
BRANCH   1  18
ATOM     13  C   UNL     1     -10.370  16.745  69.097  0.00  0.00    +0.183 C 
ATOM     14  C   UNL     1     -10.858  17.430  67.591  0.00  0.00    +0.217 C 
ATOM     15  O   UNL     1     -10.553  18.811  68.100  0.00  0.00    -0.218 OA
ATOM     16  C   UNL     1      -9.254  17.214  67.004  0.00  0.00    +0.238 C 
ATOM     17  O   UNL     1      -9.714  17.235  65.551  0.00  0.00    -0.215 OA
ATOM     18  C   UNL     1      -9.545  15.609  67.204  0.00  0.00    +0.252 C 
ATOM     19  O   UNL     1      -9.485  15.692  68.497  0.00  0.00    -0.327 OA
BRANCH  13  21
ATOM     20  O   UNL     1     -12.327  16.050  70.328  0.00  0.00    -0.218 OA
ATOM     21  C   UNL     1     -11.682  15.727  69.134  0.00  0.00    +0.214 C 
ENDBRANCH  13  21
BRANCH  18  22
ATOM     22  C   UNL     1      -8.239  15.015  66.787  0.00  0.00    +0.241 C 
ATOM     23  O   UNL     1      -7.586  14.601  67.960  0.00  0.00    -0.215 OA
ENDBRANCH  18  22
ENDBRANCH   1  18
TORSDOF 5
ENDMDL
MODEL 5
REMARK VINA RESULT:      -5.6      4.060      6.267
REMARK  Name = 
REMARK  5 active torsions:
REMARK  status: ('A' for Active; 'I' for Inactive)
REMARK    1  A    between atoms: C_2  and  C_3
REMARK    2  A    between atoms: C_5  and  C_6
REMARK    3  A    between atoms: C_5  and  O_8
REMARK    4  A    between atoms: O_8  and  C_9
REMARK    5  A    between atoms: C_11  and  C_12
REMARK                            x       y       z     vdW  Elec       q    Type
REMARK                         _______ _______ _______ _____ _____    ______ ____
ROOT
ATOM      1  O   UNL     1      -7.620  18.148  67.920  0.00  0.00    -0.303 OA
ENDROOT
BRANCH   1   2
ATOM      2  C   UNL     1      -6.900  19.246  68.703  0.00  0.00    +0.271 C 
ATOM      3  C   UNL     1      -5.742  19.395  67.396  0.00  0.00    +0.241 C 
ATOM      4  O   UNL     1      -4.727  18.397  67.863  0.00  0.00    -0.215 OA
ATOM      5  C   UNL     1      -4.959  20.759  68.093  0.00  0.00    +0.220 C 
ATOM      6  O   UNL     1      -6.006  21.674  67.499  0.00  0.00    -0.217 OA
ATOM      7  C   UNL     1      -5.780  20.675  69.597  0.00  0.00    +0.214 C 
ATOM      8  O   UNL     1      -4.742  21.533  70.260  0.00  0.00    -0.218 OA
ATOM      9  C   UNL     1      -4.956  19.215  70.027  0.00  0.00    +0.183 C 
ATOM     10  O   UNL     1      -6.069  18.275  69.564  0.00  0.00    -0.326 OA
BRANCH   9  11
ATOM     11  C   UNL     1      -5.526  19.299  71.575  0.00  0.00    +0.214 C 
ATOM     12  O   UNL     1      -5.147  18.027  72.021  0.00  0.00    -0.218 OA
ENDBRANCH   9  11
ENDBRANCH   1   2
BRANCH   1  18
ATOM     13  C   UNL     1      -9.264  15.887  67.647  0.00  0.00    +0.183 C 
ATOM     14  C   UNL     1      -8.596  16.693  66.276  0.00  0.00    +0.217 C 
ATOM     15  O   UNL     1      -9.555  15.978  65.366  0.00  0.00    -0.218 OA
ATOM     16  C   UNL     1      -9.696  17.991  66.536  0.00  0.00    +0.238 C 
ATOM     17  O   UNL     1      -8.818  18.974  65.772  0.00  0.00    -0.215 OA
ATOM     18  C   UNL     1      -8.904  18.196  67.960  0.00  0.00    +0.252 C 
ATOM     19  O   UNL     1      -9.423  17.126  68.479  0.00  0.00    -0.327 OA
BRANCH  13  21
ATOM     20  O   UNL     1      -8.018  15.177  69.589  0.00  0.00    -0.218 OA
ATOM     21  C   UNL     1      -7.759  15.569  68.276  0.00  0.00    +0.214 C 
ENDBRANCH  13  21
BRANCH  18  22
ATOM     22  C   UNL     1      -9.662  19.333  68.562  0.00  0.00    +0.241 C 
ATOM     23  O   UNL     1     -10.910  19.380  67.917  0.00  0.00    -0.215 OA
ENDBRANCH  18  22
ENDBRANCH   1  18
TORSDOF 5
ENDMDL
MODEL 6
REMARK VINA RESULT:      -5.5      1.725      4.997
REMARK  Name = 
REMARK  5 active torsions:
REMARK  status: ('A' for Active; 'I' for Inactive)
REMARK    1  A    between atoms: C_2  and  C_3
REMARK    2  A    between atoms: C_5  and  C_6
REMARK    3  A    between atoms: C_5  and  O_8
REMARK    4  A    between atoms: O_8  and  C_9
REMARK    5  A    between atoms: C_11  and  C_12
REMARK                            x       y       z     vdW  Elec       q    Type
REMARK                         _______ _______ _______ _____ _____    ______ ____
ROOT
ATOM      1  O   UNL     1     -10.288  13.316  66.443  0.00  0.00    -0.303 OA
ENDROOT
BRANCH   1   2
ATOM      2  C   UNL     1      -9.755  12.257  67.408  0.00  0.00    +0.271 C 
ATOM      3  C   UNL     1      -8.956  11.461  66.067  0.00  0.00    +0.241 C 
ATOM      4  O   UNL     1     -10.055  10.530  65.655  0.00  0.00    -0.215 OA
ATOM      5  C   UNL     1      -8.151  10.323  67.075  0.00  0.00    +0.220 C 
ATOM      6  O   UNL     1      -7.057  11.329  67.353  0.00  0.00    -0.217 OA
ATOM      7  C   UNL     1      -8.997  10.737  68.508  0.00  0.00    +0.214 C 
ATOM      8  O   UNL     1      -8.609   9.444  69.163  0.00  0.00    -0.218 OA
ATOM      9  C   UNL     1     -10.473  10.071  67.895  0.00  0.00    +0.183 C 
ATOM     10  O   UNL     1     -11.034  11.398  67.386  0.00  0.00    -0.326 OA
BRANCH   9  11
ATOM     11  C   UNL     1     -11.199  10.208  69.372  0.00  0.00    +0.214 C 
ATOM     12  O   UNL     1     -12.406  10.795  68.973  0.00  0.00    -0.218 OA
ENDBRANCH   9  11
ENDBRANCH   1   2
BRANCH   1  18
ATOM     13  C   UNL     1     -12.311  14.698  65.070  0.00  0.00    +0.183 C 
ATOM     14  C   UNL     1     -10.650  15.135  64.916  0.00  0.00    +0.217 C 
ATOM     15  O   UNL     1     -11.035  16.452  64.301  0.00  0.00    -0.218 OA
ATOM     16  C   UNL     1     -10.698  15.781  66.510  0.00  0.00    +0.238 C 
ATOM     17  O   UNL     1      -9.189  15.655  66.677  0.00  0.00    -0.215 OA
ATOM     18  C   UNL     1     -11.006  14.237  66.978  0.00  0.00    +0.252 C 
ATOM     19  O   UNL     1     -12.213  14.263  66.504  0.00  0.00    -0.327 OA
BRANCH  13  21
ATOM     20  O   UNL     1     -13.243  12.502  64.696  0.00  0.00    -0.218 OA
ATOM     21  C   UNL     1     -12.028  13.161  64.507  0.00  0.00    +0.214 C 
ENDBRANCH  13  21
BRANCH  18  22
ATOM     22  C   UNL     1     -11.161  14.399  68.455  0.00  0.00    +0.241 C 
ATOM     23  O   UNL     1     -11.876  15.591  68.663  0.00  0.00    -0.215 OA
ENDBRANCH  18  22
ENDBRANCH   1  18
TORSDOF 5
ENDMDL
MODEL 7
REMARK VINA RESULT:      -5.5      1.894      4.336
REMARK  Name = 
REMARK  5 active torsions:
REMARK  status: ('A' for Active; 'I' for Inactive)
REMARK    1  A    between atoms: C_2  and  C_3
REMARK    2  A    between atoms: C_5  and  C_6
REMARK    3  A    between atoms: C_5  and  O_8
REMARK    4  A    between atoms: O_8  and  C_9
REMARK    5  A    between atoms: C_11  and  C_12
REMARK                            x       y       z     vdW  Elec       q    Type
REMARK                         _______ _______ _______ _____ _____    ______ ____
ROOT
ATOM      1  O   UNL     1     -10.614  11.825  66.990  0.00  0.00    -0.303 OA
ENDROOT
BRANCH   1   2
ATOM      2  C   UNL     1     -11.333  12.882  66.152  0.00  0.00    +0.271 C 
ATOM      3  C   UNL     1     -11.185  11.845  64.747  0.00  0.00    +0.241 C 
ATOM      4  O   UNL     1      -9.867  12.332  64.229  0.00  0.00    -0.215 OA
ATOM      5  C   UNL     1     -12.140  12.870  63.749  0.00  0.00    +0.220 C 
ATOM      6  O   UNL     1     -13.402  12.241  64.294  0.00  0.00    -0.217 OA
ATOM      7  C   UNL     1     -12.217  14.170  64.865  0.00  0.00    +0.214 C 
ATOM      8  O   UNL     1     -12.613  15.132  63.783  0.00  0.00    -0.218 OA
ATOM      9  C   UNL     1     -10.533  14.517  64.661  0.00  0.00    +0.183 C 
ATOM     10  O   UNL     1     -10.070  13.723  65.882  0.00  0.00    -0.326 OA
BRANCH   9  11
ATOM     11  C   UNL     1     -10.679  15.930  65.503  0.00  0.00    +0.214 C 
ATOM     12  O   UNL     1      -9.328  16.289  65.572  0.00  0.00    -0.218 OA
ENDBRANCH   9  11
ENDBRANCH   1   2
BRANCH   1  18
ATOM     13  C   UNL     1      -8.554  10.788  68.592  0.00  0.00    +0.183 C 
ATOM     14  C   UNL     1      -9.989   9.888  68.266  0.00  0.00    +0.217 C 
ATOM     15  O   UNL     1      -9.668   8.936  69.384  0.00  0.00    -0.218 OA
ATOM     16  C   UNL     1     -10.856  10.942  69.316  0.00  0.00    +0.238 C 
ATOM     17  O   UNL     1     -12.188  10.609  68.656  0.00  0.00    -0.215 OA
ATOM     18  C   UNL     1     -10.469  12.115  68.233  0.00  0.00    +0.252 C 
ATOM     19  O   UNL     1      -9.223  12.132  68.596  0.00  0.00    -0.327 OA
BRANCH  13  21
ATOM     20  O   UNL     1      -7.226  11.916  66.921  0.00  0.00    -0.218 OA
ATOM     21  C   UNL     1      -8.178  10.897  66.978  0.00  0.00    +0.214 C 
ENDBRANCH  13  21
BRANCH  18  22
ATOM     22  C   UNL     1     -11.079  13.321  68.870  0.00  0.00    +0.241 C 
ATOM     23  O   UNL     1     -10.045  14.256  69.047  0.00  0.00    -0.215 OA
ENDBRANCH  18  22
ENDBRANCH   1  18
TORSDOF 5
ENDMDL
MODEL 8
REMARK VINA RESULT:      -5.4      1.950      3.423
REMARK  Name = 
REMARK  5 active torsions:
REMARK  status: ('A' for Active; 'I' for Inactive)
REMARK    1  A    between atoms: C_2  and  C_3
REMARK    2  A    between atoms: C_5  and  C_6
REMARK    3  A    between atoms: C_5  and  O_8
REMARK    4  A    between atoms: O_8  and  C_9
REMARK    5  A    between atoms: C_11  and  C_12
REMARK                            x       y       z     vdW  Elec       q    Type
REMARK                         _______ _______ _______ _____ _____    ______ ____
ROOT
ATOM      1  O   UNL     1      -9.707  15.183  67.405  0.00  0.00    -0.303 OA
ENDROOT
BRANCH   1   2
ATOM      2  C   UNL     1      -9.014  16.420  66.835  0.00  0.00    +0.271 C 
ATOM      3  C   UNL     1      -7.747  16.241  68.032  0.00  0.00    +0.241 C 
ATOM      4  O   UNL     1      -8.335  17.076  69.128  0.00  0.00    -0.215 OA
ATOM      5  C   UNL     1      -6.785  17.503  67.368  0.00  0.00    +0.220 C 
ATOM      6  O   UNL     1      -6.204  16.540  66.358  0.00  0.00    -0.217 OA
ATOM      7  C   UNL     1      -7.973  18.059  66.264  0.00  0.00    +0.214 C 
ATOM      8  O   UNL     1      -7.270  19.375  66.102  0.00  0.00    -0.218 OA
ATOM      9  C   UNL     1      -8.964  18.661  67.549  0.00  0.00    +0.183 C 
ATOM     10  O   UNL     1      -9.865  17.430  67.631  0.00  0.00    -0.326 OA
BRANCH   9  11
ATOM     11  C   UNL     1      -9.951  19.443  66.479  0.00  0.00    +0.214 C 
ATOM     12  O   UNL     1     -11.121  19.486  67.246  0.00  0.00    -0.218 OA
ENDBRANCH   9  11
ENDBRANCH   1   2
BRANCH   1  18
ATOM     13  C   UNL     1     -11.973  13.920  68.482  0.00  0.00    +0.183 C 
ATOM     14  C   UNL     1     -10.482  13.079  68.270  0.00  0.00    +0.217 C 
ATOM     15  O   UNL     1     -11.179  11.760  68.452  0.00  0.00    -0.218 OA
ATOM     16  C   UNL     1     -10.758  13.073  66.571  0.00  0.00    +0.238 C 
ATOM     17  O   UNL     1      -9.277  12.892  66.265  0.00  0.00    -0.215 OA
ATOM     18  C   UNL     1     -10.663  14.709  66.688  0.00  0.00    +0.252 C 
ATOM     19  O   UNL     1     -11.816  14.800  67.277  0.00  0.00    -0.327 OA
BRANCH  13  21
ATOM     20  O   UNL     1     -12.249  16.030  69.624  0.00  0.00    -0.218 OA
ATOM     21  C   UNL     1     -11.272  15.044  69.486  0.00  0.00    +0.214 C 
ENDBRANCH  13  21
BRANCH  18  22
ATOM     22  C   UNL     1     -10.910  15.124  65.275  0.00  0.00    +0.241 C 
ATOM     23  O   UNL     1     -12.027  14.400  64.825  0.00  0.00    -0.215 OA
ENDBRANCH  18  22
ENDBRANCH   1  18
TORSDOF 5
ENDMDL
MODEL 9
REMARK VINA RESULT:      -5.3      2.984      5.187
REMARK  Name = 
REMARK  5 active torsions:
REMARK  status: ('A' for Active; 'I' for Inactive)
REMARK    1  A    between atoms: C_2  and  C_3
REMARK    2  A    between atoms: C_5  and  C_6
REMARK    3  A    between atoms: C_5  and  O_8
REMARK    4  A    between atoms: O_8  and  C_9
REMARK    5  A    between atoms: C_11  and  C_12
REMARK                            x       y       z     vdW  Elec       q    Type
REMARK                         _______ _______ _______ _____ _____    ______ ____
ROOT
ATOM      1  O   UNL     1      -8.834  16.855  67.957  0.00  0.00    -0.303 OA
ENDROOT
BRANCH   1   2
ATOM      2  C   UNL     1      -7.574  17.704  67.788  0.00  0.00    +0.271 C 
ATOM      3  C   UNL     1      -6.596  16.261  67.976  0.00  0.00    +0.241 C 
ATOM      4  O   UNL     1      -6.415  16.289  69.463  0.00  0.00    -0.215 OA
ATOM      5  C   UNL     1      -5.124  17.075  67.619  0.00  0.00    +0.220 C 
ATOM      6  O   UNL     1      -5.383  16.915  66.139  0.00  0.00    -0.217 OA
ATOM      7  C   UNL     1      -5.793  18.654  67.640  0.00  0.00    +0.214 C 
ATOM      8  O   UNL     1      -4.436  19.274  67.804  0.00  0.00    -0.218 OA
ATOM      9  C   UNL     1      -6.050  18.581  69.351  0.00  0.00    +0.183 C 
ATOM     10  O   UNL     1      -7.513  18.149  69.262  0.00  0.00    -0.326 OA
BRANCH   9  11
ATOM     11  C   UNL     1      -6.418  20.191  69.407  0.00  0.00    +0.214 C 
ATOM     12  O   UNL     1      -6.153  20.433  70.760  0.00  0.00    -0.218 OA
ENDBRANCH   9  11
ENDBRANCH   1   2
BRANCH   1  18
ATOM     13  C   UNL     1     -11.412  15.898  68.529  0.00  0.00    +0.183 C 
ATOM     14  C   UNL     1     -10.395  15.126  67.369  0.00  0.00    +0.217 C 
ATOM     15  O   UNL     1     -11.570  14.365  66.820  0.00  0.00    -0.218 OA
ATOM     16  C   UNL     1     -10.659  16.448  66.298  0.00  0.00    +0.238 C 
ATOM     17  O   UNL     1      -9.382  16.156  65.519  0.00  0.00    -0.215 OA
ATOM     18  C   UNL     1      -9.903  17.349  67.445  0.00  0.00    +0.252 C 
ATOM     19  O   UNL     1     -10.914  17.288  68.255  0.00  0.00    -0.327 OA
BRANCH  13  21
ATOM     20  O   UNL     1     -11.094  15.506  70.890  0.00  0.00    -0.218 OA
ATOM     21  C   UNL     1     -10.308  15.665  69.749  0.00  0.00    +0.214 C 
ENDBRANCH  13  21
BRANCH  18  22
ATOM     22  C   UNL     1      -9.965  18.714  66.840  0.00  0.00    +0.241 C 
ATOM     23  O   UNL     1     -10.973  19.417  67.522  0.00  0.00    -0.215 OA
ENDBRANCH  18  22
ENDBRANCH   1  18
TORSDOF 5
ENDMDL
