MODEL 1
REMARK VINA RESULT:      -6.7      0.000      0.000
REMARK  Name = 
REMARK  6 active torsions:
REMARK  status: ('A' for Active; 'I' for Inactive)
REMARK    1  A    between atoms: C_2  and  O_4
REMARK    2  A    between atoms: O_4  and  C_5
REMARK    3  A    between atoms: C_6  and  N_7
REMARK    4  A    between atoms: C_21  and  O_22
REMARK    5  A    between atoms: O_22  and  C_23
REMARK    6  A    between atoms: C_26  and  N_27
REMARK                            x       y       z     vdW  Elec       q    Type
REMARK                         _______ _______ _______ _____ _____    ______ ____
ROOT
ATOM      1  C   UNL     1      -9.204  11.348  66.282  0.00  0.00    +0.217 C 
ATOM      2  C   UNL     1      -9.486   9.964  67.082  0.00  0.00    +0.043 C 
ATOM      3  C   UNL     1      -9.851  10.658  68.490  0.00  0.00    +0.009 C 
ATOM      4  C   UNL     1     -10.625   9.305  69.107  0.00  0.00    +0.000 C 
ATOM      5  C   UNL     1      -9.107   8.924  69.743  0.00  0.00    +0.000 C 
ATOM      6  C   UNL     1      -8.720   8.126  68.380  0.00  0.00    +0.000 C 
ATOM      7  C   UNL     1      -9.640   7.702  70.656  0.00  0.00    +0.002 C 
ATOM      8  C   UNL     1      -9.739   8.662  71.977  0.00  0.00    +0.004 C 
ATOM      9  C   UNL     1     -10.509   7.617  72.945  0.00  0.00    +0.045 C 
ATOM     10  C   UNL     1      -9.863   6.162  72.652  0.00  0.00    +0.183 C 
ATOM     11  C   UNL     1      -8.274   6.782  72.515  0.00  0.00    +0.098 C 
ATOM     12  C   UNL     1     -11.172   9.311  71.548  0.00  0.00    +0.000 C 
ATOM     13  C   UNL     1     -10.895   7.161  70.301  0.00  0.00    +0.000 C 
ATOM     14  C   UNL     1      -8.463   6.816  70.896  0.00  0.00    +0.020 C 
ATOM     15  C   UNL     1     -11.026  10.169  70.400  0.00  0.00    +0.000 C 
ATOM     16  C   UNL     1     -11.145  11.305  67.744  0.00  0.00    +0.059 C 
ATOM     17  C   UNL     1     -10.592   9.200  66.566  0.00  0.00    +0.004 C 
ATOM     18  C   UNL     1      -8.264   9.247  67.433  0.00  0.00    +0.004 C 
ATOM     19  C   UNL     1      -9.895  12.341  67.505  0.00  0.00    +0.099 C 
ENDROOT
BRANCH  19  20
ATOM     20  N   UNL     1     -10.685  13.361  66.648  0.00  0.00    +0.300 N 
ATOM     21  C   UNL     1     -10.973  14.184  67.836  0.00  0.00    +0.109 C 
ATOM     22  C   UNL     1     -11.050  15.601  67.731  0.00  0.00    +0.061 C 
ATOM     23  C   UNL     1     -10.769  16.179  66.394  0.00  0.00    +0.012 C 
ATOM     24  C   UNL     1      -9.593  15.432  65.840  0.00  0.00    +0.061 C 
ATOM     25  C   UNL     1      -9.817  13.968  65.754  0.00  0.00    +0.109 C 
ATOM     26  C   UNL     1     -11.986  13.016  66.335  0.00  0.00    +0.170 C 
ENDBRANCH  19  20
BRANCH  11  27
ATOM     27  N   UNL     1      -7.668   5.346  72.530  0.00  0.00    -0.271 NA
ATOM     28  C   UNL     1      -6.964   5.115  71.324  0.00  0.00    +0.072 C 
ATOM     29  C   UNL     1      -5.786   6.011  71.131  0.00  0.00    +0.017 C 
ATOM     30  C   UNL     1      -4.907   6.119  72.332  0.00  0.00    +0.003 C 
ATOM     31  C   UNL     1      -5.430   5.534  73.582  0.00  0.00    +0.017 C 
ATOM     32  C   UNL     1      -6.876   5.335  73.712  0.00  0.00    +0.072 C 
ENDBRANCH  11  27
BRANCH   1  33
ATOM     33  O   UNL     1     -10.464  11.257  65.424  0.00  0.00    -0.446 OA
BRANCH  33  35
ATOM     34  C   UNL     1      -8.893  10.479  63.653  0.00  0.00    +0.121 C 
ATOM     35  C   UNL     1     -10.197  11.075  64.078  0.00  0.00    +0.318 C 
ATOM     36  O   UNL     1     -10.774  11.771  63.188  0.00  0.00    -0.250 OA
ENDBRANCH  33  35
ENDBRANCH   1  33
BRANCH  10  37
ATOM     37  O   UNL     1      -9.707   5.892  74.154  0.00  0.00    -0.451 OA
BRANCH  37  38
ATOM     38  C   UNL     1     -10.441   4.741  74.459  0.00  0.00    +0.317 C 
ATOM     39  O   UNL     1     -10.417   4.369  75.670  0.00  0.00    -0.250 OA
ATOM     40  C   UNL     1     -11.248   3.974  73.490  0.00  0.00    +0.121 C 
ENDBRANCH  37  38
ENDBRANCH  10  37
TORSDOF 6
ENDMDL
MODEL 2
REMARK VINA RESULT:      -6.5      1.847      9.382
REMARK  Name = 
REMARK  6 active torsions:
REMARK  status: ('A' for Active; 'I' for Inactive)
REMARK    1  A    between atoms: C_2  and  O_4
REMARK    2  A    between atoms: O_4  and  C_5
REMARK    3  A    between atoms: C_6  and  N_7
REMARK    4  A    between atoms: C_21  and  O_22
REMARK    5  A    between atoms: O_22  and  C_23
REMARK    6  A    between atoms: C_26  and  N_27
REMARK                            x       y       z     vdW  Elec       q    Type
REMARK                         _______ _______ _______ _____ _____    ______ ____
ROOT
ATOM      1  C   UNL     1      -9.395   6.634  72.083  0.00  0.00    +0.217 C 
ATOM      2  C   UNL     1     -10.270   7.587  71.103  0.00  0.00    +0.043 C 
ATOM      3  C   UNL     1      -9.014   8.196  70.299  0.00  0.00    +0.009 C 
ATOM      4  C   UNL     1      -9.932   8.730  69.003  0.00  0.00    +0.000 C 
ATOM      5  C   UNL     1     -10.019  10.179  69.869  0.00  0.00    +0.000 C 
ATOM      6  C   UNL     1     -11.350   9.654  70.642  0.00  0.00    +0.000 C 
ATOM      7  C   UNL     1     -10.694  11.021  68.665  0.00  0.00    +0.002 C 
ATOM      8  C   UNL     1      -9.244  11.613  68.194  0.00  0.00    +0.004 C 
ATOM      9  C   UNL     1      -9.731  12.303  66.813  0.00  0.00    +0.045 C 
ATOM     10  C   UNL     1     -11.176  12.965  67.118  0.00  0.00    +0.183 C 
ATOM     11  C   UNL     1     -10.714  13.505  68.674  0.00  0.00    +0.098 C 
ATOM     12  C   UNL     1      -8.827  10.269  67.370  0.00  0.00    +0.000 C 
ATOM     13  C   UNL     1     -11.312  10.264  67.646  0.00  0.00    +0.000 C 
ATOM     14  C   UNL     1     -11.403  12.168  69.305  0.00  0.00    +0.020 C 
ATOM     15  C   UNL     1      -8.574   9.171  68.268  0.00  0.00    +0.000 C 
ATOM     16  C   UNL     1      -8.742   6.690  69.744  0.00  0.00    +0.059 C 
ATOM     17  C   UNL     1     -11.163   6.871  70.228  0.00  0.00    +0.004 C 
ATOM     18  C   UNL     1     -10.779   8.781  71.771  0.00  0.00    +0.004 C 
ATOM     19  C   UNL     1      -7.947   6.816  71.172  0.00  0.00    +0.099 C 
ENDROOT
BRANCH  19  20
ATOM     20  N   UNL     1      -7.402   5.367  71.189  0.00  0.00    +0.300 N 
ATOM     21  C   UNL     1      -6.135   5.802  70.574  0.00  0.00    +0.109 C 
ATOM     22  C   UNL     1      -4.910   5.166  70.918  0.00  0.00    +0.061 C 
ATOM     23  C   UNL     1      -4.985   4.106  71.952  0.00  0.00    +0.012 C 
ATOM     24  C   UNL     1      -5.913   4.607  73.017  0.00  0.00    +0.061 C 
ATOM     25  C   UNL     1      -7.262   4.951  72.504  0.00  0.00    +0.109 C 
ATOM     26  C   UNL     1      -7.835   4.541  70.169  0.00  0.00    +0.170 C 
ENDBRANCH  19  20
BRANCH  11  27
ATOM     27  N   UNL     1     -12.004  14.370  68.803  0.00  0.00    -0.271 NA
ATOM     28  C   UNL     1     -12.759  13.936  69.917  0.00  0.00    +0.072 C 
ATOM     29  C   UNL     1     -12.063  14.115  71.226  0.00  0.00    +0.017 C 
ATOM     30  C   UNL     1     -11.447  15.464  71.402  0.00  0.00    +0.003 C 
ATOM     31  C   UNL     1     -11.406  16.326  70.204  0.00  0.00    +0.017 C 
ATOM     32  C   UNL     1     -11.502  15.699  68.883  0.00  0.00    +0.072 C 
ENDBRANCH  11  27
BRANCH   1  33
ATOM     33  O   UNL     1      -9.835   5.331  71.419  0.00  0.00    -0.446 OA
BRANCH  33  35
ATOM     34  C   UNL     1     -10.938   4.975  73.625  0.00  0.00    +0.121 C 
ATOM     35  C   UNL     1     -10.526   4.489  72.272  0.00  0.00    +0.318 C 
ATOM     36  O   UNL     1     -10.445   3.227  72.167  0.00  0.00    -0.250 OA
ENDBRANCH  33  35
ENDBRANCH   1  33
BRANCH  10  37
ATOM     37  O   UNL     1     -10.750  14.281  66.454  0.00  0.00    -0.451 OA
BRANCH  37  38
ATOM     38  C   UNL     1     -11.493  14.426  65.279  0.00  0.00    +0.317 C 
ATOM     39  O   UNL     1     -11.300  15.495  64.625  0.00  0.00    -0.250 OA
ATOM     40  C   UNL     1     -12.437  13.423  64.749  0.00  0.00    +0.121 C 
ENDBRANCH  37  38
ENDBRANCH  10  37
TORSDOF 6
ENDMDL
MODEL 3
REMARK VINA RESULT:      -6.3      2.223      9.226
REMARK  Name = 
REMARK  6 active torsions:
REMARK  status: ('A' for Active; 'I' for Inactive)
REMARK    1  A    between atoms: C_2  and  O_4
REMARK    2  A    between atoms: O_4  and  C_5
REMARK    3  A    between atoms: C_6  and  N_7
REMARK    4  A    between atoms: C_21  and  O_22
REMARK    5  A    between atoms: O_22  and  C_23
REMARK    6  A    between atoms: C_26  and  N_27
REMARK                            x       y       z     vdW  Elec       q    Type
REMARK                         _______ _______ _______ _____ _____    ______ ____
ROOT
ATOM      1  C   UNL     1      -8.820   6.679  70.958  0.00  0.00    +0.217 C 
ATOM      2  C   UNL     1      -9.751   7.712  70.121  0.00  0.00    +0.043 C 
ATOM      3  C   UNL     1      -8.534   8.533  69.458  0.00  0.00    +0.009 C 
ATOM      4  C   UNL     1      -9.473   9.201  68.241  0.00  0.00    +0.000 C 
ATOM      5  C   UNL     1      -9.682  10.481  69.325  0.00  0.00    +0.000 C 
ATOM      6  C   UNL     1     -10.980   9.741  69.969  0.00  0.00    +0.000 C 
ATOM      7  C   UNL     1     -10.402  11.454  68.255  0.00  0.00    +0.002 C 
ATOM      8  C   UNL     1      -8.995  12.220  67.922  0.00  0.00    +0.004 C 
ATOM      9  C   UNL     1      -9.514  13.086  66.657  0.00  0.00    +0.045 C 
ATOM     10  C   UNL     1     -11.009  13.583  67.027  0.00  0.00    +0.183 C 
ATOM     11  C   UNL     1     -10.612  13.896  68.661  0.00  0.00    +0.098 C 
ATOM     12  C   UNL     1      -8.465  11.061  66.905  0.00  0.00    +0.000 C 
ATOM     13  C   UNL     1     -10.947  10.829  67.112  0.00  0.00    +0.000 C 
ATOM     14  C   UNL     1     -11.206  12.428  69.052  0.00  0.00    +0.020 C 
ATOM     15  C   UNL     1      -8.142   9.853  67.622  0.00  0.00    +0.000 C 
ATOM     16  C   UNL     1      -8.140   7.161  68.676  0.00  0.00    +0.059 C 
ATOM     17  C   UNL     1     -10.574   7.084  69.120  0.00  0.00    +0.004 C 
ATOM     18  C   UNL     1     -10.359   8.742  70.958  0.00  0.00    +0.004 C 
ATOM     19  C   UNL     1      -7.377   7.112  70.127  0.00  0.00    +0.099 C 
ENDROOT
BRANCH  19  20
ATOM     20  N   UNL     1      -6.724   5.723  69.926  0.00  0.00    +0.300 N 
ATOM     21  C   UNL     1      -5.496   6.342  69.395  0.00  0.00    +0.109 C 
ATOM     22  C   UNL     1      -4.224   5.756  69.647  0.00  0.00    +0.061 C 
ATOM     23  C   UNL     1      -4.215   4.546  70.506  0.00  0.00    +0.012 C 
ATOM     24  C   UNL     1      -5.175   4.806  71.627  0.00  0.00    +0.061 C 
ATOM     25  C   UNL     1      -6.548   5.122  71.161  0.00  0.00    +0.109 C 
ATOM     26  C   UNL     1      -7.096   5.034  68.787  0.00  0.00    +0.170 C 
ENDBRANCH  19  20
BRANCH  11  27
ATOM     27  N   UNL     1     -11.966  14.633  68.893  0.00  0.00    -0.271 NA
ATOM     28  C   UNL     1     -12.737  13.923  69.843  0.00  0.00    +0.072 C 
ATOM     29  C   UNL     1     -12.115  13.859  71.199  0.00  0.00    +0.017 C 
ATOM     30  C   UNL     1     -11.608  15.173  71.693  0.00  0.00    +0.003 C 
ATOM     31  C   UNL     1     -11.575  16.274  70.710  0.00  0.00    +0.017 C 
ATOM     32  C   UNL     1     -11.566  15.942  69.283  0.00  0.00    +0.072 C 
ENDBRANCH  11  27
BRANCH   1  33
ATOM     33  O   UNL     1      -9.150   5.473  70.083  0.00  0.00    -0.446 OA
BRANCH  33  35
ATOM     34  C   UNL     1     -10.250   4.695  72.179  0.00  0.00    +0.121 C 
ATOM     35  C   UNL     1      -9.854   4.487  70.752  0.00  0.00    +0.318 C 
ATOM     36  O   UNL     1      -9.797   3.272  70.393  0.00  0.00    -0.250 OA
ENDBRANCH  33  35
ENDBRANCH   1  33
BRANCH  10  37
ATOM     37  O   UNL     1     -10.676  15.016  66.594  0.00  0.00    -0.451 OA
BRANCH  37  38
ATOM     38  C   UNL     1     -11.203  15.208  65.313  0.00  0.00    +0.317 C 
ATOM     39  O   UNL     1     -10.742  16.194  64.662  0.00  0.00    -0.250 OA
ATOM     40  C   UNL     1     -12.210  14.338  64.676  0.00  0.00    +0.121 C 
ENDBRANCH  37  38
ENDBRANCH  10  37
TORSDOF 6
ENDMDL
MODEL 4
REMARK VINA RESULT:      -6.3      1.656      2.003
REMARK  Name = 
REMARK  6 active torsions:
REMARK  status: ('A' for Active; 'I' for Inactive)
REMARK    1  A    between atoms: C_2  and  O_4
REMARK    2  A    between atoms: O_4  and  C_5
REMARK    3  A    between atoms: C_6  and  N_7
REMARK    4  A    between atoms: C_21  and  O_22
REMARK    5  A    between atoms: O_22  and  C_23
REMARK    6  A    between atoms: C_26  and  N_27
REMARK                            x       y       z     vdW  Elec       q    Type
REMARK                         _______ _______ _______ _____ _____    ______ ____
ROOT
ATOM      1  C   UNL     1      -8.380  11.194  66.518  0.00  0.00    +0.217 C 
ATOM      2  C   UNL     1      -8.370   9.888  67.481  0.00  0.00    +0.043 C 
ATOM      3  C   UNL     1      -9.623  10.340  68.387  0.00  0.00    +0.009 C 
ATOM      4  C   UNL     1      -9.916   8.802  68.986  0.00  0.00    +0.000 C 
ATOM      5  C   UNL     1      -8.894   9.274  70.247  0.00  0.00    +0.000 C 
ATOM      6  C   UNL     1      -7.601   8.743  69.416  0.00  0.00    +0.000 C 
ATOM      7  C   UNL     1      -9.202   7.980  71.166  0.00  0.00    +0.002 C 
ATOM      8  C   UNL     1     -10.327   8.794  72.031  0.00  0.00    +0.004 C 
ATOM      9  C   UNL     1     -10.918   7.534  72.857  0.00  0.00    +0.045 C 
ATOM     10  C   UNL     1      -9.649   6.608  73.245  0.00  0.00    +0.183 C 
ATOM     11  C   UNL     1      -8.644   7.948  73.587  0.00  0.00    +0.098 C 
ATOM     12  C   UNL     1     -11.499   8.604  70.913  0.00  0.00    +0.000 C 
ATOM     13  C   UNL     1      -9.752   6.861  70.504  0.00  0.00    +0.000 C 
ATOM     14  C   UNL     1      -8.031   7.830  72.080  0.00  0.00    +0.020 C 
ATOM     15  C   UNL     1     -11.216   9.380  69.732  0.00  0.00    +0.000 C 
ATOM     16  C   UNL     1     -10.537  10.210  67.047  0.00  0.00    +0.059 C 
ATOM     17  C   UNL     1      -8.633   8.648  66.795  0.00  0.00    +0.004 C 
ATOM     18  C   UNL     1      -7.293   9.909  68.464  0.00  0.00    +0.004 C 
ATOM     19  C   UNL     1      -9.924  11.731  67.053  0.00  0.00    +0.099 C 
ENDROOT
BRANCH  19  20
ATOM     20  N   UNL     1     -10.563  12.175  65.714  0.00  0.00    +0.300 N 
ATOM     21  C   UNL     1     -11.795  12.598  66.406  0.00  0.00    +0.109 C 
ATOM     22  C   UNL     1     -12.535  13.720  65.940  0.00  0.00    +0.061 C 
ATOM     23  C   UNL     1     -11.967  14.449  64.780  0.00  0.00    +0.012 C 
ATOM     24  C   UNL     1     -10.490  14.550  65.015  0.00  0.00    +0.061 C 
ATOM     25  C   UNL     1      -9.834  13.231  65.193  0.00  0.00    +0.109 C 
ATOM     26  C   UNL     1     -11.115  11.171  64.940  0.00  0.00    +0.170 C 
ENDBRANCH  19  20
BRANCH  11  27
ATOM     27  N   UNL     1      -7.560   7.028  74.224  0.00  0.00    -0.271 NA
ATOM     28  C   UNL     1      -6.340   7.171  73.521  0.00  0.00    +0.072 C 
ATOM     29  C   UNL     1      -5.754   8.542  73.603  0.00  0.00    +0.017 C 
ATOM     30  C   UNL     1      -5.724   9.104  74.985  0.00  0.00    +0.003 C 
ATOM     31  C   UNL     1      -6.470   8.353  76.014  0.00  0.00    +0.017 C 
ATOM     32  C   UNL     1      -7.534   7.442  75.585  0.00  0.00    +0.072 C 
ENDBRANCH  11  27
BRANCH   1  33
ATOM     33  O   UNL     1      -8.891  10.444  65.291  0.00  0.00    -0.446 OA
BRANCH  33  35
ATOM     34  C   UNL     1      -8.226   9.433  63.112  0.00  0.00    +0.121 C 
ATOM     35  C   UNL     1      -7.926  10.271  64.314  0.00  0.00    +0.318 C 
ATOM     36  O   UNL     1      -6.691  10.398  64.572  0.00  0.00    -0.250 OA
ENDBRANCH  33  35
ENDBRANCH   1  33
BRANCH  10  37
ATOM     37  O   UNL     1     -10.128   6.502  74.699  0.00  0.00    -0.451 OA
BRANCH  37  38
ATOM     38  C   UNL     1     -10.272   5.145  75.003  0.00  0.00    +0.317 C 
ATOM     39  O   UNL     1     -10.232   4.843  76.234  0.00  0.00    -0.250 OA
ATOM     40  C   UNL     1     -10.496   4.077  74.011  0.00  0.00    +0.121 C 
ENDBRANCH  37  38
ENDBRANCH  10  37
TORSDOF 6
ENDMDL
MODEL 5
REMARK VINA RESULT:      -6.2      2.101      9.253
REMARK  Name = 
REMARK  6 active torsions:
REMARK  status: ('A' for Active; 'I' for Inactive)
REMARK    1  A    between atoms: C_2  and  O_4
REMARK    2  A    between atoms: O_4  and  C_5
REMARK    3  A    between atoms: C_6  and  N_7
REMARK    4  A    between atoms: C_21  and  O_22
REMARK    5  A    between atoms: O_22  and  C_23
REMARK    6  A    between atoms: C_26  and  N_27
REMARK                            x       y       z     vdW  Elec       q    Type
REMARK                         _______ _______ _______ _____ _____    ______ ____
ROOT
ATOM      1  C   UNL     1      -8.409   5.670  69.547  0.00  0.00    +0.217 C 
ATOM      2  C   UNL     1      -8.282   7.242  69.162  0.00  0.00    +0.043 C 
ATOM      3  C   UNL     1      -9.702   7.680  69.784  0.00  0.00    +0.009 C 
ATOM      4  C   UNL     1      -9.318   9.310  69.856  0.00  0.00    +0.000 C 
ATOM      5  C   UNL     1     -10.022   9.380  68.321  0.00  0.00    +0.000 C 
ATOM      6  C   UNL     1      -8.589   9.035  67.633  0.00  0.00    +0.000 C 
ATOM      7  C   UNL     1     -10.007  10.993  68.233  0.00  0.00    +0.002 C 
ATOM      8  C   UNL     1     -11.561  11.088  68.738  0.00  0.00    +0.004 C 
ATOM      9  C   UNL     1     -11.624  12.693  68.941  0.00  0.00    +0.045 C 
ATOM     10  C   UNL     1     -10.795  13.341  67.711  0.00  0.00    +0.183 C 
ATOM     11  C   UNL     1     -11.398  12.213  66.575  0.00  0.00    +0.098 C 
ATOM     12  C   UNL     1     -11.186  10.910  70.315  0.00  0.00    +0.000 C 
ATOM     13  C   UNL     1      -9.124  11.657  69.112  0.00  0.00    +0.000 C 
ATOM     14  C   UNL     1     -10.041  11.332  66.780  0.00  0.00    +0.020 C 
ATOM     15  C   UNL     1     -10.723   9.572  70.587  0.00  0.00    +0.000 C 
ATOM     16  C   UNL     1      -9.102   7.269  71.240  0.00  0.00    +0.059 C 
ATOM     17  C   UNL     1      -7.188   7.920  69.810  0.00  0.00    +0.004 C 
ATOM     18  C   UNL     1      -8.505   7.505  67.744  0.00  0.00    +0.004 C 
ATOM     19  C   UNL     1      -9.751   5.908  70.596  0.00  0.00    +0.099 C 
ENDROOT
BRANCH  19  20
ATOM     20  N   UNL     1      -9.377   4.972  71.771  0.00  0.00    +0.300 N 
ATOM     21  C   UNL     1     -10.669   5.233  72.432  0.00  0.00    +0.109 C 
ATOM     22  C   UNL     1     -11.316   4.211  73.181  0.00  0.00    +0.061 C 
ATOM     23  C   UNL     1     -10.649   2.886  73.202  0.00  0.00    +0.012 C 
ATOM     24  C   UNL     1     -10.167   2.624  71.807  0.00  0.00    +0.061 C 
ATOM     25  C   UNL     1      -9.253   3.676  71.297  0.00  0.00    +0.109 C 
ATOM     26  C   UNL     1      -8.555   5.512  72.742  0.00  0.00    +0.170 C 
ENDBRANCH  19  20
BRANCH  11  27
ATOM     27  N   UNL     1     -10.821  13.038  65.386  0.00  0.00    -0.271 NA
ATOM     28  C   UNL     1     -10.005  12.208  64.583  0.00  0.00    +0.072 C 
ATOM     29  C   UNL     1     -10.742  11.086  63.929  0.00  0.00    +0.017 C 
ATOM     30  C   UNL     1     -12.014  11.502  63.269  0.00  0.00    +0.003 C 
ATOM     31  C   UNL     1     -12.475  12.877  63.545  0.00  0.00    +0.017 C 
ATOM     32  C   UNL     1     -11.984  13.555  64.748  0.00  0.00    +0.072 C 
ENDBRANCH  11  27
BRANCH   1  33
ATOM     33  O   UNL     1      -7.344   5.720  70.640  0.00  0.00    -0.446 OA
BRANCH  33  35
ATOM     34  C   UNL     1      -6.172   4.090  69.163  0.00  0.00    +0.121 C 
ATOM     35  C   UNL     1      -6.172   5.072  70.291  0.00  0.00    +0.318 C 
ATOM     36  O   UNL     1      -5.227   4.919  71.123  0.00  0.00    -0.250 OA
ENDBRANCH  33  35
ENDBRANCH   1  33
BRANCH  10  37
ATOM     37  O   UNL     1     -11.926  14.339  67.431  0.00  0.00    -0.451 OA
BRANCH  37  38
ATOM     38  C   UNL     1     -11.477  15.609  67.808  0.00  0.00    +0.317 C 
ATOM     39  O   UNL     1     -12.025  16.111  68.835  0.00  0.00    -0.250 OA
ATOM     40  C   UNL     1     -10.411  16.364  67.124  0.00  0.00    +0.121 C 
ENDBRANCH  37  38
ENDBRANCH  10  37
TORSDOF 6
ENDMDL
MODEL 6
REMARK VINA RESULT:      -6.2      1.073      9.520
REMARK  Name = 
REMARK  6 active torsions:
REMARK  status: ('A' for Active; 'I' for Inactive)
REMARK    1  A    between atoms: C_2  and  O_4
REMARK    2  A    between atoms: O_4  and  C_5
REMARK    3  A    between atoms: C_6  and  N_7
REMARK    4  A    between atoms: C_21  and  O_22
REMARK    5  A    between atoms: O_22  and  C_23
REMARK    6  A    between atoms: C_26  and  N_27
REMARK                            x       y       z     vdW  Elec       q    Type
REMARK                         _______ _______ _______ _____ _____    ______ ____
ROOT
ATOM      1  C   UNL     1      -9.062   6.931  72.843  0.00  0.00    +0.217 C 
ATOM      2  C   UNL     1      -9.874   7.530  71.571  0.00  0.00    +0.043 C 
ATOM      3  C   UNL     1      -8.572   7.837  70.673  0.00  0.00    +0.009 C 
ATOM      4  C   UNL     1      -9.425   7.938  69.234  0.00  0.00    +0.000 C 
ATOM      5  C   UNL     1      -9.511   9.588  69.587  0.00  0.00    +0.000 C 
ATOM      6  C   UNL     1     -10.884   9.351  70.426  0.00  0.00    +0.000 C 
ATOM      7  C   UNL     1     -10.116  10.007  68.148  0.00  0.00    +0.002 C 
ATOM      8  C   UNL     1      -8.634  10.403  67.579  0.00  0.00    +0.004 C 
ATOM      9  C   UNL     1      -9.049  10.619  66.029  0.00  0.00    +0.045 C 
ATOM     10  C   UNL     1     -10.488  11.359  66.041  0.00  0.00    +0.183 C 
ATOM     11  C   UNL     1     -10.076  12.364  67.362  0.00  0.00    +0.098 C 
ATOM     12  C   UNL     1      -8.218   8.862  67.247  0.00  0.00    +0.000 C 
ATOM     13  C   UNL     1     -10.712   8.971  67.397  0.00  0.00    +0.000 C 
ATOM     14  C   UNL     1     -10.822  11.306  68.355  0.00  0.00    +0.020 C 
ATOM     15  C   UNL     1      -8.028   8.106  68.460  0.00  0.00    +0.000 C 
ATOM     16  C   UNL     1      -8.315   6.230  70.641  0.00  0.00    +0.059 C 
ATOM     17  C   UNL     1     -10.748   6.581  70.931  0.00  0.00    +0.004 C 
ATOM     18  C   UNL     1     -10.380   8.880  71.799  0.00  0.00    +0.004 C 
ATOM     19  C   UNL     1      -7.575   6.798  71.989  0.00  0.00    +0.099 C 
ENDROOT
BRANCH  19  20
ATOM     20  N   UNL     1      -7.067   5.425  72.493  0.00  0.00    +0.300 N 
ATOM     21  C   UNL     1      -5.787   5.603  71.783  0.00  0.00    +0.109 C 
ATOM     22  C   UNL     1      -4.579   5.090  72.333  0.00  0.00    +0.061 C 
ATOM     23  C   UNL     1      -4.685   4.435  73.660  0.00  0.00    +0.012 C 
ATOM     24  C   UNL     1      -5.604   5.282  74.487  0.00  0.00    +0.061 C 
ATOM     25  C   UNL     1      -6.942   5.466  73.872  0.00  0.00    +0.109 C 
ATOM     26  C   UNL     1      -7.516   4.317  71.799  0.00  0.00    +0.170 C 
ENDBRANCH  19  20
BRANCH  11  27
ATOM     27  N   UNL     1     -11.348  13.238  67.149  0.00  0.00    -0.271 NA
ATOM     28  C   UNL     1     -12.073  13.327  68.361  0.00  0.00    +0.072 C 
ATOM     29  C   UNL     1     -11.332  14.017  69.458  0.00  0.00    +0.017 C 
ATOM     30  C   UNL     1     -10.692  15.299  69.041  0.00  0.00    +0.003 C 
ATOM     31  C   UNL     1     -10.677  15.583  67.593  0.00  0.00    +0.017 C 
ATOM     32  C   UNL     1     -10.826  14.466  66.656  0.00  0.00    +0.072 C 
ENDBRANCH  11  27
BRANCH   1  33
ATOM     33  O   UNL     1      -9.507   5.490  72.610  0.00  0.00    -0.446 OA
BRANCH  33  35
ATOM     34  C   UNL     1     -11.173   3.814  73.402  0.00  0.00    +0.121 C 
ATOM     35  C   UNL     1     -10.264   4.976  73.649  0.00  0.00    +0.318 C 
ATOM     36  O   UNL     1     -10.572   5.682  74.657  0.00  0.00    -0.250 OA
ENDBRANCH  33  35
ENDBRANCH   1  33
BRANCH  10  37
ATOM     37  O   UNL     1     -10.005  12.388  65.012  0.00  0.00    -0.451 OA
BRANCH  37  38
ATOM     38  C   UNL     1     -10.557  12.047  63.774  0.00  0.00    +0.317 C 
ATOM     39  O   UNL     1      -9.739  11.661  62.885  0.00  0.00    -0.250 OA
ATOM     40  C   UNL     1     -11.998  12.075  63.457  0.00  0.00    +0.121 C 
ENDBRANCH  37  38
ENDBRANCH  10  37
TORSDOF 6
ENDMDL
MODEL 7
REMARK VINA RESULT:      -6.1      4.218      7.913
REMARK  Name = 
REMARK  6 active torsions:
REMARK  status: ('A' for Active; 'I' for Inactive)
REMARK    1  A    between atoms: C_2  and  O_4
REMARK    2  A    between atoms: O_4  and  C_5
REMARK    3  A    between atoms: C_6  and  N_7
REMARK    4  A    between atoms: C_21  and  O_22
REMARK    5  A    between atoms: O_22  and  C_23
REMARK    6  A    between atoms: C_26  and  N_27
REMARK                            x       y       z     vdW  Elec       q    Type
REMARK                         _______ _______ _______ _____ _____    ______ ____
ROOT
ATOM      1  C   UNL     1      -8.474  18.349  66.779  0.00  0.00    +0.217 C 
ATOM      2  C   UNL     1      -9.146  16.888  67.002  0.00  0.00    +0.043 C 
ATOM      3  C   UNL     1      -7.783  16.142  67.428  0.00  0.00    +0.009 C 
ATOM      4  C   UNL     1      -8.562  14.841  68.142  0.00  0.00    +0.000 C 
ATOM      5  C   UNL     1      -8.420  14.126  66.617  0.00  0.00    +0.000 C 
ATOM      6  C   UNL     1      -9.842  14.775  66.165  0.00  0.00    +0.000 C 
ATOM      7  C   UNL     1      -8.909  12.664  67.103  0.00  0.00    +0.002 C 
ATOM      8  C   UNL     1      -7.367  12.146  67.275  0.00  0.00    +0.004 C 
ATOM      9  C   UNL     1      -7.692  10.739  68.006  0.00  0.00    +0.045 C 
ATOM     10  C   UNL     1      -9.008  10.141  67.280  0.00  0.00    +0.183 C 
ATOM     11  C   UNL     1      -8.501  10.638  65.724  0.00  0.00    +0.098 C 
ATOM     12  C   UNL     1      -7.166  12.851  68.732  0.00  0.00    +0.000 C 
ATOM     13  C   UNL     1      -9.622  12.617  68.320  0.00  0.00    +0.000 C 
ATOM     14  C   UNL     1      -9.426  11.971  65.885  0.00  0.00    +0.020 C 
ATOM     15  C   UNL     1      -7.130  14.286  68.610  0.00  0.00    +0.000 C 
ATOM     16  C   UNL     1      -7.760  17.105  68.740  0.00  0.00    +0.059 C 
ATOM     17  C   UNL     1     -10.126  16.845  68.057  0.00  0.00    +0.004 C 
ATOM     18  C   UNL     1      -9.459  16.205  65.752  0.00  0.00    +0.004 C 
ATOM     19  C   UNL     1      -6.993  17.922  67.543  0.00  0.00    +0.099 C 
ENDROOT
BRANCH  19  20
ATOM     20  N   UNL     1      -6.707  19.199  68.369  0.00  0.00    +0.300 N 
ATOM     21  C   UNL     1      -5.392  18.676  68.782  0.00  0.00    +0.109 C 
ATOM     22  C   UNL     1      -4.290  19.557  68.968  0.00  0.00    +0.061 C 
ATOM     23  C   UNL     1      -4.534  20.989  68.669  0.00  0.00    +0.012 C 
ATOM     24  C   UNL     1      -5.347  21.035  67.411  0.00  0.00    +0.061 C 
ATOM     25  C   UNL     1      -6.623  20.284  67.511  0.00  0.00    +0.109 C 
ATOM     26  C   UNL     1      -7.289  19.259  69.621  0.00  0.00    +0.170 C 
ENDBRANCH  19  20
BRANCH  11  27
ATOM     27  N   UNL     1      -9.625   9.800  65.043  0.00  0.00    -0.271 NA
ATOM     28  C   UNL     1     -10.508  10.662  64.351  0.00  0.00    +0.072 C 
ATOM     29  C   UNL     1      -9.868  11.404  63.224  0.00  0.00    +0.017 C 
ATOM     30  C   UNL     1      -9.039  10.544  62.330  0.00  0.00    +0.003 C 
ATOM     31  C   UNL     1      -8.778   9.169  62.800  0.00  0.00    +0.017 C 
ATOM     32  C   UNL     1      -8.905   8.880  64.231  0.00  0.00    +0.072 C 
ENDBRANCH  11  27
BRANCH   1  33
ATOM     33  O   UNL     1      -9.114  18.973  68.017  0.00  0.00    -0.446 OA
BRANCH  33  35
ATOM     34  C   UNL     1     -10.556  20.051  66.294  0.00  0.00    +0.121 C 
ATOM     35  C   UNL     1     -10.174  19.813  67.720  0.00  0.00    +0.318 C 
ATOM     36  O   UNL     1     -10.547  20.720  68.524  0.00  0.00    -0.250 OA
ENDBRANCH  33  35
ENDBRANCH   1  33
BRANCH  10  37
ATOM     37  O   UNL     1      -8.345   8.765  67.137  0.00  0.00    -0.451 OA
BRANCH  37  38
ATOM     38  C   UNL     1      -9.079   7.856  67.905  0.00  0.00    +0.317 C 
ATOM     39  O   UNL     1      -8.505   7.413  68.945  0.00  0.00    -0.250 OA
ATOM     40  C   UNL     1     -10.457   7.419  67.606  0.00  0.00    +0.121 C 
ENDBRANCH  37  38
ENDBRANCH  10  37
TORSDOF 6
ENDMDL
MODEL 8
REMARK VINA RESULT:      -6.1      2.685      9.162
REMARK  Name = 
REMARK  6 active torsions:
REMARK  status: ('A' for Active; 'I' for Inactive)
REMARK    1  A    between atoms: C_2  and  O_4
REMARK    2  A    between atoms: O_4  and  C_5
REMARK    3  A    between atoms: C_6  and  N_7
REMARK    4  A    between atoms: C_21  and  O_22
REMARK    5  A    between atoms: O_22  and  C_23
REMARK    6  A    between atoms: C_26  and  N_27
REMARK                            x       y       z     vdW  Elec       q    Type
REMARK                         _______ _______ _______ _____ _____    ______ ____
ROOT
ATOM      1  C   UNL     1      -7.893   5.513  68.010  0.00  0.00    +0.217 C 
ATOM      2  C   UNL     1      -7.884   7.133  67.894  0.00  0.00    +0.043 C 
ATOM      3  C   UNL     1      -9.223   7.368  68.759  0.00  0.00    +0.009 C 
ATOM      4  C   UNL     1      -8.899   8.984  69.066  0.00  0.00    +0.000 C 
ATOM      5  C   UNL     1      -9.809   9.266  67.669  0.00  0.00    +0.000 C 
ATOM      6  C   UNL     1      -8.470   9.134  66.754  0.00  0.00    +0.000 C 
ATOM      7  C   UNL     1      -9.872  10.869  67.865  0.00  0.00    +0.002 C 
ATOM      8  C   UNL     1     -11.344  10.778  68.573  0.00  0.00    +0.004 C 
ATOM      9  C   UNL     1     -11.445  12.319  69.060  0.00  0.00    +0.045 C 
ATOM     10  C   UNL     1     -10.819  13.216  67.867  0.00  0.00    +0.183 C 
ATOM     11  C   UNL     1     -11.526  12.259  66.638  0.00  0.00    +0.098 C 
ATOM     12  C   UNL     1     -10.750  10.361  70.033  0.00  0.00    +0.000 C 
ATOM     13  C   UNL     1      -8.905  11.430  68.727  0.00  0.00    +0.000 C 
ATOM     14  C   UNL     1     -10.118  11.445  66.510  0.00  0.00    +0.020 C 
ATOM     15  C   UNL     1     -10.201   9.029  70.005  0.00  0.00    +0.000 C 
ATOM     16  C   UNL     1      -8.412   6.757  70.031  0.00  0.00    +0.059 C 
ATOM     17  C   UNL     1      -6.741   7.760  68.506  0.00  0.00    +0.004 C 
ATOM     18  C   UNL     1      -8.309   7.615  66.584  0.00  0.00    +0.004 C 
ATOM     19  C   UNL     1      -9.087   5.485  69.247  0.00  0.00    +0.099 C 
ENDROOT
BRANCH  19  20
ATOM     20  N   UNL     1      -8.518   4.390  70.183  0.00  0.00    +0.300 N 
ATOM     21  C   UNL     1      -9.684   4.503  71.077  0.00  0.00    +0.109 C 
ATOM     22  C   UNL     1     -10.192   3.357  71.750  0.00  0.00    +0.061 C 
ATOM     23  C   UNL     1      -9.523   2.068  71.451  0.00  0.00    +0.012 C 
ATOM     24  C   UNL     1      -9.276   2.041  69.974  0.00  0.00    +0.061 C 
ATOM     25  C   UNL     1      -8.466   3.189  69.495  0.00  0.00    +0.109 C 
ATOM     26  C   UNL     1      -7.550   4.799  71.080  0.00  0.00    +0.170 C 
ENDBRANCH  19  20
BRANCH  11  27
ATOM     27  N   UNL     1     -11.151  13.307  65.548  0.00  0.00    -0.271 NA
ATOM     28  C   UNL     1     -10.218  12.744  64.646  0.00  0.00    +0.072 C 
ATOM     29  C   UNL     1     -10.750  11.583  63.873  0.00  0.00    +0.017 C 
ATOM     30  C   UNL     1     -12.097  11.821  63.277  0.00  0.00    +0.003 C 
ATOM     31  C   UNL     1     -12.801  13.042  63.716  0.00  0.00    +0.017 C 
ATOM     32  C   UNL     1     -12.409  13.661  64.985  0.00  0.00    +0.072 C 
ENDBRANCH  11  27
BRANCH   1  33
ATOM     33  O   UNL     1      -6.692   5.447  68.950  0.00  0.00    -0.446 OA
BRANCH  33  35
ATOM     34  C   UNL     1      -5.659   3.940  67.254  0.00  0.00    +0.121 C 
ATOM     35  C   UNL     1      -5.547   4.961  68.341  0.00  0.00    +0.318 C 
ATOM     36  O   UNL     1      -4.423   4.985  68.928  0.00  0.00    -0.250 OA
ENDBRANCH  33  35
ENDBRANCH   1  33
BRANCH  10  37
ATOM     37  O   UNL     1     -12.017  14.172  67.913  0.00  0.00    -0.451 OA
BRANCH  37  38
ATOM     38  C   UNL     1     -11.549  15.424  68.326  0.00  0.00    +0.317 C 
ATOM     39  O   UNL     1     -12.148  15.946  69.313  0.00  0.00    -0.250 OA
ATOM     40  C   UNL     1     -10.409  16.138  67.720  0.00  0.00    +0.121 C 
ENDBRANCH  37  38
ENDBRANCH  10  37
TORSDOF 6
ENDMDL
MODEL 9
REMARK VINA RESULT:      -6.0      1.101      1.268
REMARK  Name = 
REMARK  6 active torsions:
REMARK  status: ('A' for Active; 'I' for Inactive)
REMARK    1  A    between atoms: C_2  and  O_4
REMARK    2  A    between atoms: O_4  and  C_5
REMARK    3  A    between atoms: C_6  and  N_7
REMARK    4  A    between atoms: C_21  and  O_22
REMARK    5  A    between atoms: O_22  and  C_23
REMARK    6  A    between atoms: C_26  and  N_27
REMARK                            x       y       z     vdW  Elec       q    Type
REMARK                         _______ _______ _______ _____ _____    ______ ____
ROOT
ATOM      1  C   UNL     1      -9.187  11.384  67.378  0.00  0.00    +0.217 C 
ATOM      2  C   UNL     1      -9.423   9.891  67.971  0.00  0.00    +0.043 C 
ATOM      3  C   UNL     1      -9.947  10.368  69.417  0.00  0.00    +0.009 C 
ATOM      4  C   UNL     1     -10.661   8.898  69.790  0.00  0.00    +0.000 C 
ATOM      5  C   UNL     1      -9.171   8.537  70.502  0.00  0.00    +0.000 C 
ATOM      6  C   UNL     1      -8.621   7.952  69.087  0.00  0.00    +0.000 C 
ATOM      7  C   UNL     1      -9.678   7.173  71.205  0.00  0.00    +0.002 C 
ATOM      8  C   UNL     1      -9.952   7.941  72.623  0.00  0.00    +0.004 C 
ATOM      9  C   UNL     1     -10.712   6.730  73.382  0.00  0.00    +0.045 C 
ATOM     10  C   UNL     1      -9.935   5.373  72.965  0.00  0.00    +0.183 C 
ATOM     11  C   UNL     1      -8.393   6.108  73.045  0.00  0.00    +0.098 C 
ATOM     12  C   UNL     1     -11.393   8.545  72.156  0.00  0.00    +0.000 C 
ATOM     13  C   UNL     1     -10.856   6.601  70.677  0.00  0.00    +0.000 C 
ATOM     14  C   UNL     1      -8.459   6.342  71.432  0.00  0.00    +0.020 C 
ATOM     15  C   UNL     1     -11.225   9.556  71.142  0.00  0.00    +0.000 C 
ATOM     16  C   UNL     1     -11.225  11.021  68.650  0.00  0.00    +0.059 C 
ATOM     17  C   UNL     1     -10.424   9.130  67.268  0.00  0.00    +0.004 C 
ATOM     18  C   UNL     1      -8.181   9.216  68.332  0.00  0.00    +0.004 C 
ATOM     19  C   UNL     1     -10.044  12.159  68.652  0.00  0.00    +0.099 C 
ENDROOT
BRANCH  19  20
ATOM     20  N   UNL     1     -10.841  13.228  67.865  0.00  0.00    +0.300 N 
ATOM     21  C   UNL     1     -11.393  13.783  69.114  0.00  0.00    +0.109 C 
ATOM     22  C   UNL     1     -11.643  15.178  69.236  0.00  0.00    +0.061 C 
ATOM     23  C   UNL     1     -11.265  16.019  68.075  0.00  0.00    +0.012 C 
ATOM     24  C   UNL     1      -9.938  15.519  67.593  0.00  0.00    +0.061 C 
ATOM     25  C   UNL     1      -9.951  14.080  67.230  0.00  0.00    +0.109 C 
ATOM     26  C   UNL     1     -12.031  12.809  67.301  0.00  0.00    +0.170 C 
ENDBRANCH  19  20
BRANCH  11  27
ATOM     27  N   UNL     1      -7.681   4.726  72.930  0.00  0.00    -0.271 NA
ATOM     28  C   UNL     1      -6.900   4.689  71.752  0.00  0.00    +0.072 C 
ATOM     29  C   UNL     1      -5.784   5.681  71.736  0.00  0.00    +0.017 C 
ATOM     30  C   UNL     1      -4.980   5.705  72.993  0.00  0.00    +0.003 C 
ATOM     31  C   UNL     1      -5.523   4.941  74.133  0.00  0.00    +0.017 C 
ATOM     32  C   UNL     1      -6.955   4.628  74.150  0.00  0.00    +0.072 C 
ENDBRANCH  11  27
BRANCH   1  33
ATOM     33  O   UNL     1     -10.366  11.323  66.410  0.00  0.00    -0.446 OA
BRANCH  33  35
ATOM     34  C   UNL     1     -11.019  11.270  64.005  0.00  0.00    +0.121 C 
ATOM     35  C   UNL     1      -9.981  11.261  65.082  0.00  0.00    +0.318 C 
ATOM     36  O   UNL     1      -8.869  10.759  64.737  0.00  0.00    -0.250 OA
ENDBRANCH  33  35
ENDBRANCH   1  33
BRANCH  10  37
ATOM     37  O   UNL     1      -9.875   4.917  74.429  0.00  0.00    -0.451 OA
BRANCH  37  38
ATOM     38  C   UNL     1     -10.435   3.638  74.501  0.00  0.00    +0.317 C 
ATOM     39  O   UNL     1     -11.401   3.407  73.714  0.00  0.00    -0.250 OA
ATOM     40  C   UNL     1      -9.961   2.559  75.389  0.00  0.00    +0.121 C 
ENDBRANCH  37  38
ENDBRANCH  10  37
TORSDOF 6
ENDMDL
