MODEL 1
REMARK VINA RESULT:      -7.0      0.000      0.000
REMARK  Name = 
REMARK  6 active torsions:
REMARK  status: ('A' for Active; 'I' for Inactive)
REMARK    1  A    between atoms: C_5  and  C_6
REMARK    2  A    between atoms: C_6  and  O_7
REMARK    3  A    between atoms: O_7  and  C_8
REMARK    4  A    between atoms: C_8  and  C_9
REMARK    5  A    between atoms: C_8  and  C_15
REMARK    6  A    between atoms: C_9  and  N_10
REMARK                            x       y       z     vdW  Elec       q    Type
REMARK                         _______ _______ _______ _____ _____    ______ ____
ROOT
ATOM      1  C   UNL     1     -10.838  12.612  67.014  0.00  0.00    +0.161 C 
ENDROOT
BRANCH   1   2
ATOM      2  C   UNL     1     -11.282  11.562  65.839  0.00  0.00    +0.017 A 
ATOM      3  C   UNL     1     -10.258  10.628  65.736  0.00  0.00    +0.057 A 
ATOM      4 CL   UNL     1      -9.924   9.692  67.189  0.00  0.00    -0.082 Cl
ATOM      5  C   UNL     1      -9.837  10.136  64.515  0.00  0.00    +0.023 A 
ATOM      6  C   UNL     1     -10.077  10.869  63.373  0.00  0.00    +0.058 A 
ATOM      7 CL   UNL     1      -8.896  10.957  62.080  0.00  0.00    -0.082 Cl
ATOM      8  C   UNL     1     -11.092  11.813  63.435  0.00  0.00    +0.011 A 
ATOM      9  C   UNL     1     -11.621  12.211  64.657  0.00  0.00    -0.000 A 
ENDBRANCH   1   2
BRANCH   1  10
ATOM     10  O   UNL     1     -12.098  12.310  67.835  0.00  0.00    -0.345 OA
BRANCH  10  11
ATOM     11  C   UNL     1     -11.504  12.135  69.075  0.00  0.00    +0.170 C 
BRANCH  11  17
ATOM     12 CL   UNL     1     -13.976  15.939  72.908  0.00  0.00    -0.082 Cl
ATOM     13  C   UNL     1     -13.335  14.874  71.694  0.00  0.00    +0.058 A 
ATOM     14  C   UNL     1     -13.367  13.511  71.944  0.00  0.00    +0.023 A 
ATOM     15  C   UNL     1     -12.651  12.659  71.152  0.00  0.00    +0.057 A 
ATOM     16 CL   UNL     1     -12.939  10.942  71.338  0.00  0.00    -0.082 Cl
ATOM     17  C   UNL     1     -11.911  13.143  70.079  0.00  0.00    +0.018 A 
ATOM     18  C   UNL     1     -11.983  14.482  69.805  0.00  0.00    -0.000 A 
ATOM     19  C   UNL     1     -12.780  15.361  70.520  0.00  0.00    +0.011 A 
ENDBRANCH  11  17
ENDBRANCH  10  11
ENDBRANCH   1  10
BRANCH   1  20
ATOM     20  C   UNL     1     -11.586  13.882  66.237  0.00  0.00    +0.142 C 
BRANCH  20  21
ATOM     21  N   UNL     1     -10.538  14.900  66.284  0.00  0.00    -0.305 N 
ATOM     22  C   UNL     1     -10.448  15.975  65.483  0.00  0.00    +0.179 A 
ATOM     23  N   UNL     1      -9.289  16.616  65.769  0.00  0.00    -0.222 NA
ATOM     24  C   UNL     1      -8.552  15.844  66.584  0.00  0.00    +0.119 A 
ATOM     25  C   UNL     1      -9.306  14.701  66.786  0.00  0.00    +0.098 A 
ENDBRANCH  20  21
ENDBRANCH   1  20
TORSDOF 6
ENDMDL
MODEL 2
REMARK VINA RESULT:      -6.9      2.758      5.273
REMARK  Name = 
REMARK  6 active torsions:
REMARK  status: ('A' for Active; 'I' for Inactive)
REMARK    1  A    between atoms: C_5  and  C_6
REMARK    2  A    between atoms: C_6  and  O_7
REMARK    3  A    between atoms: O_7  and  C_8
REMARK    4  A    between atoms: C_8  and  C_9
REMARK    5  A    between atoms: C_8  and  C_15
REMARK    6  A    between atoms: C_9  and  N_10
REMARK                            x       y       z     vdW  Elec       q    Type
REMARK                         _______ _______ _______ _____ _____    ______ ____
ROOT
ATOM      1  C   UNL     1     -11.064  14.303  67.119  0.00  0.00    +0.161 C 
ENDROOT
BRANCH   1   2
ATOM      2  C   UNL     1     -10.049  15.484  67.624  0.00  0.00    +0.017 A 
ATOM      3  C   UNL     1     -10.844  16.472  68.193  0.00  0.00    +0.057 A 
ATOM      4 CL   UNL     1     -11.812  15.973  69.577  0.00  0.00    -0.082 Cl
ATOM      5  C   UNL     1     -10.582  17.816  68.013  0.00  0.00    +0.023 A 
ATOM      6  C   UNL     1      -9.841  18.219  66.923  0.00  0.00    +0.058 A 
ATOM      7 CL   UNL     1     -10.228  19.689  66.049  0.00  0.00    -0.082 Cl
ATOM      8  C   UNL     1      -9.034  17.262  66.325  0.00  0.00    +0.011 A 
ATOM      9  C   UNL     1      -9.198  15.912  66.610  0.00  0.00    -0.000 A 
ENDBRANCH   1   2
BRANCH   1  10
ATOM     10  O   UNL     1     -10.507  13.310  68.148  0.00  0.00    -0.345 OA
BRANCH  10  11
ATOM     11  C   UNL     1     -11.634  12.522  68.312  0.00  0.00    +0.170 C 
BRANCH  11  17
ATOM     12 CL   UNL     1     -11.816   8.261  72.446  0.00  0.00    -0.082 Cl
ATOM     13  C   UNL     1     -11.895   9.500  71.230  0.00  0.00    +0.058 A 
ATOM     14  C   UNL     1     -11.177   9.308  70.060  0.00  0.00    +0.023 A 
ATOM     15  C   UNL     1     -10.997  10.350  69.196  0.00  0.00    +0.057 A 
ATOM     16 CL   UNL     1     -10.323   9.991  67.620  0.00  0.00    -0.082 Cl
ATOM     17  C   UNL     1     -11.552  11.596  69.464  0.00  0.00    +0.018 A 
ATOM     18  C   UNL     1     -12.337  11.720  70.579  0.00  0.00    -0.000 A 
ATOM     19  C   UNL     1     -12.628  10.661  71.423  0.00  0.00    +0.011 A 
ENDBRANCH  11  17
ENDBRANCH  10  11
ENDBRANCH   1  10
BRANCH   1  20
ATOM     20  C   UNL     1      -9.980  13.791  65.961  0.00  0.00    +0.142 C 
BRANCH  20  21
ATOM     21  N   UNL     1     -10.883  13.384  64.886  0.00  0.00    -0.305 N 
ATOM     22  C   UNL     1     -11.979  14.049  64.483  0.00  0.00    +0.179 A 
ATOM     23  N   UNL     1     -12.600  13.302  63.540  0.00  0.00    -0.222 NA
ATOM     24  C   UNL     1     -12.031  12.087  63.499  0.00  0.00    +0.119 A 
ATOM     25  C   UNL     1     -11.034  12.118  64.458  0.00  0.00    +0.098 A 
ENDBRANCH  20  21
ENDBRANCH   1  20
TORSDOF 6
ENDMDL
MODEL 3
REMARK VINA RESULT:      -6.6      3.040      6.521
REMARK  Name = 
REMARK  6 active torsions:
REMARK  status: ('A' for Active; 'I' for Inactive)
REMARK    1  A    between atoms: C_5  and  C_6
REMARK    2  A    between atoms: C_6  and  O_7
REMARK    3  A    between atoms: O_7  and  C_8
REMARK    4  A    between atoms: C_8  and  C_9
REMARK    5  A    between atoms: C_8  and  C_15
REMARK    6  A    between atoms: C_9  and  N_10
REMARK                            x       y       z     vdW  Elec       q    Type
REMARK                         _______ _______ _______ _____ _____    ______ ____
ROOT
ATOM      1  C   UNL     1     -11.002  14.657  69.444  0.00  0.00    +0.161 C 
ENDROOT
BRANCH   1   2
ATOM      2  C   UNL     1     -10.476  15.612  68.222  0.00  0.00    +0.017 A 
ATOM      3  C   UNL     1      -9.093  15.480  68.185  0.00  0.00    +0.057 A 
ATOM      4 CL   UNL     1      -8.486  13.853  67.888  0.00  0.00    -0.082 Cl
ATOM      5  C   UNL     1      -8.261  16.556  67.940  0.00  0.00    +0.023 A 
ATOM      6  C   UNL     1      -8.719  17.832  68.186  0.00  0.00    +0.058 A 
ATOM      7 CL   UNL     1      -7.671  19.064  68.862  0.00  0.00    -0.082 Cl
ATOM      8  C   UNL     1     -10.095  18.006  68.233  0.00  0.00    +0.011 A 
ATOM      9  C   UNL     1     -10.948  16.915  68.336  0.00  0.00    -0.000 A 
ENDBRANCH   1   2
BRANCH   1  10
ATOM     10  O   UNL     1     -12.115  14.063  68.571  0.00  0.00    -0.345 OA
BRANCH  10  11
ATOM     11  C   UNL     1     -11.767  12.725  68.667  0.00  0.00    +0.170 C 
BRANCH  11  17
ATOM     12 CL   UNL     1      -9.903  10.351  63.551  0.00  0.00    -0.082 Cl
ATOM     13  C   UNL     1     -10.383  11.157  65.014  0.00  0.00    +0.058 A 
ATOM     14  C   UNL     1     -10.060  10.556  66.221  0.00  0.00    +0.023 A 
ATOM     15  C   UNL     1     -10.633  11.006  67.377  0.00  0.00    +0.057 A 
ATOM     16 CL   UNL     1      -9.992  10.400  68.889  0.00  0.00    -0.082 Cl
ATOM     17  C   UNL     1     -11.516  12.080  67.358  0.00  0.00    +0.018 A 
ATOM     18  C   UNL     1     -11.733  12.708  66.162  0.00  0.00    -0.000 A 
ATOM     19  C   UNL     1     -11.092  12.348  64.989  0.00  0.00    +0.011 A 
ENDBRANCH  11  17
ENDBRANCH  10  11
ENDBRANCH   1  10
BRANCH   1  20
ATOM     20  C   UNL     1     -12.014  15.850  70.015  0.00  0.00    +0.142 C 
BRANCH  20  21
ATOM     21  N   UNL     1     -12.321  15.347  71.352  0.00  0.00    -0.305 N 
ATOM     22  C   UNL     1     -13.318  14.504  71.667  0.00  0.00    +0.179 A 
ATOM     23  N   UNL     1     -13.336  14.360  73.014  0.00  0.00    -0.222 NA
ATOM     24  C   UNL     1     -12.506  15.261  73.562  0.00  0.00    +0.119 A 
ATOM     25  C   UNL     1     -11.978  15.967  72.496  0.00  0.00    +0.098 A 
ENDBRANCH  20  21
ENDBRANCH   1  20
TORSDOF 6
ENDMDL
MODEL 4
REMARK VINA RESULT:      -6.6      1.398      2.033
REMARK  Name = 
REMARK  6 active torsions:
REMARK  status: ('A' for Active; 'I' for Inactive)
REMARK    1  A    between atoms: C_5  and  C_6
REMARK    2  A    between atoms: C_6  and  O_7
REMARK    3  A    between atoms: O_7  and  C_8
REMARK    4  A    between atoms: C_8  and  C_9
REMARK    5  A    between atoms: C_8  and  C_15
REMARK    6  A    between atoms: C_9  and  N_10
REMARK                            x       y       z     vdW  Elec       q    Type
REMARK                         _______ _______ _______ _____ _____    ______ ____
ROOT
ATOM      1  C   UNL     1     -10.848  13.179  67.904  0.00  0.00    +0.161 C 
ENDROOT
BRANCH   1   2
ATOM      2  C   UNL     1     -11.422  12.033  66.886  0.00  0.00    +0.017 A 
ATOM      3  C   UNL     1     -10.379  11.141  66.667  0.00  0.00    +0.057 A 
ATOM      4 CL   UNL     1      -9.759  10.321  68.097  0.00  0.00    -0.082 Cl
ATOM      5  C   UNL     1     -10.139  10.586  65.425  0.00  0.00    +0.023 A 
ATOM      6  C   UNL     1     -10.603  11.228  64.298  0.00  0.00    +0.058 A 
ATOM      7 CL   UNL     1      -9.659  11.280  62.822  0.00  0.00    -0.082 Cl
ATOM      8  C   UNL     1     -11.645  12.128  64.474  0.00  0.00    +0.011 A 
ATOM      9  C   UNL     1     -11.986  12.585  65.741  0.00  0.00    -0.000 A 
ENDBRANCH   1   2
BRANCH   1  10
ATOM     10  O   UNL     1     -12.064  13.042  68.830  0.00  0.00    -0.345 OA
BRANCH  10  11
ATOM     11  C   UNL     1     -12.355  14.386  68.997  0.00  0.00    +0.170 C 
BRANCH  11  17
ATOM     12 CL   UNL     1     -12.493  15.756  74.775  0.00  0.00    -0.082 Cl
ATOM     13  C   UNL     1     -12.394  15.241  73.118  0.00  0.00    +0.058 A 
ATOM     14  C   UNL     1     -11.733  16.065  72.221  0.00  0.00    +0.023 A 
ATOM     15  C   UNL     1     -11.850  15.839  70.879  0.00  0.00    +0.057 A 
ATOM     16 CL   UNL     1     -10.789  16.730  69.810  0.00  0.00    -0.082 Cl
ATOM     17  C   UNL     1     -12.605  14.772  70.405  0.00  0.00    +0.018 A 
ATOM     18  C   UNL     1     -13.162  13.924  71.323  0.00  0.00    -0.000 A 
ATOM     19  C   UNL     1     -12.978  14.059  72.689  0.00  0.00    +0.011 A 
ENDBRANCH  11  17
ENDBRANCH  10  11
ENDBRANCH   1  10
BRANCH   1  20
ATOM     20  C   UNL     1     -11.582  14.397  67.035  0.00  0.00    +0.142 C 
BRANCH  20  21
ATOM     21  N   UNL     1     -10.440  15.254  66.726  0.00  0.00    -0.305 N 
ATOM     22  C   UNL     1     -10.402  16.205  65.778  0.00  0.00    +0.179 A 
ATOM     23  N   UNL     1      -9.143  16.703  65.733  0.00  0.00    -0.222 NA
ATOM     24  C   UNL     1      -8.341  15.934  66.486  0.00  0.00    +0.119 A 
ATOM     25  C   UNL     1      -9.159  14.941  66.995  0.00  0.00    +0.098 A 
ENDBRANCH  20  21
ENDBRANCH   1  20
TORSDOF 6
ENDMDL
MODEL 5
REMARK VINA RESULT:      -6.5      2.877      6.051
REMARK  Name = 
REMARK  6 active torsions:
REMARK  status: ('A' for Active; 'I' for Inactive)
REMARK    1  A    between atoms: C_5  and  C_6
REMARK    2  A    between atoms: C_6  and  O_7
REMARK    3  A    between atoms: O_7  and  C_8
REMARK    4  A    between atoms: C_8  and  C_9
REMARK    5  A    between atoms: C_8  and  C_15
REMARK    6  A    between atoms: C_9  and  N_10
REMARK                            x       y       z     vdW  Elec       q    Type
REMARK                         _______ _______ _______ _____ _____    ______ ____
ROOT
ATOM      1  C   UNL     1     -10.760  14.074  67.093  0.00  0.00    +0.161 C 
ENDROOT
BRANCH   1   2
ATOM      2  C   UNL     1      -9.737  15.269  67.548  0.00  0.00    +0.017 A 
ATOM      3  C   UNL     1     -10.402  16.012  68.516  0.00  0.00    +0.057 A 
ATOM      4 CL   UNL     1     -10.873  15.132  69.967  0.00  0.00    -0.082 Cl
ATOM      5  C   UNL     1     -10.311  17.389  68.572  0.00  0.00    +0.023 A 
ATOM      6  C   UNL     1      -9.961  18.089  67.438  0.00  0.00    +0.058 A 
ATOM      7 CL   UNL     1     -10.704  19.629  67.049  0.00  0.00    -0.082 Cl
ATOM      8  C   UNL     1      -9.296  17.382  66.446  0.00  0.00    +0.011 A 
ATOM      9  C   UNL     1      -9.262  15.994  66.460  0.00  0.00    -0.000 A 
ENDBRANCH   1   2
BRANCH   1  10
ATOM     10  O   UNL     1      -9.733  12.988  67.441  0.00  0.00    -0.345 OA
BRANCH  10  11
ATOM     11  C   UNL     1     -10.536  12.186  68.236  0.00  0.00    +0.170 C 
BRANCH  11  17
ATOM     12 CL   UNL     1     -10.353   6.450  66.706  0.00  0.00    -0.082 Cl
ATOM     13  C   UNL     1     -10.279   8.137  67.117  0.00  0.00    +0.058 A 
ATOM     14  C   UNL     1     -10.610   8.504  68.413  0.00  0.00    +0.023 A 
ATOM     15  C   UNL     1     -10.818   9.820  68.712  0.00  0.00    +0.057 A 
ATOM     16 CL   UNL     1     -10.964  10.255  70.402  0.00  0.00    -0.082 Cl
ATOM     17  C   UNL     1     -10.674  10.799  67.736  0.00  0.00    +0.018 A 
ATOM     18  C   UNL     1     -10.251  10.408  66.495  0.00  0.00    -0.000 A 
ATOM     19  C   UNL     1      -9.929   9.098  66.182  0.00  0.00    +0.011 A 
ENDBRANCH  11  17
ENDBRANCH  10  11
ENDBRANCH   1  10
BRANCH   1  20
ATOM     20  C   UNL     1     -10.229  14.145  65.515  0.00  0.00    +0.142 C 
BRANCH  20  21
ATOM     21  N   UNL     1     -11.312  13.452  64.820  0.00  0.00    -0.305 N 
ATOM     22  C   UNL     1     -12.527  13.180  65.325  0.00  0.00    +0.179 A 
ATOM     23  N   UNL     1     -13.204  12.441  64.414  0.00  0.00    -0.222 NA
ATOM     24  C   UNL     1     -12.360  12.066  63.441  0.00  0.00    +0.119 A 
ATOM     25  C   UNL     1     -11.135  12.604  63.790  0.00  0.00    +0.098 A 
ENDBRANCH  20  21
ENDBRANCH   1  20
TORSDOF 6
ENDMDL
MODEL 6
REMARK VINA RESULT:      -6.4      3.585      5.970
REMARK  Name = 
REMARK  6 active torsions:
REMARK  status: ('A' for Active; 'I' for Inactive)
REMARK    1  A    between atoms: C_5  and  C_6
REMARK    2  A    between atoms: C_6  and  O_7
REMARK    3  A    between atoms: O_7  and  C_8
REMARK    4  A    between atoms: C_8  and  C_9
REMARK    5  A    between atoms: C_8  and  C_15
REMARK    6  A    between atoms: C_9  and  N_10
REMARK                            x       y       z     vdW  Elec       q    Type
REMARK                         _______ _______ _______ _____ _____    ______ ____
ROOT
ATOM      1  C   UNL     1     -11.013  14.567  69.530  0.00  0.00    +0.161 C 
ENDROOT
BRANCH   1   2
ATOM      2  C   UNL     1     -10.398  15.422  68.275  0.00  0.00    +0.017 A 
ATOM      3  C   UNL     1      -9.022  15.466  68.465  0.00  0.00    +0.057 A 
ATOM      4 CL   UNL     1      -8.202  13.908  68.501  0.00  0.00    -0.082 Cl
ATOM      5  C   UNL     1      -8.283  16.601  68.194  0.00  0.00    +0.023 A 
ATOM      6  C   UNL     1      -8.910  17.828  68.181  0.00  0.00    +0.058 A 
ATOM      7 CL   UNL     1      -8.128  19.261  68.820  0.00  0.00    -0.082 Cl
ATOM      8  C   UNL     1     -10.285  17.827  67.995  0.00  0.00    +0.011 A 
ATOM      9  C   UNL     1     -11.021  16.656  68.127  0.00  0.00    -0.000 A 
ENDBRANCH   1   2
BRANCH   1  10
ATOM     10  O   UNL     1     -12.166  14.033  68.671  0.00  0.00    -0.345 OA
BRANCH  10  11
ATOM     11  C   UNL     1     -11.619  12.809  68.321  0.00  0.00    +0.170 C 
BRANCH  11  17
ATOM     12 CL   UNL     1     -11.330   8.424  72.316  0.00  0.00    -0.082 Cl
ATOM     13  C   UNL     1     -11.538   9.667  71.120  0.00  0.00    +0.058 A 
ATOM     14  C   UNL     1     -10.633   9.717  70.072  0.00  0.00    +0.023 A 
ATOM     15  C   UNL     1     -10.596  10.815  69.260  0.00  0.00    +0.057 A 
ATOM     16 CL   UNL     1      -9.633  10.713  67.801  0.00  0.00    -0.082 Cl
ATOM     17  C   UNL     1     -11.476  11.873  69.458  0.00  0.00    +0.018 A 
ATOM     18  C   UNL     1     -12.419  11.744  70.442  0.00  0.00    -0.000 A 
ATOM     19  C   UNL     1     -12.556  10.604  71.216  0.00  0.00    +0.011 A 
ENDBRANCH  11  17
ENDBRANCH  10  11
ENDBRANCH   1  10
BRANCH   1  20
ATOM     20  C   UNL     1     -11.925  15.866  70.039  0.00  0.00    +0.142 C 
BRANCH  20  21
ATOM     21  N   UNL     1     -12.440  15.370  71.313  0.00  0.00    -0.305 N 
ATOM     22  C   UNL     1     -13.713  15.024  71.568  0.00  0.00    +0.179 A 
ATOM     23  N   UNL     1     -13.809  14.715  72.883  0.00  0.00    -0.222 NA
ATOM     24  C   UNL     1     -12.670  15.066  73.499  0.00  0.00    +0.119 A 
ATOM     25  C   UNL     1     -11.868  15.605  72.508  0.00  0.00    +0.098 A 
ENDBRANCH  20  21
ENDBRANCH   1  20
TORSDOF 6
ENDMDL
MODEL 7
REMARK VINA RESULT:      -6.3      3.585      6.773
REMARK  Name = 
REMARK  6 active torsions:
REMARK  status: ('A' for Active; 'I' for Inactive)
REMARK    1  A    between atoms: C_5  and  C_6
REMARK    2  A    between atoms: C_6  and  O_7
REMARK    3  A    between atoms: O_7  and  C_8
REMARK    4  A    between atoms: C_8  and  C_9
REMARK    5  A    between atoms: C_8  and  C_15
REMARK    6  A    between atoms: C_9  and  N_10
REMARK                            x       y       z     vdW  Elec       q    Type
REMARK                         _______ _______ _______ _____ _____    ______ ____
ROOT
ATOM      1  C   UNL     1     -10.459  14.857  67.429  0.00  0.00    +0.161 C 
ENDROOT
BRANCH   1   2
ATOM      2  C   UNL     1     -10.543  14.716  69.059  0.00  0.00    +0.017 A 
ATOM      3  C   UNL     1     -11.279  13.566  69.318  0.00  0.00    +0.057 A 
ATOM      4 CL   UNL     1     -10.606  12.066  68.687  0.00  0.00    -0.082 Cl
ATOM      5  C   UNL     1     -12.199  13.502  70.347  0.00  0.00    +0.023 A 
ATOM      6  C   UNL     1     -12.746  14.669  70.836  0.00  0.00    +0.058 A 
ATOM      7 CL   UNL     1     -14.431  14.758  71.311  0.00  0.00    -0.082 Cl
ATOM      8  C   UNL     1     -12.041  15.840  70.598  0.00  0.00    +0.011 A 
ATOM      9  C   UNL     1     -11.016  15.877  69.661  0.00  0.00    -0.000 A 
ENDBRANCH   1   2
BRANCH   1  10
ATOM     10  O   UNL     1     -10.798  16.353  67.488  0.00  0.00    -0.345 OA
BRANCH  10  11
ATOM     11  C   UNL     1      -9.846  16.819  66.596  0.00  0.00    +0.170 C 
BRANCH  11  17
ATOM     12 CL   UNL     1      -5.938  21.033  68.096  0.00  0.00    -0.082 Cl
ATOM     13  C   UNL     1      -6.989  19.751  67.576  0.00  0.00    +0.058 A 
ATOM     14  C   UNL     1      -8.215  20.098  67.030  0.00  0.00    +0.023 A 
ATOM     15  C   UNL     1      -9.172  19.140  66.848  0.00  0.00    +0.057 A 
ATOM     16 CL   UNL     1     -10.587  19.574  65.913  0.00  0.00    -0.082 Cl
ATOM     17  C   UNL     1      -8.918  17.814  67.181  0.00  0.00    +0.018 A 
ATOM     18  C   UNL     1      -7.664  17.495  67.625  0.00  0.00    -0.000 A 
ATOM     19  C   UNL     1      -6.636  18.418  67.723  0.00  0.00    +0.011 A 
ENDBRANCH  11  17
ENDBRANCH  10  11
ENDBRANCH   1  10
BRANCH   1  20
ATOM     20  C   UNL     1     -12.064  14.446  67.256  0.00  0.00    +0.142 C 
BRANCH  20  21
ATOM     21  N   UNL     1     -12.085  13.959  65.878  0.00  0.00    -0.305 N 
ATOM     22  C   UNL     1     -12.416  14.678  64.793  0.00  0.00    +0.179 A 
ATOM     23  N   UNL     1     -12.413  13.847  63.722  0.00  0.00    -0.222 NA
ATOM     24  C   UNL     1     -12.295  12.581  64.151  0.00  0.00    +0.119 A 
ATOM     25  C   UNL     1     -12.227  12.667  65.531  0.00  0.00    +0.098 A 
ENDBRANCH  20  21
ENDBRANCH   1  20
TORSDOF 6
ENDMDL
MODEL 8
REMARK VINA RESULT:      -6.3      2.810      5.287
REMARK  Name = 
REMARK  6 active torsions:
REMARK  status: ('A' for Active; 'I' for Inactive)
REMARK    1  A    between atoms: C_5  and  C_6
REMARK    2  A    between atoms: C_6  and  O_7
REMARK    3  A    between atoms: O_7  and  C_8
REMARK    4  A    between atoms: C_8  and  C_9
REMARK    5  A    between atoms: C_8  and  C_15
REMARK    6  A    between atoms: C_9  and  N_10
REMARK                            x       y       z     vdW  Elec       q    Type
REMARK                         _______ _______ _______ _____ _____    ______ ____
ROOT
ATOM      1  C   UNL     1     -10.797  16.161  68.103  0.00  0.00    +0.161 C 
ENDROOT
BRANCH   1   2
ATOM      2  C   UNL     1      -9.571  17.180  68.480  0.00  0.00    +0.017 A 
ATOM      3  C   UNL     1      -9.418  18.033  67.394  0.00  0.00    +0.057 A 
ATOM      4 CL   UNL     1     -10.822  19.016  66.987  0.00  0.00    -0.082 Cl
ATOM      5  C   UNL     1      -8.173  18.433  66.948  0.00  0.00    +0.023 A 
ATOM      6  C   UNL     1      -7.071  17.662  67.245  0.00  0.00    +0.058 A 
ATOM      7 CL   UNL     1      -5.780  17.428  66.081  0.00  0.00    -0.082 Cl
ATOM      8  C   UNL     1      -7.183  16.796  68.323  0.00  0.00    +0.011 A 
ATOM      9  C   UNL     1      -8.424  16.497  68.870  0.00  0.00    -0.000 A 
ENDBRANCH   1   2
BRANCH   1  10
ATOM     10  O   UNL     1     -10.613  15.371  69.405  0.00  0.00    -0.345 OA
BRANCH  10  11
ATOM     11  C   UNL     1     -11.930  15.365  69.835  0.00  0.00    +0.170 C 
BRANCH  11  17
ATOM     12 CL   UNL     1     -13.429  10.063  72.053  0.00  0.00    -0.082 Cl
ATOM     13  C   UNL     1     -12.863  11.581  71.423  0.00  0.00    +0.058 A 
ATOM     14  C   UNL     1     -13.320  12.743  72.024  0.00  0.00    +0.023 A 
ATOM     15  C   UNL     1     -13.116  13.948  71.413  0.00  0.00    +0.057 A 
ATOM     16 CL   UNL     1     -13.465  15.395  72.335  0.00  0.00    -0.082 Cl
ATOM     17  C   UNL     1     -12.430  14.022  70.206  0.00  0.00    +0.018 A 
ATOM     18  C   UNL     1     -11.911  12.864  69.693  0.00  0.00    -0.000 A 
ATOM     19  C   UNL     1     -12.006  11.641  70.335  0.00  0.00    +0.011 A 
ENDBRANCH  11  17
ENDBRANCH  10  11
ENDBRANCH   1  10
BRANCH   1  20
ATOM     20  C   UNL     1      -9.768  15.142  67.278  0.00  0.00    +0.142 C 
BRANCH  20  21
ATOM     21  N   UNL     1     -10.720  14.308  66.547  0.00  0.00    -0.305 N 
ATOM     22  C   UNL     1     -11.978  14.649  66.219  0.00  0.00    +0.179 A 
ATOM     23  N   UNL     1     -12.567  13.575  65.641  0.00  0.00    -0.222 NA
ATOM     24  C   UNL     1     -11.772  12.505  65.795  0.00  0.00    +0.119 A 
ATOM     25  C   UNL     1     -10.669  12.965  66.493  0.00  0.00    +0.098 A 
ENDBRANCH  20  21
ENDBRANCH   1  20
TORSDOF 6
ENDMDL
MODEL 9
REMARK VINA RESULT:      -6.3      2.828      6.554
REMARK  Name = 
REMARK  6 active torsions:
REMARK  status: ('A' for Active; 'I' for Inactive)
REMARK    1  A    between atoms: C_5  and  C_6
REMARK    2  A    between atoms: C_6  and  O_7
REMARK    3  A    between atoms: O_7  and  C_8
REMARK    4  A    between atoms: C_8  and  C_9
REMARK    5  A    between atoms: C_8  and  C_15
REMARK    6  A    between atoms: C_9  and  N_10
REMARK                            x       y       z     vdW  Elec       q    Type
REMARK                         _______ _______ _______ _____ _____    ______ ____
ROOT
ATOM      1  C   UNL     1     -10.890  14.496  68.238  0.00  0.00    +0.161 C 
ENDROOT
BRANCH   1   2
ATOM      2  C   UNL     1      -9.842  15.385  67.347  0.00  0.00    +0.017 A 
ATOM      3  C   UNL     1      -9.112  16.153  68.248  0.00  0.00    +0.057 A 
ATOM      4 CL   UNL     1      -8.174  15.255  69.437  0.00  0.00    -0.082 Cl
ATOM      5  C   UNL     1      -8.769  17.464  67.980  0.00  0.00    +0.023 A 
ATOM      6  C   UNL     1      -9.507  18.181  67.064  0.00  0.00    +0.058 A 
ATOM      7 CL   UNL     1      -9.873  19.878  67.314  0.00  0.00    -0.082 Cl
ATOM      8  C   UNL     1     -10.251  17.451  66.148  0.00  0.00    +0.011 A 
ATOM      9  C   UNL     1     -10.483  16.095  66.338  0.00  0.00    -0.000 A 
ENDBRANCH   1   2
BRANCH   1  10
ATOM     10  O   UNL     1     -11.827  14.301  67.038  0.00  0.00    -0.345 OA
BRANCH  10  11
ATOM     11  C   UNL     1     -12.029  12.934  67.148  0.00  0.00    +0.170 C 
BRANCH  11  17
ATOM     12 CL   UNL     1      -9.574  10.256  62.450  0.00  0.00    -0.082 Cl
ATOM     13  C   UNL     1     -10.246  11.155  63.777  0.00  0.00    +0.058 A 
ATOM     14  C   UNL     1      -9.872  10.791  65.061  0.00  0.00    +0.023 A 
ATOM     15  C   UNL     1     -10.561  11.285  66.133  0.00  0.00    +0.057 A 
ATOM     16 CL   UNL     1      -9.886  11.016  67.725  0.00  0.00    -0.082 Cl
ATOM     17  C   UNL     1     -11.616  12.172  65.949  0.00  0.00    +0.018 A 
ATOM     18  C   UNL     1     -11.891  12.582  64.672  0.00  0.00    -0.000 A 
ATOM     19  C   UNL     1     -11.150  12.186  63.572  0.00  0.00    +0.011 A 
ENDBRANCH  11  17
ENDBRANCH  10  11
ENDBRANCH   1  10
BRANCH   1  20
ATOM     20  C   UNL     1     -11.715  15.858  68.727  0.00  0.00    +0.142 C 
BRANCH  20  21
ATOM     21  N   UNL     1     -12.102  15.484  70.086  0.00  0.00    -0.305 N 
ATOM     22  C   UNL     1     -11.709  16.099  71.214  0.00  0.00    +0.179 A 
ATOM     23  N   UNL     1     -12.195  15.396  72.265  0.00  0.00    -0.222 NA
ATOM     24  C   UNL     1     -12.702  14.236  71.820  0.00  0.00    +0.119 A 
ATOM     25  C   UNL     1     -12.508  14.254  70.450  0.00  0.00    +0.098 A 
ENDBRANCH  20  21
ENDBRANCH   1  20
TORSDOF 6
ENDMDL
