MODEL 1
REMARK VINA RESULT:      -6.3      0.000      0.000
REMARK  Name = 
REMARK  1 active torsions:
REMARK  status: ('A' for Active; 'I' for Inactive)
REMARK    1  A    between atoms: C_10  and  N_11
REMARK                            x       y       z     vdW  Elec       q    Type
REMARK                         _______ _______ _______ _____ _____    ______ ____
ROOT
ATOM      1 CL   UNL     1     -10.980  13.149  68.785  0.00  0.00    -0.079 Cl
ATOM      2  C   UNL     1     -10.692  14.654  67.948  0.00  0.00    +0.093 A 
ATOM      3  C   UNL     1     -11.059  15.874  68.509  0.00  0.00    +0.189 A 
ATOM      4  C   UNL     1     -10.753  17.036  67.803  0.00  0.00    +0.144 A 
ATOM      5  C   UNL     1     -10.145  16.972  66.561  0.00  0.00    +0.112 A 
ATOM      6  N   UNL     1     -10.343  18.124  65.870  0.00  0.00    -0.190 NA
ATOM      7  S   UNL     1     -10.231  19.272  67.113  0.00  0.00    +0.117 S 
ATOM      8  C   UNL     1      -9.910  15.733  65.971  0.00  0.00    +0.022 A 
ATOM      9  N   UNL     1     -10.473  18.216  68.415  0.00  0.00    -0.187 NA
ATOM     10  C   UNL     1     -10.069  14.572  66.711  0.00  0.00    +0.016 A 
ENDROOT
BRANCH   3  11
ATOM     11  N   UNL     1     -12.233  15.862  69.285  0.00  0.00    -0.068 NA
ATOM     12  C   UNL     1     -12.331  15.758  70.546  0.00  0.00    +0.439 C 
ATOM     13  N   UNL     1     -11.397  15.538  71.577  0.00  0.00    -0.060 NA
ATOM     14  C   UNL     1     -12.014  15.540  72.879  0.00  0.00    +0.251 C 
ATOM     15  C   UNL     1     -13.479  15.618  72.568  0.00  0.00    +0.251 C 
ATOM     16  N   UNL     1     -13.629  15.634  71.143  0.00  0.00    -0.060 NA
ENDBRANCH   3  11
TORSDOF 1
ENDMDL
MODEL 2
REMARK VINA RESULT:      -5.7      2.713      4.835
REMARK  Name = 
REMARK  1 active torsions:
REMARK  status: ('A' for Active; 'I' for Inactive)
REMARK    1  A    between atoms: C_10  and  N_11
REMARK                            x       y       z     vdW  Elec       q    Type
REMARK                         _______ _______ _______ _____ _____    ______ ____
ROOT
ATOM      1 CL   UNL     1     -10.476  15.335  64.991  0.00  0.00    -0.079 Cl
ATOM      2  C   UNL     1     -11.044  14.841  66.567  0.00  0.00    +0.093 A 
ATOM      3  C   UNL     1     -10.956  15.691  67.665  0.00  0.00    +0.189 A 
ATOM      4  C   UNL     1     -11.474  15.243  68.880  0.00  0.00    +0.144 A 
ATOM      5  C   UNL     1     -12.016  13.975  68.996  0.00  0.00    +0.112 A 
ATOM      6  N   UNL     1     -12.041  13.581  70.295  0.00  0.00    -0.190 NA
ATOM      7  S   UNL     1     -12.427  15.038  71.070  0.00  0.00    +0.117 S 
ATOM      8  C   UNL     1     -11.970  13.104  67.911  0.00  0.00    +0.022 A 
ATOM      9  N   UNL     1     -12.012  16.082  69.803  0.00  0.00    -0.187 NA
ATOM     10  C   UNL     1     -11.597  13.572  66.661  0.00  0.00    +0.016 A 
ENDROOT
BRANCH   3  11
ATOM     11  N   UNL     1      -9.830  16.533  67.698  0.00  0.00    -0.068 NA
ATOM     12  C   UNL     1      -9.807  17.802  67.650  0.00  0.00    +0.439 C 
ATOM     13  N   UNL     1     -10.798  18.784  67.467  0.00  0.00    -0.060 NA
ATOM     14  C   UNL     1     -10.260  20.119  67.531  0.00  0.00    +0.251 C 
ATOM     15  C   UNL     1      -8.780  19.892  67.609  0.00  0.00    +0.251 C 
ATOM     16  N   UNL     1      -8.545  18.480  67.565  0.00  0.00    -0.060 NA
ENDBRANCH   3  11
TORSDOF 1
ENDMDL
MODEL 3
REMARK VINA RESULT:      -5.6      3.819      5.976
REMARK  Name = 
REMARK  1 active torsions:
REMARK  status: ('A' for Active; 'I' for Inactive)
REMARK    1  A    between atoms: C_10  and  N_11
REMARK                            x       y       z     vdW  Elec       q    Type
REMARK                         _______ _______ _______ _____ _____    ______ ____
ROOT
ATOM      1 CL   UNL     1     -10.379  16.243  65.897  0.00  0.00    -0.079 Cl
ATOM      2  C   UNL     1     -10.905  15.542  67.407  0.00  0.00    +0.093 A 
ATOM      3  C   UNL     1     -11.481  14.276  67.454  0.00  0.00    +0.189 A 
ATOM      4  C   UNL     1     -11.831  13.764  68.703  0.00  0.00    +0.144 A 
ATOM      5  C   UNL     1     -11.654  14.514  69.852  0.00  0.00    +0.112 A 
ATOM      6  N   UNL     1     -12.442  14.048  70.855  0.00  0.00    -0.190 NA
ATOM      7  S   UNL     1     -12.358  12.377  70.586  0.00  0.00    +0.117 S 
ATOM      8  C   UNL     1     -11.198  15.826  69.756  0.00  0.00    +0.022 A 
ATOM      9  N   UNL     1     -11.805  12.436  68.987  0.00  0.00    -0.187 NA
ATOM     10  C   UNL     1     -10.707  16.303  68.550  0.00  0.00    +0.016 A 
ENDROOT
BRANCH   3  11
ATOM     11  N   UNL     1     -12.277  13.924  66.349  0.00  0.00    -0.068 NA
ATOM     12  C   UNL     1     -11.992  13.117  65.411  0.00  0.00    +0.439 C 
ATOM     13  N   UNL     1     -10.836  12.387  65.077  0.00  0.00    -0.060 NA
ATOM     14  C   UNL     1     -11.031  11.562  63.912  0.00  0.00    +0.251 C 
ATOM     15  C   UNL     1     -12.391  11.966  63.426  0.00  0.00    +0.251 C 
ATOM     16  N   UNL     1     -12.888  12.989  64.298  0.00  0.00    -0.060 NA
ENDBRANCH   3  11
TORSDOF 1
ENDMDL
MODEL 4
REMARK VINA RESULT:      -5.5      2.872      4.619
REMARK  Name = 
REMARK  1 active torsions:
REMARK  status: ('A' for Active; 'I' for Inactive)
REMARK    1  A    between atoms: C_10  and  N_11
REMARK                            x       y       z     vdW  Elec       q    Type
REMARK                         _______ _______ _______ _____ _____    ______ ____
ROOT
ATOM      1 CL   UNL     1     -11.383  16.174  70.840  0.00  0.00    -0.079 Cl
ATOM      2  C   UNL     1     -11.383  15.216  69.380  0.00  0.00    +0.093 A 
ATOM      3  C   UNL     1     -10.941  15.743  68.171  0.00  0.00    +0.189 A 
ATOM      4  C   UNL     1     -10.925  14.902  67.059  0.00  0.00    +0.144 A 
ATOM      5  C   UNL     1     -11.380  13.598  67.148  0.00  0.00    +0.112 A 
ATOM      6  N   UNL     1     -11.699  13.115  65.921  0.00  0.00    -0.190 NA
ATOM      7  S   UNL     1     -10.481  13.812  64.970  0.00  0.00    +0.117 S 
ATOM      8  C   UNL     1     -11.936  13.143  68.341  0.00  0.00    +0.022 A 
ATOM      9  N   UNL     1     -10.018  15.026  66.056  0.00  0.00    -0.187 NA
ATOM     10  C   UNL     1     -11.828  13.907  69.493  0.00  0.00    +0.016 A 
ENDROOT
BRANCH   3  11
ATOM     11  N   UNL     1     -11.212  17.108  67.963  0.00  0.00    -0.068 NA
ATOM     12  C   UNL     1     -10.378  18.045  67.763  0.00  0.00    +0.439 C 
ATOM     13  N   UNL     1      -8.971  18.108  67.763  0.00  0.00    -0.060 NA
ATOM     14  C   UNL     1      -8.486  19.424  67.434  0.00  0.00    +0.251 C 
ATOM     15  C   UNL     1      -9.736  20.252  67.386  0.00  0.00    +0.251 C 
ATOM     16  N   UNL     1     -10.844  19.400  67.702  0.00  0.00    -0.060 NA
ENDBRANCH   3  11
TORSDOF 1
ENDMDL
MODEL 5
REMARK VINA RESULT:      -5.4      2.934      4.919
REMARK  Name = 
REMARK  1 active torsions:
REMARK  status: ('A' for Active; 'I' for Inactive)
REMARK    1  A    between atoms: C_10  and  N_11
REMARK                            x       y       z     vdW  Elec       q    Type
REMARK                         _______ _______ _______ _____ _____    ______ ____
ROOT
ATOM      1 CL   UNL     1     -11.850  16.278  71.712  0.00  0.00    -0.079 Cl
ATOM      2  C   UNL     1     -11.774  14.937  70.597  0.00  0.00    +0.093 A 
ATOM      3  C   UNL     1     -11.208  15.079  69.334  0.00  0.00    +0.189 A 
ATOM      4  C   UNL     1     -11.140  13.951  68.518  0.00  0.00    +0.144 A 
ATOM      5  C   UNL     1     -11.663  12.740  68.936  0.00  0.00    +0.112 A 
ATOM      6  N   UNL     1     -11.902  11.928  67.875  0.00  0.00    -0.190 NA
ATOM      7  S   UNL     1     -10.576  12.291  66.883  0.00  0.00    +0.117 S 
ATOM      8  C   UNL     1     -12.339  12.664  70.151  0.00  0.00    +0.022 A 
ATOM      9  N   UNL     1     -10.147  13.758  67.611  0.00  0.00    -0.187 NA
ATOM     10  C   UNL     1     -12.291  13.728  71.039  0.00  0.00    +0.016 A 
ENDROOT
BRANCH   3  11
ATOM     11  N   UNL     1     -11.394  16.330  68.717  0.00  0.00    -0.068 NA
ATOM     12  C   UNL     1     -10.505  17.178  68.394  0.00  0.00    +0.439 C 
ATOM     13  N   UNL     1      -9.113  17.246  68.589  0.00  0.00    -0.060 NA
ATOM     14  C   UNL     1      -8.536  18.420  67.987  0.00  0.00    +0.251 C 
ATOM     15  C   UNL     1      -9.733  19.195  67.522  0.00  0.00    +0.251 C 
ATOM     16  N   UNL     1     -10.906  18.459  67.890  0.00  0.00    -0.060 NA
ENDBRANCH   3  11
TORSDOF 1
ENDMDL
MODEL 6
REMARK VINA RESULT:      -5.4      3.102      5.691
REMARK  Name = 
REMARK  1 active torsions:
REMARK  status: ('A' for Active; 'I' for Inactive)
REMARK    1  A    between atoms: C_10  and  N_11
REMARK                            x       y       z     vdW  Elec       q    Type
REMARK                         _______ _______ _______ _____ _____    ______ ____
ROOT
ATOM      1 CL   UNL     1     -11.248  11.110  68.416  0.00  0.00    -0.079 Cl
ATOM      2  C   UNL     1     -11.976  11.986  69.740  0.00  0.00    +0.093 A 
ATOM      3  C   UNL     1     -11.984  13.378  69.767  0.00  0.00    +0.189 A 
ATOM      4  C   UNL     1     -12.627  14.006  70.832  0.00  0.00    +0.144 A 
ATOM      5  C   UNL     1     -13.197  13.266  71.853  0.00  0.00    +0.112 A 
ATOM      6  N   UNL     1     -13.356  14.027  72.967  0.00  0.00    -0.190 NA
ATOM      7  S   UNL     1     -13.794  15.515  72.284  0.00  0.00    +0.117 S 
ATOM      8  C   UNL     1     -13.057  11.881  71.862  0.00  0.00    +0.022 A 
ATOM      9  N   UNL     1     -13.240  15.212  70.713  0.00  0.00    -0.187 NA
ATOM     10  C   UNL     1     -12.555  11.228  70.747  0.00  0.00    +0.016 A 
ENDROOT
BRANCH   3  11
ATOM     11  N   UNL     1     -10.854  14.007  69.213  0.00  0.00    -0.068 NA
ATOM     12  C   UNL     1     -10.721  14.474  68.040  0.00  0.00    +0.439 C 
ATOM     13  N   UNL     1     -11.540  14.470  66.895  0.00  0.00    -0.060 NA
ATOM     14  C   UNL     1     -10.943  15.185  65.796  0.00  0.00    +0.251 C 
ATOM     15  C   UNL     1      -9.569  15.511  66.301  0.00  0.00    +0.251 C 
ATOM     16  N   UNL     1      -9.440  14.965  67.619  0.00  0.00    -0.060 NA
ENDBRANCH   3  11
TORSDOF 1
ENDMDL
MODEL 7
REMARK VINA RESULT:      -5.4      3.476      5.126
REMARK  Name = 
REMARK  1 active torsions:
REMARK  status: ('A' for Active; 'I' for Inactive)
REMARK    1  A    between atoms: C_10  and  N_11
REMARK                            x       y       z     vdW  Elec       q    Type
REMARK                         _______ _______ _______ _____ _____    ______ ____
ROOT
ATOM      1 CL   UNL     1      -8.621  15.188  69.291  0.00  0.00    -0.079 Cl
ATOM      2  C   UNL     1      -9.853  14.701  68.153  0.00  0.00    +0.093 A 
ATOM      3  C   UNL     1      -9.676  14.865  66.782  0.00  0.00    +0.189 A 
ATOM      4  C   UNL     1     -10.683  14.408  65.934  0.00  0.00    +0.144 A 
ATOM      5  C   UNL     1     -11.843  13.852  66.445  0.00  0.00    +0.112 A 
ATOM      6  N   UNL     1     -12.841  13.894  65.526  0.00  0.00    -0.190 NA
ATOM      7  S   UNL     1     -11.983  13.576  64.100  0.00  0.00    +0.117 S 
ATOM      8  C   UNL     1     -12.044  13.822  67.823  0.00  0.00    +0.022 A 
ATOM      9  N   UNL     1     -10.435  13.938  64.685  0.00  0.00    -0.187 NA
ATOM     10  C   UNL     1     -11.002  14.133  68.683  0.00  0.00    +0.016 A 
ENDROOT
BRANCH   3  11
ATOM     11  N   UNL     1      -8.950  16.005  66.392  0.00  0.00    -0.068 NA
ATOM     12  C   UNL     1      -9.298  17.222  66.499  0.00  0.00    +0.439 C 
ATOM     13  N   UNL     1     -10.478  17.860  66.925  0.00  0.00    -0.060 NA
ATOM     14  C   UNL     1     -10.360  19.296  66.898  0.00  0.00    +0.251 C 
ATOM     15  C   UNL     1      -9.028  19.522  66.247  0.00  0.00    +0.251 C 
ATOM     16  N   UNL     1      -8.472  18.242  65.920  0.00  0.00    -0.060 NA
ENDBRANCH   3  11
TORSDOF 1
ENDMDL
MODEL 8
REMARK VINA RESULT:      -5.4      2.631      3.160
REMARK  Name = 
REMARK  1 active torsions:
REMARK  status: ('A' for Active; 'I' for Inactive)
REMARK    1  A    between atoms: C_10  and  N_11
REMARK                            x       y       z     vdW  Elec       q    Type
REMARK                         _______ _______ _______ _____ _____    ______ ____
ROOT
ATOM      1 CL   UNL     1     -10.125  18.312  68.780  0.00  0.00    -0.079 Cl
ATOM      2  C   UNL     1     -10.286  16.876  67.800  0.00  0.00    +0.093 A 
ATOM      3  C   UNL     1     -10.925  15.739  68.285  0.00  0.00    +0.189 A 
ATOM      4  C   UNL     1     -11.058  14.648  67.426  0.00  0.00    +0.144 A 
ATOM      5  C   UNL     1     -10.528  14.683  66.148  0.00  0.00    +0.112 A 
ATOM      6  N   UNL     1     -10.365  13.426  65.662  0.00  0.00    -0.190 NA
ATOM      7  S   UNL     1     -11.742  12.656  66.282  0.00  0.00    +0.117 S 
ATOM      8  C   UNL     1      -9.783  15.786  65.741  0.00  0.00    +0.022 A 
ATOM      9  N   UNL     1     -12.106  13.787  67.489  0.00  0.00    -0.187 NA
ATOM     10  C   UNL     1      -9.762  16.934  66.517  0.00  0.00    +0.016 A 
ENDROOT
BRANCH   3  11
ATOM     11  N   UNL     1     -10.758  15.482  69.658  0.00  0.00    -0.068 NA
ATOM     12  C   UNL     1     -11.649  15.474  70.562  0.00  0.00    +0.439 C 
ATOM     13  N   UNL     1     -13.023  15.784  70.572  0.00  0.00    -0.060 NA
ATOM     14  C   UNL     1     -13.617  15.576  71.868  0.00  0.00    +0.251 C 
ATOM     15  C   UNL     1     -12.441  15.257  72.742  0.00  0.00    +0.251 C 
ATOM     16  N   UNL     1     -11.259  15.317  71.933  0.00  0.00    -0.060 NA
ENDBRANCH   3  11
TORSDOF 1
ENDMDL
MODEL 9
REMARK VINA RESULT:      -5.3      2.741      5.098
REMARK  Name = 
REMARK  1 active torsions:
REMARK  status: ('A' for Active; 'I' for Inactive)
REMARK    1  A    between atoms: C_10  and  N_11
REMARK                            x       y       z     vdW  Elec       q    Type
REMARK                         _______ _______ _______ _____ _____    ______ ____
ROOT
ATOM      1 CL   UNL     1     -12.019  13.190  68.257  0.00  0.00    -0.079 Cl
ATOM      2  C   UNL     1     -11.317  14.785  68.142  0.00  0.00    +0.093 A 
ATOM      3  C   UNL     1     -10.817  15.268  66.937  0.00  0.00    +0.189 A 
ATOM      4  C   UNL     1     -10.316  16.569  66.913  0.00  0.00    +0.144 A 
ATOM      5  C   UNL     1     -10.276  17.336  68.064  0.00  0.00    +0.112 A 
ATOM      6  N   UNL     1      -9.377  18.345  67.938  0.00  0.00    -0.190 NA
ATOM      7  S   UNL     1      -9.597  18.776  66.314  0.00  0.00    +0.117 S 
ATOM      8  C   UNL     1     -10.664  16.776  69.278  0.00  0.00    +0.022 A 
ATOM      9  N   UNL     1     -10.377  17.360  65.810  0.00  0.00    -0.187 NA
ATOM     10  C   UNL     1     -11.300  15.544  69.303  0.00  0.00    +0.016 A 
ENDROOT
BRANCH   3  11
ATOM     11  N   UNL     1     -10.215  14.313  66.097  0.00  0.00    -0.068 NA
ATOM     12  C   UNL     1     -10.748  13.676  65.136  0.00  0.00    +0.439 C 
ATOM     13  N   UNL     1     -12.058  13.606  64.628  0.00  0.00    -0.060 NA
ATOM     14  C   UNL     1     -12.148  12.751  63.472  0.00  0.00    +0.251 C 
ATOM     15  C   UNL     1     -10.781  12.140  63.386  0.00  0.00    +0.251 C 
ATOM     16  N   UNL     1     -10.002  12.643  64.478  0.00  0.00    -0.060 NA
ENDBRANCH   3  11
TORSDOF 1
ENDMDL
