MODEL 1
REMARK VINA RESULT:      -7.5      0.000      0.000
REMARK  Name = 
REMARK  5 active torsions:
REMARK  status: ('A' for Active; 'I' for Inactive)
REMARK    1  A    between atoms: C_4  and  C_5
REMARK    2  A    between atoms: C_15  and  C_16
REMARK    3  A    between atoms: C_16  and  C_18
REMARK    4  A    between atoms: C_19  and  C_20
REMARK    5  A    between atoms: C_20  and  C_22
REMARK                            x       y       z     vdW  Elec       q    Type
REMARK                         _______ _______ _______ _____ _____    ______ ____
ROOT
ATOM      1  C   UNL     1      -7.207  19.276  68.861  0.00  0.00    -0.009 C 
ATOM      2  C   UNL     1      -7.291  18.065  68.363  0.00  0.00    -0.045 C 
ATOM      3  C   UNL     1      -8.658  17.755  67.579  0.00  0.00    +0.018 C 
ATOM      4  C   UNL     1      -9.578  18.309  68.804  0.00  0.00    +0.004 C 
ATOM      5  C   UNL     1     -10.334  17.173  69.252  0.00  0.00    +0.001 C 
ATOM      6  C   UNL     1     -10.272  16.217  67.941  0.00  0.00    +0.004 C 
ATOM      7  C   UNL     1      -8.674  16.203  68.100  0.00  0.00    +0.004 C 
ATOM      8  C   UNL     1      -8.246  16.075  69.454  0.00  0.00    +0.000 C 
ATOM      9  C   UNL     1      -7.973  15.615  66.981  0.00  0.00    +0.001 C 
ATOM     10  C   UNL     1      -6.592  16.146  66.922  0.00  0.00    +0.004 C 
ATOM     11  C   UNL     1      -6.221  17.322  67.702  0.00  0.00    +0.022 C 
ENDROOT
BRANCH   1  21
ATOM     12  C   UNL     1      -6.131  19.927  70.890  0.00  0.00    -0.002 C 
ATOM     13  C   UNL     1      -5.332  20.389  70.394  0.00  0.00    +0.004 C 
ATOM     14  C   UNL     1      -4.137  21.202  71.125  0.00  0.00    +0.176 C 
ATOM     15  O   UNL     1      -4.136  20.233  72.304  0.00  0.00    -0.218 OA
ATOM     16  C   UNL     1      -2.858  20.422  70.432  0.00  0.00    +0.071 C 
ATOM     17  C   UNL     1      -3.504  19.571  69.197  0.00  0.00    +0.159 C 
ATOM     18  O   UNL     1      -2.201  19.523  68.424  0.00  0.00    -0.223 OA
ATOM     19  C   UNL     1      -3.983  20.955  68.422  0.00  0.00    +0.059 C 
ATOM     20  C   UNL     1      -5.377  20.901  69.007  0.00  0.00    -0.021 C 
ATOM     21  C   UNL     1      -6.180  20.143  68.255  0.00  0.00    -0.005 C 
ENDBRANCH   1  21
BRANCH   6  22
ATOM     22  C   UNL     1     -10.610  14.862  68.909  0.00  0.00    +0.022 C 
ATOM     23  C   UNL     1     -10.912  13.894  67.644  0.00  0.00    +0.005 C 
BRANCH  22  24
ATOM     24  C   UNL     1     -12.137  15.300  69.030  0.00  0.00    -0.031 C 
ATOM     25  C   UNL     1     -12.717  15.338  70.182  0.00  0.00    -0.031 C 
BRANCH  25  26
ATOM     26  C   UNL     1     -11.990  14.658  71.440  0.00  0.00    +0.022 C 
ATOM     27  C   UNL     1     -13.114  13.479  71.568  0.00  0.00    +0.005 C 
BRANCH  26  28
ATOM     28  C   UNL     1     -12.762  15.631  72.502  0.00  0.00    +0.004 C 
ATOM     29  C   UNL     1     -14.223  15.433  72.220  0.00  0.00    +0.000 C 
ATOM     30  C   UNL     1     -12.392  15.163  73.877  0.00  0.00    +0.000 C 
ENDBRANCH  26  28
ENDBRANCH  25  26
ENDBRANCH  22  24
ENDBRANCH   6  22
TORSDOF 5
ENDMDL
MODEL 2
REMARK VINA RESULT:      -7.4      3.323      5.038
REMARK  Name = 
REMARK  5 active torsions:
REMARK  status: ('A' for Active; 'I' for Inactive)
REMARK    1  A    between atoms: C_4  and  C_5
REMARK    2  A    between atoms: C_15  and  C_16
REMARK    3  A    between atoms: C_16  and  C_18
REMARK    4  A    between atoms: C_19  and  C_20
REMARK    5  A    between atoms: C_20  and  C_22
REMARK                            x       y       z     vdW  Elec       q    Type
REMARK                         _______ _______ _______ _____ _____    ______ ____
ROOT
ATOM      1  C   UNL     1     -10.390  16.734  67.806  0.00  0.00    -0.009 C 
ATOM      2  C   UNL     1     -10.299  15.609  67.137  0.00  0.00    -0.045 C 
ATOM      3  C   UNL     1     -11.571  14.639  67.277  0.00  0.00    +0.018 C 
ATOM      4  C   UNL     1     -11.570  14.743  68.903  0.00  0.00    +0.004 C 
ATOM      5  C   UNL     1     -11.314  13.407  69.366  0.00  0.00    +0.001 C 
ATOM      6  C   UNL     1     -11.765  12.534  68.073  0.00  0.00    +0.004 C 
ATOM      7  C   UNL     1     -10.630  13.300  67.234  0.00  0.00    +0.004 C 
ATOM      8  C   UNL     1      -9.412  13.464  67.957  0.00  0.00    +0.000 C 
ATOM      9  C   UNL     1     -10.688  13.067  65.808  0.00  0.00    +0.001 C 
ATOM     10  C   UNL     1     -10.051  14.195  65.091  0.00  0.00    +0.004 C 
ATOM     11  C   UNL     1      -9.758  15.442  65.790  0.00  0.00    +0.022 C 
ENDROOT
BRANCH   1  21
ATOM     12  C   UNL     1      -8.843  18.043  69.067  0.00  0.00    -0.002 C 
ATOM     13  C   UNL     1      -8.817  18.814  68.358  0.00  0.00    +0.004 C 
ATOM     14  C   UNL     1      -8.004  20.203  68.534  0.00  0.00    +0.176 C 
ATOM     15  O   UNL     1      -6.865  19.498  69.264  0.00  0.00    -0.218 OA
ATOM     16  C   UNL     1      -7.165  20.171  67.112  0.00  0.00    +0.071 C 
ATOM     17  C   UNL     1      -7.880  18.997  66.230  0.00  0.00    +0.159 C 
ATOM     18  O   UNL     1      -7.426  19.584  64.908  0.00  0.00    -0.223 OA
ATOM     19  C   UNL     1      -9.310  19.831  66.179  0.00  0.00    +0.059 C 
ATOM     20  C   UNL     1      -9.881  19.092  67.369  0.00  0.00    -0.021 C 
ATOM     21  C   UNL     1     -10.473  17.957  66.986  0.00  0.00    -0.005 C 
ENDBRANCH   1  21
BRANCH   6  22
ATOM     22  C   UNL     1     -10.812  11.235  68.614  0.00  0.00    +0.022 C 
ATOM     23  C   UNL     1     -11.211  10.278  67.367  0.00  0.00    +0.005 C 
BRANCH  22  24
ATOM     24  C   UNL     1     -12.014  10.694  69.508  0.00  0.00    -0.031 C 
ATOM     25  C   UNL     1     -11.788   9.888  70.490  0.00  0.00    -0.031 C 
BRANCH  25  26
ATOM     26  C   UNL     1     -10.342   9.203  70.614  0.00  0.00    +0.022 C 
ATOM     27  C   UNL     1     -10.874   7.766  70.047  0.00  0.00    +0.005 C 
BRANCH  26  28
ATOM     28  C   UNL     1     -10.598   8.782  72.172  0.00  0.00    +0.004 C 
ATOM     29  C   UNL     1     -11.810   7.897  72.143  0.00  0.00    +0.000 C 
ATOM     30  C   UNL     1      -9.379   8.042  72.634  0.00  0.00    +0.000 C 
ENDBRANCH  26  28
ENDBRANCH  25  26
ENDBRANCH  22  24
ENDBRANCH   6  22
TORSDOF 5
ENDMDL
MODEL 3
REMARK VINA RESULT:      -7.0      4.253      9.249
REMARK  Name = 
REMARK  5 active torsions:
REMARK  status: ('A' for Active; 'I' for Inactive)
REMARK    1  A    between atoms: C_4  and  C_5
REMARK    2  A    between atoms: C_15  and  C_16
REMARK    3  A    between atoms: C_16  and  C_18
REMARK    4  A    between atoms: C_19  and  C_20
REMARK    5  A    between atoms: C_20  and  C_22
REMARK                            x       y       z     vdW  Elec       q    Type
REMARK                         _______ _______ _______ _____ _____    ______ ____
ROOT
ATOM      1  C   UNL     1      -9.178  15.609  67.036  0.00  0.00    -0.009 C 
ATOM      2  C   UNL     1      -8.124  15.996  67.715  0.00  0.00    -0.045 C 
ATOM      3  C   UNL     1      -8.109  17.555  68.101  0.00  0.00    +0.018 C 
ATOM      4  C   UNL     1      -8.437  18.017  66.573  0.00  0.00    +0.004 C 
ATOM      5  C   UNL     1      -7.290  18.774  66.154  0.00  0.00    +0.001 C 
ATOM      6  C   UNL     1      -6.659  19.208  67.586  0.00  0.00    +0.004 C 
ATOM      7  C   UNL     1      -6.485  17.647  67.916  0.00  0.00    +0.004 C 
ATOM      8  C   UNL     1      -6.017  16.887  66.804  0.00  0.00    +0.000 C 
ATOM      9  C   UNL     1      -6.118  17.369  69.286  0.00  0.00    +0.001 C 
ATOM     10  C   UNL     1      -6.540  15.996  69.649  0.00  0.00    +0.004 C 
ATOM     11  C   UNL     1      -7.473  15.264  68.798  0.00  0.00    +0.022 C 
ENDROOT
BRANCH   1  21
ATOM     12  C   UNL     1     -10.892  15.548  65.376  0.00  0.00    -0.002 C 
ATOM     13  C   UNL     1     -11.405  14.761  65.841  0.00  0.00    +0.004 C 
ATOM     14  C   UNL     1     -12.820  14.155  65.339  0.00  0.00    +0.176 C 
ATOM     15  O   UNL     1     -12.438  14.352  63.875  0.00  0.00    -0.218 OA
ATOM     16  C   UNL     1     -12.392  12.563  65.279  0.00  0.00    +0.071 C 
ATOM     17  C   UNL     1     -10.966  12.481  66.072  0.00  0.00    +0.159 C 
ATOM     18  O   UNL     1     -11.136  11.016  66.420  0.00  0.00    -0.223 OA
ATOM     19  C   UNL     1     -11.668  12.964  67.493  0.00  0.00    +0.059 C 
ATOM     20  C   UNL     1     -11.306  14.417  67.277  0.00  0.00    -0.021 C 
ATOM     21  C   UNL     1     -10.079  14.676  67.737  0.00  0.00    -0.005 C 
ENDBRANCH   1  21
BRANCH   6  22
ATOM     22  C   UNL     1      -5.149  19.456  66.848  0.00  0.00    +0.022 C 
ATOM     23  C   UNL     1      -4.489  20.126  68.169  0.00  0.00    +0.005 C 
BRANCH  22  24
ATOM     24  C   UNL     1      -5.629  20.866  66.284  0.00  0.00    -0.031 C 
ATOM     25  C   UNL     1      -5.410  21.187  65.054  0.00  0.00    -0.031 C 
BRANCH  25  26
ATOM     26  C   UNL     1      -4.396  20.295  64.187  0.00  0.00    +0.022 C 
ATOM     27  C   UNL     1      -3.935  21.558  63.258  0.00  0.00    +0.005 C 
BRANCH  26  28
ATOM     28  C   UNL     1      -5.572  19.845  63.146  0.00  0.00    +0.004 C 
ATOM     29  C   UNL     1      -6.060  21.125  62.532  0.00  0.00    +0.000 C 
ATOM     30  C   UNL     1      -4.937  18.946  62.127  0.00  0.00    +0.000 C 
ENDBRANCH  26  28
ENDBRANCH  25  26
ENDBRANCH  22  24
ENDBRANCH   6  22
TORSDOF 5
ENDMDL
MODEL 4
REMARK VINA RESULT:      -6.9      7.392     10.796
REMARK  Name = 
REMARK  5 active torsions:
REMARK  status: ('A' for Active; 'I' for Inactive)
REMARK    1  A    between atoms: C_4  and  C_5
REMARK    2  A    between atoms: C_15  and  C_16
REMARK    3  A    between atoms: C_16  and  C_18
REMARK    4  A    between atoms: C_19  and  C_20
REMARK    5  A    between atoms: C_20  and  C_22
REMARK                            x       y       z     vdW  Elec       q    Type
REMARK                         _______ _______ _______ _____ _____    ______ ____
ROOT
ATOM      1  C   UNL     1      -9.987  10.720  67.782  0.00  0.00    -0.009 C 
ATOM      2  C   UNL     1     -10.639  10.330  68.852  0.00  0.00    -0.045 C 
ATOM      3  C   UNL     1      -9.707   9.919  70.093  0.00  0.00    +0.018 C 
ATOM      4  C   UNL     1      -8.781   8.941  69.175  0.00  0.00    +0.004 C 
ATOM      5  C   UNL     1      -8.973   7.624  69.716  0.00  0.00    +0.001 C 
ATOM      6  C   UNL     1      -9.488   7.972  71.217  0.00  0.00    +0.004 C 
ATOM      7  C   UNL     1     -10.736   8.729  70.548  0.00  0.00    +0.004 C 
ATOM      8  C   UNL     1     -11.289   8.028  69.437  0.00  0.00    +0.000 C 
ATOM      9  C   UNL     1     -11.527   9.503  71.480  0.00  0.00    +0.001 C 
ATOM     10  C   UNL     1     -12.239  10.580  70.756  0.00  0.00    +0.004 C 
ATOM     11  C   UNL     1     -11.859  10.927  69.390  0.00  0.00    +0.022 C 
ENDROOT
BRANCH   1  21
ATOM     12  C   UNL     1      -9.787  10.443  65.419  0.00  0.00    -0.002 C 
ATOM     13  C   UNL     1     -10.079  11.427  65.213  0.00  0.00    +0.004 C 
ATOM     14  C   UNL     1     -10.114  12.091  63.736  0.00  0.00    +0.176 C 
ATOM     15  O   UNL     1     -10.568  10.777  63.107  0.00  0.00    -0.218 OA
ATOM     16  C   UNL     1     -11.664  12.659  63.766  0.00  0.00    +0.071 C 
ATOM     17  C   UNL     1     -12.122  12.548  65.330  0.00  0.00    +0.159 C 
ATOM     18  O   UNL     1     -13.173  13.632  65.196  0.00  0.00    -0.223 OA
ATOM     19  C   UNL     1     -10.968  13.639  65.801  0.00  0.00    +0.059 C 
ATOM     20  C   UNL     1      -9.972  12.559  66.161  0.00  0.00    -0.021 C 
ATOM     21  C   UNL     1     -10.157  12.138  67.415  0.00  0.00    -0.005 C 
ENDBRANCH   1  21
BRANCH   6  22
ATOM     22  C   UNL     1     -10.193   6.430  71.334  0.00  0.00    +0.022 C 
ATOM     23  C   UNL     1     -10.609   6.617  72.890  0.00  0.00    +0.005 C 
BRANCH  22  24
ATOM     24  C   UNL     1      -8.785   5.789  71.714  0.00  0.00    -0.031 C 
ATOM     25  C   UNL     1      -8.519   4.565  71.405  0.00  0.00    -0.031 C 
BRANCH  25  26
ATOM     26  C   UNL     1      -9.713   3.612  70.914  0.00  0.00    +0.022 C 
ATOM     27  C   UNL     1      -9.085   2.294  71.649  0.00  0.00    +0.005 C 
BRANCH  26  28
ATOM     28  C   UNL     1      -8.966   3.287  69.498  0.00  0.00    +0.004 C 
ATOM     29  C   UNL     1      -9.233   1.833  69.241  0.00  0.00    +0.000 C 
ATOM     30  C   UNL     1      -9.597   4.162  68.457  0.00  0.00    +0.000 C 
ENDBRANCH  26  28
ENDBRANCH  25  26
ENDBRANCH  22  24
ENDBRANCH   6  22
TORSDOF 5
ENDMDL
MODEL 5
REMARK VINA RESULT:      -6.9      5.259      7.999
REMARK  Name = 
REMARK  5 active torsions:
REMARK  status: ('A' for Active; 'I' for Inactive)
REMARK    1  A    between atoms: C_4  and  C_5
REMARK    2  A    between atoms: C_15  and  C_16
REMARK    3  A    between atoms: C_16  and  C_18
REMARK    4  A    between atoms: C_19  and  C_20
REMARK    5  A    between atoms: C_20  and  C_22
REMARK                            x       y       z     vdW  Elec       q    Type
REMARK                         _______ _______ _______ _____ _____    ______ ____
ROOT
ATOM      1  C   UNL     1     -10.156  12.509  67.814  0.00  0.00    -0.009 C 
ATOM      2  C   UNL     1     -10.091  11.222  67.569  0.00  0.00    -0.045 C 
ATOM      3  C   UNL     1     -11.322  10.366  68.144  0.00  0.00    +0.018 C 
ATOM      4  C   UNL     1     -11.190  11.026  69.628  0.00  0.00    +0.004 C 
ATOM      5  C   UNL     1     -10.863   9.932  70.499  0.00  0.00    +0.001 C 
ATOM      6  C   UNL     1     -11.396   8.668  69.631  0.00  0.00    +0.004 C 
ATOM      7  C   UNL     1     -10.354   9.091  68.485  0.00  0.00    +0.004 C 
ATOM      8  C   UNL     1      -9.085   9.489  69.000  0.00  0.00    +0.000 C 
ATOM      9  C   UNL     1     -10.524   8.379  67.238  0.00  0.00    +0.001 C 
ATOM     10  C   UNL     1      -9.976   9.186  66.123  0.00  0.00    +0.004 C 
ATOM     11  C   UNL     1      -9.659  10.597  66.321  0.00  0.00    +0.022 C 
ENDROOT
BRANCH   1  21
ATOM     12  C   UNL     1     -10.771  14.494  68.988  0.00  0.00    -0.002 C 
ATOM     13  C   UNL     1     -10.719  15.095  68.131  0.00  0.00    +0.004 C 
ATOM     14  C   UNL     1     -11.108  16.667  68.080  0.00  0.00    +0.176 C 
ATOM     15  O   UNL     1     -10.549  16.898  69.481  0.00  0.00    -0.218 OA
ATOM     16  C   UNL     1      -9.721  17.234  67.389  0.00  0.00    +0.071 C 
ATOM     17  C   UNL     1      -8.945  15.902  66.849  0.00  0.00    +0.159 C 
ATOM     18  O   UNL     1      -8.168  16.667  65.796  0.00  0.00    -0.223 OA
ATOM     19  C   UNL     1     -10.167  15.556  65.784  0.00  0.00    +0.059 C 
ATOM     20  C   UNL     1     -10.846  14.603  66.742  0.00  0.00    -0.021 C 
ATOM     21  C   UNL     1     -10.336  13.373  66.632  0.00  0.00    -0.005 C 
ENDBRANCH   1  21
BRANCH   6  22
ATOM     22  C   UNL     1     -10.370   7.632  70.503  0.00  0.00    +0.022 C 
ATOM     23  C   UNL     1     -11.125   6.285  70.008  0.00  0.00    +0.005 C 
BRANCH  22  24
ATOM     24  C   UNL     1     -11.294   7.763  71.793  0.00  0.00    -0.031 C 
ATOM     25  C   UNL     1     -10.839   7.445  72.958  0.00  0.00    -0.031 C 
BRANCH  25  26
ATOM     26  C   UNL     1      -9.455   6.639  73.058  0.00  0.00    +0.022 C 
ATOM     27  C   UNL     1      -9.785   6.077  74.556  0.00  0.00    +0.005 C 
BRANCH  26  28
ATOM     28  C   UNL     1      -8.655   7.945  73.628  0.00  0.00    +0.004 C 
ATOM     29  C   UNL     1      -8.071   7.502  74.938  0.00  0.00    +0.000 C 
ATOM     30  C   UNL     1      -7.590   8.281  72.628  0.00  0.00    +0.000 C 
ENDBRANCH  26  28
ENDBRANCH  25  26
ENDBRANCH  22  24
ENDBRANCH   6  22
TORSDOF 5
ENDMDL
MODEL 6
REMARK VINA RESULT:      -6.8      4.107      8.943
REMARK  Name = 
REMARK  5 active torsions:
REMARK  status: ('A' for Active; 'I' for Inactive)
REMARK    1  A    between atoms: C_4  and  C_5
REMARK    2  A    between atoms: C_15  and  C_16
REMARK    3  A    between atoms: C_16  and  C_18
REMARK    4  A    between atoms: C_19  and  C_20
REMARK    5  A    between atoms: C_20  and  C_22
REMARK                            x       y       z     vdW  Elec       q    Type
REMARK                         _______ _______ _______ _____ _____    ______ ____
ROOT
ATOM      1  C   UNL     1      -9.955  13.007  66.814  0.00  0.00    -0.009 C 
ATOM      2  C   UNL     1     -10.295  13.981  67.624  0.00  0.00    -0.045 C 
ATOM      3  C   UNL     1     -10.845  15.301  66.894  0.00  0.00    +0.018 C 
ATOM      4  C   UNL     1      -9.578  15.359  65.871  0.00  0.00    +0.004 C 
ATOM      5  C   UNL     1      -8.904  16.591  66.174  0.00  0.00    +0.001 C 
ATOM      6  C   UNL     1     -10.093  17.431  66.893  0.00  0.00    +0.004 C 
ATOM      7  C   UNL     1     -10.152  16.279  68.009  0.00  0.00    +0.004 C 
ATOM      8  C   UNL     1      -8.863  15.822  68.413  0.00  0.00    +0.000 C 
ATOM      9  C   UNL     1     -11.282  16.381  68.906  0.00  0.00    +0.001 C 
ATOM     10  C   UNL     1     -11.589  15.050  69.477  0.00  0.00    +0.004 C 
ATOM     11  C   UNL     1     -11.006  13.845  68.893  0.00  0.00    +0.022 C 
ENDROOT
BRANCH   1  21
ATOM     12  C   UNL     1      -8.176  11.416  66.783  0.00  0.00    -0.002 C 
ATOM     13  C   UNL     1      -8.806  10.609  67.006  0.00  0.00    +0.004 C 
ATOM     14  C   UNL     1      -8.335   9.061  67.079  0.00  0.00    +0.176 C 
ATOM     15  O   UNL     1      -6.986   9.452  67.676  0.00  0.00    -0.218 OA
ATOM     16  C   UNL     1      -8.937   8.698  68.573  0.00  0.00    +0.071 C 
ATOM     17  C   UNL     1      -9.928   9.944  68.940  0.00  0.00    +0.159 C 
ATOM     18  O   UNL     1     -10.757   9.121  69.906  0.00  0.00    -0.223 OA
ATOM     19  C   UNL     1     -10.935   9.586  67.675  0.00  0.00    +0.059 C 
ATOM     20  C   UNL     1     -10.262  10.576  66.749  0.00  0.00    -0.021 C 
ATOM     21  C   UNL     1     -10.791  11.794  66.890  0.00  0.00    -0.005 C 
ENDBRANCH   1  21
BRANCH   6  22
ATOM     22  C   UNL     1      -8.939  18.423  67.648  0.00  0.00    +0.022 C 
ATOM     23  C   UNL     1     -10.047  19.442  68.252  0.00  0.00    +0.005 C 
BRANCH  22  24
ATOM     24  C   UNL     1      -8.771  19.282  66.317  0.00  0.00    -0.031 C 
ATOM     25  C   UNL     1      -7.610  19.720  65.964  0.00  0.00    -0.031 C 
BRANCH  25  26
ATOM     26  C   UNL     1      -6.403  19.656  67.019  0.00  0.00    +0.022 C 
ATOM     27  C   UNL     1      -6.161  21.271  66.980  0.00  0.00    +0.005 C 
BRANCH  26  28
ATOM     28  C   UNL     1      -5.300  19.374  65.847  0.00  0.00    +0.004 C 
ATOM     29  C   UNL     1      -5.322  17.887  65.641  0.00  0.00    +0.000 C 
ATOM     30  C   UNL     1      -5.758  20.111  64.625  0.00  0.00    +0.000 C 
ENDBRANCH  26  28
ENDBRANCH  25  26
ENDBRANCH  22  24
ENDBRANCH   6  22
TORSDOF 5
ENDMDL
MODEL 7
REMARK VINA RESULT:      -6.8      4.655      7.990
REMARK  Name = 
REMARK  5 active torsions:
REMARK  status: ('A' for Active; 'I' for Inactive)
REMARK    1  A    between atoms: C_4  and  C_5
REMARK    2  A    between atoms: C_15  and  C_16
REMARK    3  A    between atoms: C_16  and  C_18
REMARK    4  A    between atoms: C_19  and  C_20
REMARK    5  A    between atoms: C_20  and  C_22
REMARK                            x       y       z     vdW  Elec       q    Type
REMARK                         _______ _______ _______ _____ _____    ______ ____
ROOT
ATOM      1  C   UNL     1      -9.570  14.567  67.425  0.00  0.00    -0.009 C 
ATOM      2  C   UNL     1     -10.264  13.477  67.651  0.00  0.00    -0.045 C 
ATOM      3  C   UNL     1      -9.389  12.200  68.079  0.00  0.00    +0.018 C 
ATOM      4  C   UNL     1      -8.359  12.389  66.830  0.00  0.00    +0.004 C 
ATOM      5  C   UNL     1      -8.514  11.205  66.031  0.00  0.00    +0.001 C 
ATOM      6  C   UNL     1      -9.137  10.172  67.117  0.00  0.00    +0.004 C 
ATOM      7  C   UNL     1     -10.380  11.176  67.272  0.00  0.00    +0.004 C 
ATOM      8  C   UNL     1     -10.827  11.712  66.029  0.00  0.00    +0.000 C 
ATOM      9  C   UNL     1     -11.265  10.858  68.370  0.00  0.00    +0.001 C 
ATOM     10  C   UNL     1     -11.988  12.077  68.800  0.00  0.00    +0.004 C 
ATOM     11  C   UNL     1     -11.544  13.393  68.351  0.00  0.00    +0.022 C 
ENDROOT
BRANCH   1  21
ATOM     12  C   UNL     1      -8.004  16.097  66.473  0.00  0.00    -0.002 C 
ATOM     13  C   UNL     1      -8.324  16.897  67.071  0.00  0.00    +0.004 C 
ATOM     14  C   UNL     1      -7.647  18.368  67.084  0.00  0.00    +0.176 C 
ATOM     15  O   UNL     1      -7.374  18.307  65.584  0.00  0.00    -0.218 OA
ATOM     16  C   UNL     1      -9.013  19.262  66.841  0.00  0.00    +0.071 C 
ATOM     17  C   UNL     1     -10.246  18.218  67.079  0.00  0.00    +0.159 C 
ATOM     18  O   UNL     1     -11.230  19.316  67.431  0.00  0.00    -0.223 OA
ATOM     19  C   UNL     1      -9.826  18.001  68.667  0.00  0.00    +0.059 C 
ATOM     20  C   UNL     1      -9.015  16.759  68.371  0.00  0.00    -0.021 C 
ATOM     21  C   UNL     1      -9.791  15.671  68.377  0.00  0.00    -0.005 C 
ENDBRANCH   1  21
BRANCH   6  22
ATOM     22  C   UNL     1      -9.766   9.222  65.857  0.00  0.00    +0.022 C 
ATOM     23  C   UNL     1     -10.305   8.060  66.852  0.00  0.00    +0.005 C 
BRANCH  22  24
ATOM     24  C   UNL     1      -8.358   8.503  65.664  0.00  0.00    -0.031 C 
ATOM     25  C   UNL     1      -7.856   8.355  64.484  0.00  0.00    -0.031 C 
BRANCH  25  26
ATOM     26  C   UNL     1      -8.786   8.624  63.205  0.00  0.00    +0.022 C 
ATOM     27  C   UNL     1      -8.036   7.485  62.306  0.00  0.00    +0.005 C 
BRANCH  26  28
ATOM     28  C   UNL     1      -7.815   9.819  62.661  0.00  0.00    +0.004 C 
ATOM     29  C   UNL     1      -7.110   9.238  61.470  0.00  0.00    +0.000 C 
ATOM     30  C   UNL     1      -8.700  10.967  62.278  0.00  0.00    +0.000 C 
ENDBRANCH  26  28
ENDBRANCH  25  26
ENDBRANCH  22  24
ENDBRANCH   6  22
TORSDOF 5
ENDMDL
MODEL 8
REMARK VINA RESULT:      -6.6      2.430      3.913
REMARK  Name = 
REMARK  5 active torsions:
REMARK  status: ('A' for Active; 'I' for Inactive)
REMARK    1  A    between atoms: C_4  and  C_5
REMARK    2  A    between atoms: C_15  and  C_16
REMARK    3  A    between atoms: C_16  and  C_18
REMARK    4  A    between atoms: C_19  and  C_20
REMARK    5  A    between atoms: C_20  and  C_22
REMARK                            x       y       z     vdW  Elec       q    Type
REMARK                         _______ _______ _______ _____ _____    ______ ____
ROOT
ATOM      1  C   UNL     1      -7.719  17.817  68.678  0.00  0.00    -0.009 C 
ATOM      2  C   UNL     1      -8.605  17.565  67.744  0.00  0.00    -0.045 C 
ATOM      3  C   UNL     1      -9.991  16.956  68.279  0.00  0.00    +0.018 C 
ATOM      4  C   UNL     1      -9.238  15.812  69.163  0.00  0.00    +0.004 C 
ATOM      5  C   UNL     1      -9.654  14.561  68.593  0.00  0.00    +0.001 C 
ATOM      6  C   UNL     1     -11.029  14.997  67.846  0.00  0.00    +0.004 C 
ATOM      7  C   UNL     1     -10.154  16.006  66.955  0.00  0.00    +0.004 C 
ATOM      8  C   UNL     1      -8.914  15.447  66.526  0.00  0.00    +0.000 C 
ATOM      9  C   UNL     1     -10.938  16.922  66.156  0.00  0.00    +0.001 C 
ATOM     10  C   UNL     1     -10.139  18.132  65.854  0.00  0.00    +0.004 C 
ATOM     11  C   UNL     1      -8.905  18.402  66.584  0.00  0.00    +0.022 C 
ENDROOT
BRANCH   1  21
ATOM     12  C   UNL     1      -5.670  17.496  69.860  0.00  0.00    -0.002 C 
ATOM     13  C   UNL     1      -5.417  18.513  69.828  0.00  0.00    +0.004 C 
ATOM     14  C   UNL     1      -4.116  19.164  70.540  0.00  0.00    +0.176 C 
ATOM     15  O   UNL     1      -3.273  17.929  70.233  0.00  0.00    -0.218 OA
ATOM     16  C   UNL     1      -3.500  19.959  69.232  0.00  0.00    +0.071 C 
ATOM     17  C   UNL     1      -4.697  19.930  68.121  0.00  0.00    +0.159 C 
ATOM     18  O   UNL     1      -4.183  21.159  67.398  0.00  0.00    -0.223 OA
ATOM     19  C   UNL     1      -5.690  20.837  69.087  0.00  0.00    +0.059 C 
ATOM     20  C   UNL     1      -6.382  19.621  69.662  0.00  0.00    -0.021 C 
ATOM     21  C   UNL     1      -7.402  19.242  68.886  0.00  0.00    -0.005 C 
ENDBRANCH   1  21
BRANCH   6  22
ATOM     22  C   UNL     1     -10.912  13.638  66.832  0.00  0.00    +0.022 C 
ATOM     23  C   UNL     1     -12.320  13.935  66.086  0.00  0.00    +0.005 C 
BRANCH  22  24
ATOM     24  C   UNL     1     -11.607  12.725  67.937  0.00  0.00    -0.031 C 
ATOM     25  C   UNL     1     -11.248  11.495  68.089  0.00  0.00    -0.031 C 
BRANCH  25  26
ATOM     26  C   UNL     1     -10.323  10.813  66.969  0.00  0.00    +0.022 C 
ATOM     27  C   UNL     1     -10.700   9.297  67.451  0.00  0.00    +0.005 C 
BRANCH  26  28
ATOM     28  C   UNL     1      -8.998  10.881  67.923  0.00  0.00    +0.004 C 
ATOM     29  C   UNL     1      -8.703   9.453  68.283  0.00  0.00    +0.000 C 
ATOM     30  C   UNL     1      -7.898  11.488  67.106  0.00  0.00    +0.000 C 
ENDBRANCH  26  28
ENDBRANCH  25  26
ENDBRANCH  22  24
ENDBRANCH   6  22
TORSDOF 5
ENDMDL
MODEL 9
REMARK VINA RESULT:      -6.6      3.656      5.492
REMARK  Name = 
REMARK  5 active torsions:
REMARK  status: ('A' for Active; 'I' for Inactive)
REMARK    1  A    between atoms: C_4  and  C_5
REMARK    2  A    between atoms: C_15  and  C_16
REMARK    3  A    between atoms: C_16  and  C_18
REMARK    4  A    between atoms: C_19  and  C_20
REMARK    5  A    between atoms: C_20  and  C_22
REMARK                            x       y       z     vdW  Elec       q    Type
REMARK                         _______ _______ _______ _____ _____    ______ ____
ROOT
ATOM      1  C   UNL     1      -6.914  18.964  65.561  0.00  0.00    -0.009 C 
ATOM      2  C   UNL     1      -8.009  18.997  66.283  0.00  0.00    -0.045 C 
ATOM      3  C   UNL     1      -7.941  18.148  67.644  0.00  0.00    +0.018 C 
ATOM      4  C   UNL     1      -7.384  16.820  66.880  0.00  0.00    +0.004 C 
ATOM      5  C   UNL     1      -8.400  15.822  67.069  0.00  0.00    +0.001 C 
ATOM      6  C   UNL     1      -9.169  16.399  68.378  0.00  0.00    +0.004 C 
ATOM      7  C   UNL     1      -9.515  17.713  67.522  0.00  0.00    +0.004 C 
ATOM      8  C   UNL     1      -9.901  17.424  66.181  0.00  0.00    +0.000 C 
ATOM      9  C   UNL     1     -10.075  18.796  68.300  0.00  0.00    +0.001 C 
ATOM     10  C   UNL     1      -9.820  20.085  67.619  0.00  0.00    +0.004 C 
ATOM     11  C   UNL     1      -8.852  20.164  66.529  0.00  0.00    +0.022 C 
ENDROOT
BRANCH   1  21
ATOM     12  C   UNL     1      -5.078  18.152  64.270  0.00  0.00    -0.002 C 
ATOM     13  C   UNL     1      -4.702  19.111  64.081  0.00  0.00    +0.004 C 
ATOM     14  C   UNL     1      -3.326  19.424  63.286  0.00  0.00    +0.176 C 
ATOM     15  O   UNL     1      -3.552  18.250  62.338  0.00  0.00    -0.218 OA
ATOM     16  C   UNL     1      -3.927  20.489  62.177  0.00  0.00    +0.071 C 
ATOM     17  C   UNL     1      -5.417  20.870  62.726  0.00  0.00    +0.159 C 
ATOM     18  O   UNL     1      -5.447  22.200  61.998  0.00  0.00    -0.223 OA
ATOM     19  C   UNL     1      -4.793  21.564  64.095  0.00  0.00    +0.059 C 
ATOM     20  C   UNL     1      -4.966  20.305  64.914  0.00  0.00    -0.021 C 
ATOM     21  C   UNL     1      -6.191  20.244  65.444  0.00  0.00    -0.005 C 
ENDBRANCH   1  21
BRANCH   6  22
ATOM     22  C   UNL     1     -10.547  15.493  67.972  0.00  0.00    +0.022 C 
ATOM     23  C   UNL     1     -11.357  15.916  69.312  0.00  0.00    +0.005 C 
BRANCH  22  24
ATOM     24  C   UNL     1      -9.930  14.199  68.667  0.00  0.00    -0.031 C 
ATOM     25  C   UNL     1     -10.143  13.027  68.172  0.00  0.00    -0.031 C 
BRANCH  25  26
ATOM     26  C   UNL     1     -11.270  12.854  67.043  0.00  0.00    +0.022 C 
ATOM     27  C   UNL     1     -11.375  11.238  67.266  0.00  0.00    +0.005 C 
BRANCH  26  28
ATOM     28  C   UNL     1     -10.157  12.706  65.856  0.00  0.00    +0.004 C 
ATOM     29  C   UNL     1     -10.238  11.271  65.421  0.00  0.00    +0.000 C 
ATOM     30  C   UNL     1     -10.557  13.643  64.757  0.00  0.00    +0.000 C 
ENDBRANCH  26  28
ENDBRANCH  25  26
ENDBRANCH  22  24
ENDBRANCH   6  22
TORSDOF 5
ENDMDL
