MODEL 1
REMARK VINA RESULT:      -6.1      0.000      0.000
REMARK  Name = 
REMARK  8 active torsions:
REMARK  status: ('A' for Active; 'I' for Inactive)
REMARK    1  A    between atoms: C_2  and  O_4
REMARK    2  A    between atoms: O_4  and  C_5
REMARK    3  A    between atoms: C_9  and  O_10
REMARK    4  A    between atoms: O_10  and  C_11
REMARK    5  A    between atoms: C_11  and  C_12
REMARK    6  A    between atoms: C_12  and  C_14
REMARK    7  A    between atoms: C_14  and  N_15
REMARK    8  A    between atoms: N_15  and  C_16
REMARK                            x       y       z     vdW  Elec       q    Type
REMARK                         _______ _______ _______ _____ _____    ______ ____
ROOT
ATOM      1  C   UNL     1     -12.345  13.939  70.670  0.00  0.00    +0.140 A 
ATOM      2  C   UNL     1     -12.143  12.602  70.340  0.00  0.00    +0.011 A 
ATOM      3  C   UNL     1     -12.738  11.599  71.241  0.00  0.00    +0.034 C 
ATOM      4  C   UNL     1     -11.577  12.220  69.129  0.00  0.00    +0.011 A 
ATOM      5  C   UNL     1     -11.807  10.851  68.569  0.00  0.00    +0.034 C 
ATOM      6  C   UNL     1     -11.070  13.185  68.266  0.00  0.00    +0.134 A 
ATOM      7  C   UNL     1     -10.824  14.418  68.863  0.00  0.00    +0.035 A 
ATOM      8  C   UNL     1     -11.498  14.826  70.009  0.00  0.00    +0.015 A 
ATOM      9  C   UNL     1     -11.589  16.266  70.403  0.00  0.00    +0.034 C 
ENDROOT
BRANCH   1  10
ATOM     10  O   UNL     1     -13.583  14.352  71.178  0.00  0.00    -0.425 OA
BRANCH  10  12
ATOM     11  C   UNL     1     -12.560  14.631  73.364  0.00  0.00    +0.122 C 
ATOM     12  C   UNL     1     -13.694  14.887  72.464  0.00  0.00    +0.322 C 
ATOM     13  O   UNL     1     -14.348  15.973  72.503  0.00  0.00    -0.250 OA
ENDBRANCH  10  12
ENDBRANCH   1  10
BRANCH   6  14
ATOM     14  O   UNL     1     -11.286  13.059  66.889  0.00  0.00    -0.473 OA
BRANCH  14  15
ATOM     15  C   UNL     1     -12.255  13.827  66.199  0.00  0.00    +0.239 C 
BRANCH  15  16
ATOM     16  C   UNL     1     -11.340  14.191  64.834  0.00  0.00    +0.213 C 
ATOM     17  O   UNL     1     -12.577  14.802  64.129  0.00  0.00    -0.218 OA
BRANCH  16  18
ATOM     18  C   UNL     1     -11.662  12.679  64.167  0.00  0.00    +0.125 C 
BRANCH  18  19
ATOM     19  N   UNL     1     -10.346  12.290  63.683  0.00  0.00    -0.217 NA
BRANCH  19  20
ATOM     20  C   UNL     1     -10.336  10.838  63.644  0.00  0.00    +0.073 C 
ATOM     21  C   UNL     1      -9.989  10.290  65.021  0.00  0.00    +0.019 C 
ATOM     22  C   UNL     1      -9.343  10.385  62.608  0.00  0.00    +0.019 C 
ENDBRANCH  19  20
ENDBRANCH  18  19
ENDBRANCH  16  18
ENDBRANCH  15  16
ENDBRANCH  14  15
ENDBRANCH   6  14
TORSDOF 8
ENDMDL
MODEL 2
REMARK VINA RESULT:      -5.9      1.831      2.783
REMARK  Name = 
REMARK  8 active torsions:
REMARK  status: ('A' for Active; 'I' for Inactive)
REMARK    1  A    between atoms: C_2  and  O_4
REMARK    2  A    between atoms: O_4  and  C_5
REMARK    3  A    between atoms: C_9  and  O_10
REMARK    4  A    between atoms: O_10  and  C_11
REMARK    5  A    between atoms: C_11  and  C_12
REMARK    6  A    between atoms: C_12  and  C_14
REMARK    7  A    between atoms: C_14  and  N_15
REMARK    8  A    between atoms: N_15  and  C_16
REMARK                            x       y       z     vdW  Elec       q    Type
REMARK                         _______ _______ _______ _____ _____    ______ ____
ROOT
ATOM      1  C   UNL     1     -12.178  14.147  70.511  0.00  0.00    +0.140 A 
ATOM      2  C   UNL     1     -12.085  12.766  70.370  0.00  0.00    +0.011 A 
ATOM      3  C   UNL     1     -12.928  11.948  71.261  0.00  0.00    +0.034 C 
ATOM      4  C   UNL     1     -11.383  12.178  69.324  0.00  0.00    +0.011 A 
ATOM      5  C   UNL     1     -11.680  10.778  68.886  0.00  0.00    +0.034 C 
ATOM      6  C   UNL     1     -10.636  12.972  68.459  0.00  0.00    +0.134 A 
ATOM      7  C   UNL     1     -10.346  14.240  68.950  0.00  0.00    +0.035 A 
ATOM      8  C   UNL     1     -11.140  14.855  69.912  0.00  0.00    +0.015 A 
ATOM      9  C   UNL     1     -11.123  16.336  70.124  0.00  0.00    +0.034 C 
ENDROOT
BRANCH   1  10
ATOM     10  O   UNL     1     -13.425  14.739  70.751  0.00  0.00    -0.425 OA
BRANCH  10  12
ATOM     11  C   UNL     1     -12.776  15.077  73.068  0.00  0.00    +0.122 C 
ATOM     12  C   UNL     1     -13.835  15.059  72.049  0.00  0.00    +0.322 C 
ATOM     13  O   UNL     1     -14.813  15.865  72.084  0.00  0.00    -0.250 OA
ENDBRANCH  10  12
ENDBRANCH   1  10
BRANCH   6  14
ATOM     14  O   UNL     1     -10.644  12.692  67.088  0.00  0.00    -0.473 OA
BRANCH  14  15
ATOM     15  C   UNL     1     -11.836  12.680  66.323  0.00  0.00    +0.239 C 
BRANCH  15  16
ATOM     16  C   UNL     1     -12.065  14.344  66.216  0.00  0.00    +0.213 C 
ATOM     17  O   UNL     1     -13.157  14.156  65.133  0.00  0.00    -0.218 OA
BRANCH  16  18
ATOM     18  C   UNL     1     -10.869  14.473  65.039  0.00  0.00    +0.125 C 
BRANCH  18  19
ATOM     19  N   UNL     1     -10.762  15.916  64.890  0.00  0.00    -0.217 NA
BRANCH  19  20
ATOM     20  C   UNL     1     -10.175  16.414  66.122  0.00  0.00    +0.073 C 
ATOM     21  C   UNL     1     -10.349  17.924  66.200  0.00  0.00    +0.019 C 
ATOM     22  C   UNL     1      -8.720  16.028  66.160  0.00  0.00    +0.019 C 
ENDBRANCH  19  20
ENDBRANCH  18  19
ENDBRANCH  16  18
ENDBRANCH  15  16
ENDBRANCH  14  15
ENDBRANCH   6  14
TORSDOF 8
ENDMDL
MODEL 3
REMARK VINA RESULT:      -5.8      3.561      6.982
REMARK  Name = 
REMARK  8 active torsions:
REMARK  status: ('A' for Active; 'I' for Inactive)
REMARK    1  A    between atoms: C_2  and  O_4
REMARK    2  A    between atoms: O_4  and  C_5
REMARK    3  A    between atoms: C_9  and  O_10
REMARK    4  A    between atoms: O_10  and  C_11
REMARK    5  A    between atoms: C_11  and  C_12
REMARK    6  A    between atoms: C_12  and  C_14
REMARK    7  A    between atoms: C_14  and  N_15
REMARK    8  A    between atoms: N_15  and  C_16
REMARK                            x       y       z     vdW  Elec       q    Type
REMARK                         _______ _______ _______ _____ _____    ______ ____
ROOT
ATOM      1  C   UNL     1      -9.269  16.455  65.955  0.00  0.00    +0.140 A 
ATOM      2  C   UNL     1      -8.319  15.879  66.793  0.00  0.00    +0.011 A 
ATOM      3  C   UNL     1      -7.022  16.570  66.902  0.00  0.00    +0.034 C 
ATOM      4  C   UNL     1      -8.627  14.815  67.634  0.00  0.00    +0.011 A 
ATOM      5  C   UNL     1      -7.800  14.528  68.849  0.00  0.00    +0.034 C 
ATOM      6  C   UNL     1      -9.877  14.210  67.556  0.00  0.00    +0.134 A 
ATOM      7  C   UNL     1     -10.568  14.470  66.377  0.00  0.00    +0.035 A 
ATOM      8  C   UNL     1     -10.323  15.609  65.618  0.00  0.00    +0.015 A 
ATOM      9  C   UNL     1     -11.318  16.132  64.631  0.00  0.00    +0.034 C 
ENDROOT
BRANCH   1  10
ATOM     10  O   UNL     1      -9.407  17.848  65.914  0.00  0.00    -0.425 OA
BRANCH  10  12
ATOM     11  C   UNL     1      -9.061  19.856  67.236  0.00  0.00    +0.122 C 
ATOM     12  C   UNL     1      -9.755  18.574  67.056  0.00  0.00    +0.322 C 
ATOM     13  O   UNL     1     -10.962  18.410  67.409  0.00  0.00    -0.250 OA
ENDBRANCH  10  12
ENDBRANCH   1  10
BRANCH   6  14
ATOM     14  O   UNL     1     -10.533  13.832  68.732  0.00  0.00    -0.473 OA
BRANCH  14  15
ATOM     15  C   UNL     1     -11.910  14.088  68.949  0.00  0.00    +0.239 C 
BRANCH  15  16
ATOM     16  C   UNL     1     -11.768  15.661  69.532  0.00  0.00    +0.213 C 
ATOM     17  O   UNL     1     -10.739  15.206  70.599  0.00  0.00    -0.218 OA
BRANCH  16  18
ATOM     18  C   UNL     1     -13.042  15.419  70.606  0.00  0.00    +0.125 C 
BRANCH  18  19
ATOM     19  N   UNL     1     -12.454  15.869  71.858  0.00  0.00    -0.217 NA
BRANCH  19  20
ATOM     20  C   UNL     1     -13.199  15.214  72.920  0.00  0.00    +0.073 C 
ATOM     21  C   UNL     1     -12.409  15.287  74.220  0.00  0.00    +0.019 C 
ATOM     22  C   UNL     1     -13.465  13.787  72.521  0.00  0.00    +0.019 C 
ENDBRANCH  19  20
ENDBRANCH  18  19
ENDBRANCH  16  18
ENDBRANCH  15  16
ENDBRANCH  14  15
ENDBRANCH   6  14
TORSDOF 8
ENDMDL
MODEL 4
REMARK VINA RESULT:      -5.7      3.108      7.022
REMARK  Name = 
REMARK  8 active torsions:
REMARK  status: ('A' for Active; 'I' for Inactive)
REMARK    1  A    between atoms: C_2  and  O_4
REMARK    2  A    between atoms: O_4  and  C_5
REMARK    3  A    between atoms: C_9  and  O_10
REMARK    4  A    between atoms: O_10  and  C_11
REMARK    5  A    between atoms: C_11  and  C_12
REMARK    6  A    between atoms: C_12  and  C_14
REMARK    7  A    between atoms: C_14  and  N_15
REMARK    8  A    between atoms: N_15  and  C_16
REMARK                            x       y       z     vdW  Elec       q    Type
REMARK                         _______ _______ _______ _____ _____    ______ ____
ROOT
ATOM      1  C   UNL     1     -11.032  11.679  65.466  0.00  0.00    +0.140 A 
ATOM      2  C   UNL     1     -11.141  11.517  66.844  0.00  0.00    +0.011 A 
ATOM      3  C   UNL     1     -10.519  10.314  67.424  0.00  0.00    +0.034 C 
ATOM      4  C   UNL     1     -11.642  12.521  67.666  0.00  0.00    +0.011 A 
ATOM      5  C   UNL     1     -11.311  12.560  69.125  0.00  0.00    +0.034 C 
ATOM      6  C   UNL     1     -12.175  13.676  67.102  0.00  0.00    +0.134 A 
ATOM      7  C   UNL     1     -12.515  13.555  65.759  0.00  0.00    +0.035 A 
ATOM      8  C   UNL     1     -11.908  12.620  64.929  0.00  0.00    +0.015 A 
ATOM      9  C   UNL     1     -11.917  12.758  63.439  0.00  0.00    +0.034 C 
ENDROOT
BRANCH   1  10
ATOM     10  O   UNL     1      -9.839  11.335  64.818  0.00  0.00    -0.425 OA
BRANCH  10  12
ATOM     11  C   UNL     1      -9.372  10.454  62.603  0.00  0.00    +0.122 C 
ATOM     12  C   UNL     1      -9.761  10.206  63.998  0.00  0.00    +0.322 C 
ATOM     13  O   UNL     1      -9.407   9.157  64.617  0.00  0.00    -0.250 OA
ENDBRANCH  10  12
ENDBRANCH   1  10
BRANCH   6  14
ATOM     14  O   UNL     1     -11.906  14.916  67.689  0.00  0.00    -0.473 OA
BRANCH  14  15
ATOM     15  C   UNL     1     -10.841  15.745  67.258  0.00  0.00    +0.239 C 
BRANCH  15  16
ATOM     16  C   UNL     1     -10.182  16.088  68.769  0.00  0.00    +0.213 C 
ATOM     17  O   UNL     1     -11.525  16.690  69.253  0.00  0.00    -0.218 OA
BRANCH  16  18
ATOM     18  C   UNL     1      -9.656  17.597  68.240  0.00  0.00    +0.125 C 
BRANCH  18  19
ATOM     19  N   UNL     1     -10.904  18.203  67.804  0.00  0.00    -0.217 NA
BRANCH  19  20
ATOM     20  C   UNL     1     -10.566  19.522  67.298  0.00  0.00    +0.073 C 
ATOM     21  C   UNL     1     -10.563  19.501  65.775  0.00  0.00    +0.019 C 
ATOM     22  C   UNL     1      -9.222  19.925  67.843  0.00  0.00    +0.019 C 
ENDBRANCH  19  20
ENDBRANCH  18  19
ENDBRANCH  16  18
ENDBRANCH  15  16
ENDBRANCH  14  15
ENDBRANCH   6  14
TORSDOF 8
ENDMDL
MODEL 5
REMARK VINA RESULT:      -5.6      2.717      7.209
REMARK  Name = 
REMARK  8 active torsions:
REMARK  status: ('A' for Active; 'I' for Inactive)
REMARK    1  A    between atoms: C_2  and  O_4
REMARK    2  A    between atoms: O_4  and  C_5
REMARK    3  A    between atoms: C_9  and  O_10
REMARK    4  A    between atoms: O_10  and  C_11
REMARK    5  A    between atoms: C_11  and  C_12
REMARK    6  A    between atoms: C_12  and  C_14
REMARK    7  A    between atoms: C_14  and  N_15
REMARK    8  A    between atoms: N_15  and  C_16
REMARK                            x       y       z     vdW  Elec       q    Type
REMARK                         _______ _______ _______ _____ _____    ______ ____
ROOT
ATOM      1  C   UNL     1     -10.845  11.530  65.907  0.00  0.00    +0.140 A 
ATOM      2  C   UNL     1     -11.166  11.028  67.165  0.00  0.00    +0.011 A 
ATOM      3  C   UNL     1     -10.735   9.650  67.458  0.00  0.00    +0.034 C 
ATOM      4  C   UNL     1     -11.695  11.833  68.167  0.00  0.00    +0.011 A 
ATOM      5  C   UNL     1     -11.577  11.448  69.608  0.00  0.00    +0.034 C 
ATOM      6  C   UNL     1     -12.045  13.150  67.885  0.00  0.00    +0.134 A 
ATOM      7  C   UNL     1     -12.195  13.427  66.530  0.00  0.00    +0.035 A 
ATOM      8  C   UNL     1     -11.553  12.676  65.551  0.00  0.00    +0.015 A 
ATOM      9  C   UNL     1     -11.335  13.200  64.167  0.00  0.00    +0.034 C 
ENDROOT
BRANCH   1  10
ATOM     10  O   UNL     1      -9.603  11.230  65.333  0.00  0.00    -0.425 OA
BRANCH  10  12
ATOM     11  C   UNL     1      -9.661  10.353  63.069  0.00  0.00    +0.122 C 
ATOM     12  C   UNL     1      -9.441  10.118  64.503  0.00  0.00    +0.322 C 
ATOM     13  O   UNL     1      -8.568   9.299  64.922  0.00  0.00    -0.250 OA
ENDBRANCH  10  12
ENDBRANCH   1  10
BRANCH   6  14
ATOM     14  O   UNL     1     -11.761  14.152  68.818  0.00  0.00    -0.473 OA
BRANCH  14  15
ATOM     15  C   UNL     1     -11.664  15.519  68.459  0.00  0.00    +0.239 C 
BRANCH  15  16
ATOM     16  C   UNL     1     -11.526  16.161  70.009  0.00  0.00    +0.213 C 
ATOM     17  O   UNL     1     -10.357  15.199  70.338  0.00  0.00    -0.218 OA
BRANCH  16  18
ATOM     18  C   UNL     1     -12.649  15.059  70.608  0.00  0.00    +0.125 C 
BRANCH  18  19
ATOM     19  N   UNL     1     -13.318  15.852  71.627  0.00  0.00    -0.217 NA
BRANCH  19  20
ATOM     20  C   UNL     1     -13.527  14.970  72.762  0.00  0.00    +0.073 C 
ATOM     21  C   UNL     1     -12.485  15.258  73.835  0.00  0.00    +0.019 C 
ATOM     22  C   UNL     1     -13.449  13.542  72.293  0.00  0.00    +0.019 C 
ENDBRANCH  19  20
ENDBRANCH  18  19
ENDBRANCH  16  18
ENDBRANCH  15  16
ENDBRANCH  14  15
ENDBRANCH   6  14
TORSDOF 8
ENDMDL
MODEL 6
REMARK VINA RESULT:      -5.6      3.424      6.796
REMARK  Name = 
REMARK  8 active torsions:
REMARK  status: ('A' for Active; 'I' for Inactive)
REMARK    1  A    between atoms: C_2  and  O_4
REMARK    2  A    between atoms: O_4  and  C_5
REMARK    3  A    between atoms: C_9  and  O_10
REMARK    4  A    between atoms: O_10  and  C_11
REMARK    5  A    between atoms: C_11  and  C_12
REMARK    6  A    between atoms: C_12  and  C_14
REMARK    7  A    between atoms: C_14  and  N_15
REMARK    8  A    between atoms: N_15  and  C_16
REMARK                            x       y       z     vdW  Elec       q    Type
REMARK                         _______ _______ _______ _____ _____    ______ ____
ROOT
ATOM      1  C   UNL     1     -11.428  12.061  66.905  0.00  0.00    +0.140 A 
ATOM      2  C   UNL     1     -11.574  12.977  67.943  0.00  0.00    +0.011 A 
ATOM      3  C   UNL     1     -11.866  14.370  67.564  0.00  0.00    +0.034 C 
ATOM      4  C   UNL     1     -11.631  12.578  69.274  0.00  0.00    +0.011 A 
ATOM      5  C   UNL     1     -12.265  13.449  70.313  0.00  0.00    +0.034 C 
ATOM      6  C   UNL     1     -11.407  11.246  69.608  0.00  0.00    +0.134 A 
ATOM      7  C   UNL     1     -10.763  10.507  68.622  0.00  0.00    +0.035 A 
ATOM      8  C   UNL     1     -10.825  10.863  67.279  0.00  0.00    +0.015 A 
ATOM      9  C   UNL     1     -10.539   9.882  66.186  0.00  0.00    +0.034 C 
ENDROOT
BRANCH   1  10
ATOM     10  O   UNL     1     -12.265  12.140  65.785  0.00  0.00    -0.425 OA
BRANCH  10  12
ATOM     11  C   UNL     1     -10.519  12.956  64.305  0.00  0.00    +0.122 C 
ATOM     12  C   UNL     1     -11.937  12.950  64.694  0.00  0.00    +0.322 C 
ATOM     13  O   UNL     1     -12.867  13.043  63.837  0.00  0.00    -0.250 OA
ENDBRANCH  10  12
ENDBRANCH   1  10
BRANCH   6  14
ATOM     14  O   UNL     1     -12.199  10.641  70.590  0.00  0.00    -0.473 OA
BRANCH  14  15
ATOM     15  C   UNL     1     -11.729   9.570  71.390  0.00  0.00    +0.239 C 
BRANCH  15  16
ATOM     16  C   UNL     1     -13.126   8.630  71.370  0.00  0.00    +0.213 C 
ATOM     17  O   UNL     1     -13.292   8.790  72.903  0.00  0.00    -0.218 OA
BRANCH  16  18
ATOM     18  C   UNL     1     -12.227   7.222  71.578  0.00  0.00    +0.125 C 
BRANCH  18  19
ATOM     19  N   UNL     1     -11.218   7.366  70.541  0.00  0.00    -0.217 NA
BRANCH  19  20
ATOM     20  C   UNL     1     -11.288   6.163  69.729  0.00  0.00    +0.073 C 
ATOM     21  C   UNL     1     -10.292   5.135  70.248  0.00  0.00    +0.019 C 
ATOM     22  C   UNL     1     -11.005   6.525  68.295  0.00  0.00    +0.019 C 
ENDBRANCH  19  20
ENDBRANCH  18  19
ENDBRANCH  16  18
ENDBRANCH  15  16
ENDBRANCH  14  15
ENDBRANCH   6  14
TORSDOF 8
ENDMDL
MODEL 7
REMARK VINA RESULT:      -5.6      2.256      3.445
REMARK  Name = 
REMARK  8 active torsions:
REMARK  status: ('A' for Active; 'I' for Inactive)
REMARK    1  A    between atoms: C_2  and  O_4
REMARK    2  A    between atoms: O_4  and  C_5
REMARK    3  A    between atoms: C_9  and  O_10
REMARK    4  A    between atoms: O_10  and  C_11
REMARK    5  A    between atoms: C_11  and  C_12
REMARK    6  A    between atoms: C_12  and  C_14
REMARK    7  A    between atoms: C_14  and  N_15
REMARK    8  A    between atoms: N_15  and  C_16
REMARK                            x       y       z     vdW  Elec       q    Type
REMARK                         _______ _______ _______ _____ _____    ______ ____
ROOT
ATOM      1  C   UNL     1     -12.351  10.785  70.651  0.00  0.00    +0.140 A 
ATOM      2  C   UNL     1     -11.359  10.511  69.715  0.00  0.00    +0.011 A 
ATOM      3  C   UNL     1     -10.902   9.113  69.619  0.00  0.00    +0.034 C 
ATOM      4  C   UNL     1     -10.946  11.456  68.782  0.00  0.00    +0.011 A 
ATOM      5  C   UNL     1     -10.279  11.042  67.507  0.00  0.00    +0.034 C 
ATOM      6  C   UNL     1     -11.431  12.758  68.854  0.00  0.00    +0.134 A 
ATOM      7  C   UNL     1     -11.985  13.098  70.084  0.00  0.00    +0.035 A 
ATOM      8  C   UNL     1     -12.503  12.138  70.946  0.00  0.00    +0.015 A 
ATOM      9  C   UNL     1     -13.476  12.487  72.027  0.00  0.00    +0.034 C 
ENDROOT
BRANCH   1  10
ATOM     10  O   UNL     1     -13.396   9.872  70.844  0.00  0.00    -0.425 OA
BRANCH  10  12
ATOM     11  C   UNL     1     -14.639   8.207  72.104  0.00  0.00    +0.122 C 
ATOM     12  C   UNL     1     -13.500   9.133  72.026  0.00  0.00    +0.322 C 
ATOM     13  O   UNL     1     -12.378   8.861  72.551  0.00  0.00    -0.250 OA
ENDBRANCH  10  12
ENDBRANCH   1  10
BRANCH   6  14
ATOM     14  O   UNL     1     -11.773  13.431  67.677  0.00  0.00    -0.473 OA
BRANCH  14  15
ATOM     15  C   UNL     1     -11.430  14.787  67.451  0.00  0.00    +0.239 C 
BRANCH  15  16
ATOM     16  C   UNL     1     -10.237  14.540  66.290  0.00  0.00    +0.213 C 
ATOM     17  O   UNL     1     -10.406  15.987  65.762  0.00  0.00    -0.218 OA
BRANCH  16  18
ATOM     18  C   UNL     1     -11.373  13.967  65.188  0.00  0.00    +0.125 C 
BRANCH  18  19
ATOM     19  N   UNL     1     -10.532  13.221  64.265  0.00  0.00    -0.217 NA
BRANCH  19  20
ATOM     20  C   UNL     1     -11.139  11.909  64.123  0.00  0.00    +0.073 C 
ATOM     21  C   UNL     1     -10.201  10.990  63.352  0.00  0.00    +0.019 C 
ATOM     22  C   UNL     1     -12.462  12.056  63.420  0.00  0.00    +0.019 C 
ENDBRANCH  19  20
ENDBRANCH  18  19
ENDBRANCH  16  18
ENDBRANCH  15  16
ENDBRANCH  14  15
ENDBRANCH   6  14
TORSDOF 8
ENDMDL
MODEL 8
REMARK VINA RESULT:      -5.5      4.710      6.886
REMARK  Name = 
REMARK  8 active torsions:
REMARK  status: ('A' for Active; 'I' for Inactive)
REMARK    1  A    between atoms: C_2  and  O_4
REMARK    2  A    between atoms: O_4  and  C_5
REMARK    3  A    between atoms: C_9  and  O_10
REMARK    4  A    between atoms: O_10  and  C_11
REMARK    5  A    between atoms: C_11  and  C_12
REMARK    6  A    between atoms: C_12  and  C_14
REMARK    7  A    between atoms: C_14  and  N_15
REMARK    8  A    between atoms: N_15  and  C_16
REMARK                            x       y       z     vdW  Elec       q    Type
REMARK                         _______ _______ _______ _____ _____    ______ ____
ROOT
ATOM      1  C   UNL     1      -6.900  18.513  68.096  0.00  0.00    +0.140 A 
ATOM      2  C   UNL     1      -7.868  19.456  67.766  0.00  0.00    +0.011 A 
ATOM      3  C   UNL     1      -7.387  20.786  67.351  0.00  0.00    +0.034 C 
ATOM      4  C   UNL     1      -9.212  19.121  67.645  0.00  0.00    +0.011 A 
ATOM      5  C   UNL     1     -10.148  19.964  66.835  0.00  0.00    +0.034 C 
ATOM      6  C   UNL     1      -9.641  17.842  67.988  0.00  0.00    +0.134 A 
ATOM      7  C   UNL     1      -8.751  17.134  68.788  0.00  0.00    +0.035 A 
ATOM      8  C   UNL     1      -7.388  17.413  68.797  0.00  0.00    +0.015 A 
ATOM      9  C   UNL     1      -6.379  16.418  69.278  0.00  0.00    +0.034 C 
ENDROOT
BRANCH   1  10
ATOM     10  O   UNL     1      -5.717  18.439  67.349  0.00  0.00    -0.425 OA
BRANCH  10  12
ATOM     11  C   UNL     1      -5.807  18.599  64.927  0.00  0.00    +0.122 C 
ATOM     12  C   UNL     1      -5.676  17.761  66.128  0.00  0.00    +0.322 C 
ATOM     13  O   UNL     1      -4.938  16.730  66.148  0.00  0.00    -0.250 OA
ENDBRANCH  10  12
ENDBRANCH   1  10
BRANCH   6  14
ATOM     14  O   UNL     1     -10.594  17.199  67.191  0.00  0.00    -0.473 OA
BRANCH  14  15
ATOM     15  C   UNL     1     -10.590  15.797  66.987  0.00  0.00    +0.239 C 
BRANCH  15  16
ATOM     16  C   UNL     1      -9.665  15.766  65.581  0.00  0.00    +0.213 C 
ATOM     17  O   UNL     1     -10.796  16.465  64.784  0.00  0.00    -0.218 OA
BRANCH  16  18
ATOM     18  C   UNL     1     -10.268  14.248  65.172  0.00  0.00    +0.125 C 
BRANCH  18  19
ATOM     19  N   UNL     1     -11.668  14.550  64.918  0.00  0.00    -0.217 NA
BRANCH  19  20
ATOM     20  C   UNL     1     -12.355  13.273  64.828  0.00  0.00    +0.073 C 
ATOM     21  C   UNL     1     -11.862  12.348  65.932  0.00  0.00    +0.019 C 
ATOM     22  C   UNL     1     -12.109  12.681  63.466  0.00  0.00    +0.019 C 
ENDBRANCH  19  20
ENDBRANCH  18  19
ENDBRANCH  16  18
ENDBRANCH  15  16
ENDBRANCH  14  15
ENDBRANCH   6  14
TORSDOF 8
ENDMDL
MODEL 9
REMARK VINA RESULT:      -5.5      4.920      7.745
REMARK  Name = 
REMARK  8 active torsions:
REMARK  status: ('A' for Active; 'I' for Inactive)
REMARK    1  A    between atoms: C_2  and  O_4
REMARK    2  A    between atoms: O_4  and  C_5
REMARK    3  A    between atoms: C_9  and  O_10
REMARK    4  A    between atoms: O_10  and  C_11
REMARK    5  A    between atoms: C_11  and  C_12
REMARK    6  A    between atoms: C_12  and  C_14
REMARK    7  A    between atoms: C_14  and  N_15
REMARK    8  A    between atoms: N_15  and  C_16
REMARK                            x       y       z     vdW  Elec       q    Type
REMARK                         _______ _______ _______ _____ _____    ______ ____
ROOT
ATOM      1  C   UNL     1      -8.176  18.827  67.167  0.00  0.00    +0.140 A 
ATOM      2  C   UNL     1      -7.855  17.536  66.757  0.00  0.00    +0.011 A 
ATOM      3  C   UNL     1      -6.423  17.219  66.623  0.00  0.00    +0.034 C 
ATOM      4  C   UNL     1      -8.815  16.534  66.660  0.00  0.00    +0.011 A 
ATOM      5  C   UNL     1      -8.428  15.089  66.710  0.00  0.00    +0.034 C 
ATOM      6  C   UNL     1     -10.159  16.842  66.845  0.00  0.00    +0.134 A 
ATOM      7  C   UNL     1     -10.460  18.195  66.728  0.00  0.00    +0.035 A 
ATOM      8  C   UNL     1      -9.506  19.182  66.952  0.00  0.00    +0.015 A 
ATOM      9  C   UNL     1      -9.886  20.594  67.268  0.00  0.00    +0.034 C 
ENDROOT
BRANCH   1  10
ATOM     10  O   UNL     1      -7.399  19.459  68.146  0.00  0.00    -0.425 OA
BRANCH  10  12
ATOM     11  C   UNL     1      -5.496  20.833  68.773  0.00  0.00    +0.122 C 
ATOM     12  C   UNL     1      -6.587  20.551  67.829  0.00  0.00    +0.322 C 
ATOM     13  O   UNL     1      -6.459  20.739  66.581  0.00  0.00    -0.250 OA
ENDBRANCH  10  12
ENDBRANCH   1  10
BRANCH   6  14
ATOM     14  O   UNL     1     -10.973  15.962  67.565  0.00  0.00    -0.473 OA
BRANCH  14  15
ATOM     15  C   UNL     1     -11.292  16.167  68.930  0.00  0.00    +0.239 C 
BRANCH  15  16
ATOM     16  C   UNL     1     -11.147  14.572  69.448  0.00  0.00    +0.213 C 
ATOM     17  O   UNL     1     -12.048  14.080  68.287  0.00  0.00    -0.218 OA
BRANCH  16  18
ATOM     18  C   UNL     1     -12.482  14.739  70.461  0.00  0.00    +0.125 C 
BRANCH  18  19
ATOM     19  N   UNL     1     -11.844  14.890  71.759  0.00  0.00    -0.217 NA
BRANCH  19  20
ATOM     20  C   UNL     1     -12.895  14.756  72.752  0.00  0.00    +0.073 C 
ATOM     21  C   UNL     1     -14.186  15.360  72.216  0.00  0.00    +0.019 C 
ATOM     22  C   UNL     1     -12.458  15.438  74.021  0.00  0.00    +0.019 C 
ENDBRANCH  19  20
ENDBRANCH  18  19
ENDBRANCH  16  18
ENDBRANCH  15  16
ENDBRANCH  14  15
ENDBRANCH   6  14
TORSDOF 8
ENDMDL
