MODEL 1
REMARK VINA RESULT:      -5.9      0.000      0.000
REMARK  Name = 
REMARK  11 active torsions:
REMARK  status: ('A' for Active; 'I' for Inactive)
REMARK    1  A    between atoms: N_4  and  C_5
REMARK    2  A    between atoms: N_4  and  C_10
REMARK    3  A    between atoms: C_5  and  C_6
REMARK    4  A    between atoms: C_6  and  C_8
REMARK    5  A    between atoms: C_13  and  C_14
REMARK    6  A    between atoms: N_16  and  C_17
REMARK    7  A    between atoms: C_17  and  C_18
REMARK    8  A    between atoms: C_22  and  C_23
REMARK    9  A    between atoms: N_25  and  C_26
REMARK   10  A    between atoms: C_26  and  C_27
REMARK   11  A    between atoms: C_27  and  C_29
REMARK                            x       y       z     vdW  Elec       q    Type
REMARK                         _______ _______ _______ _____ _____    ______ ____
ROOT
ATOM      1  C   UNL     1     -10.577  14.553  67.744  0.00  0.00    +0.065 A 
ATOM      2  C   UNL     1     -10.516  13.180  67.943  0.00  0.00    +0.049 A 
ATOM      3  I   UNL     1      -9.093  12.010  66.967  0.00  0.00    -0.041 I 
ATOM      4  C   UNL     1     -11.235  12.551  68.954  0.00  0.00    +0.067 A 
ATOM      5  C   UNL     1     -11.938  13.287  69.867  0.00  0.00    +0.040 A 
ATOM      6  I   UNL     1     -12.788  12.310  71.536  0.00  0.00    -0.042 I 
ATOM      7  C   UNL     1     -11.973  14.669  69.729  0.00  0.00    +0.067 A 
ATOM      8  C   UNL     1     -11.160  15.273  68.776  0.00  0.00    +0.049 A 
ATOM      9  I   UNL     1     -10.557  17.246  69.160  0.00  0.00    -0.041 I 
ENDROOT
BRANCH   1  12
ATOM     10  C   UNL     1     -10.626  15.959  65.597  0.00  0.00    +0.095 C 
ATOM     11  C   UNL     1     -10.724  15.623  65.600  0.00  0.00    +0.230 C 
ATOM     12  N   UNL     1      -9.902  15.197  66.645  0.00  0.00    -0.255 N 
ATOM     13  O   UNL     1     -10.598  15.913  64.431  0.00  0.00    -0.275 OA
BRANCH  12  14
ATOM     14  C   UNL     1      -8.929  16.268  66.939  0.00  0.00    +0.134 C 
BRANCH  14  15
ATOM     15  C   UNL     1      -7.455  15.528  66.901  0.00  0.00    +0.205 C 
ATOM     16  O   UNL     1      -7.308  15.673  68.411  0.00  0.00    -0.218 OA
BRANCH  15  17
ATOM     17  C   UNL     1      -6.643  16.940  66.624  0.00  0.00    +0.217 C 
ATOM     18  O   UNL     1      -7.536  17.506  65.695  0.00  0.00    -0.218 OA
ENDBRANCH  15  17
ENDBRANCH  14  15
ENDBRANCH  12  14
ENDBRANCH   1  12
BRANCH   4  19
ATOM     19  C   UNL     1     -11.470  11.099  68.912  0.00  0.00    +0.266 C 
ATOM     20  N   UNL     1     -10.688  10.171  69.634  0.00  0.00    -0.199 NA
ATOM     21  O   UNL     1     -12.095  10.694  67.886  0.00  0.00    -0.268 OA
BRANCH  20  22
ATOM     22  C   UNL     1     -10.594   8.766  69.261  0.00  0.00    +0.151 C 
BRANCH  22  23
ATOM     23  C   UNL     1     -11.268   7.988  70.557  0.00  0.00    +0.206 C 
ATOM     24  O   UNL     1     -10.143   6.962  70.584  0.00  0.00    -0.218 OA
BRANCH  23  25
ATOM     25  C   UNL     1     -10.467   8.966  71.623  0.00  0.00    +0.217 C 
ATOM     26  O   UNL     1      -9.998   8.117  72.608  0.00  0.00    -0.218 OA
ENDBRANCH  23  25
ENDBRANCH  22  23
ENDBRANCH  20  22
ENDBRANCH   4  19
BRANCH   7  27
ATOM     27  C   UNL     1     -12.466  15.444  70.876  0.00  0.00    +0.266 C 
ATOM     28  N   UNL     1     -11.764  15.449  72.125  0.00  0.00    -0.199 NA
ATOM     29  O   UNL     1     -13.714  15.649  70.977  0.00  0.00    -0.268 OA
BRANCH  28  30
ATOM     30  C   UNL     1     -12.190  16.347  73.171  0.00  0.00    +0.151 C 
BRANCH  30  31
ATOM     31  C   UNL     1     -12.479  15.563  74.442  0.00  0.00    +0.205 C 
ATOM     32  O   UNL     1     -12.456  16.487  75.487  0.00  0.00    -0.218 OA
ENDBRANCH  30  31
ENDBRANCH  28  30
ENDBRANCH   7  27
TORSDOF 11
ENDMDL
MODEL 2
REMARK VINA RESULT:      -5.7      4.159      6.274
REMARK  Name = 
REMARK  11 active torsions:
REMARK  status: ('A' for Active; 'I' for Inactive)
REMARK    1  A    between atoms: N_4  and  C_5
REMARK    2  A    between atoms: N_4  and  C_10
REMARK    3  A    between atoms: C_5  and  C_6
REMARK    4  A    between atoms: C_6  and  C_8
REMARK    5  A    between atoms: C_13  and  C_14
REMARK    6  A    between atoms: N_16  and  C_17
REMARK    7  A    between atoms: C_17  and  C_18
REMARK    8  A    between atoms: C_22  and  C_23
REMARK    9  A    between atoms: N_25  and  C_26
REMARK   10  A    between atoms: C_26  and  C_27
REMARK   11  A    between atoms: C_27  and  C_29
REMARK                            x       y       z     vdW  Elec       q    Type
REMARK                         _______ _______ _______ _____ _____    ______ ____
ROOT
ATOM      1  C   UNL     1      -9.240  13.436  66.923  0.00  0.00    +0.065 A 
ATOM      2  C   UNL     1      -7.991  12.880  67.168  0.00  0.00    +0.049 A 
ATOM      3  I   UNL     1      -7.593  10.883  66.722  0.00  0.00    -0.041 I 
ATOM      4  C   UNL     1      -6.892  13.661  67.507  0.00  0.00    +0.067 A 
ATOM      5  C   UNL     1      -6.979  15.026  67.492  0.00  0.00    +0.040 A 
ATOM      6  I   UNL     1      -5.220  16.169  67.748  0.00  0.00    -0.042 I 
ATOM      7  C   UNL     1      -8.201  15.616  67.194  0.00  0.00    +0.067 A 
ATOM      8  C   UNL     1      -9.249  14.813  66.757  0.00  0.00    +0.049 A 
ATOM      9  I   UNL     1     -10.681  15.718  65.519  0.00  0.00    -0.041 I 
ENDROOT
BRANCH   1  12
ATOM     10  C   UNL     1     -11.545  12.531  67.596  0.00  0.00    +0.095 C 
ATOM     11  C   UNL     1     -11.250  12.413  67.744  0.00  0.00    +0.230 C 
ATOM     12  N   UNL     1     -10.400  12.623  66.657  0.00  0.00    -0.255 N 
ATOM     13  O   UNL     1     -12.109  11.622  68.061  0.00  0.00    -0.275 OA
BRANCH  12  14
ATOM     14  C   UNL     1     -11.226  12.931  65.472  0.00  0.00    +0.134 C 
BRANCH  14  15
ATOM     15  C   UNL     1     -11.055  11.622  64.481  0.00  0.00    +0.205 C 
ATOM     16  O   UNL     1     -10.058  12.373  63.609  0.00  0.00    -0.218 OA
BRANCH  15  17
ATOM     17  C   UNL     1     -12.324  12.063  63.518  0.00  0.00    +0.217 C 
ATOM     18  O   UNL     1     -13.226  12.436  64.533  0.00  0.00    -0.218 OA
ENDBRANCH  15  17
ENDBRANCH  14  15
ENDBRANCH  12  14
ENDBRANCH   1  12
BRANCH   4  19
ATOM     19  C   UNL     1      -5.707  13.054  68.134  0.00  0.00    +0.266 C 
ATOM     20  N   UNL     1      -5.500  13.034  69.532  0.00  0.00    -0.199 NA
ATOM     21  O   UNL     1      -4.698  12.954  67.372  0.00  0.00    -0.268 OA
BRANCH  20  22
ATOM     22  C   UNL     1      -4.180  12.875  70.127  0.00  0.00    +0.151 C 
BRANCH  22  23
ATOM     23  C   UNL     1      -4.325  13.663  71.575  0.00  0.00    +0.206 C 
ATOM     24  O   UNL     1      -5.783  13.244  71.710  0.00  0.00    -0.218 OA
BRANCH  23  25
ATOM     25  C   UNL     1      -3.813  12.330  72.408  0.00  0.00    +0.217 C 
ATOM     26  O   UNL     1      -4.969  11.653  72.749  0.00  0.00    -0.218 OA
ENDBRANCH  23  25
ENDBRANCH  22  23
ENDBRANCH  20  22
ENDBRANCH   4  19
BRANCH   7  27
ATOM     27  C   UNL     1      -8.194  17.053  66.886  0.00  0.00    +0.266 C 
ATOM     28  N   UNL     1      -8.926  17.987  67.689  0.00  0.00    -0.199 NA
ATOM     29  O   UNL     1      -8.034  17.412  65.680  0.00  0.00    -0.268 OA
BRANCH  28  30
ATOM     30  C   UNL     1      -8.762  19.401  67.451  0.00  0.00    +0.151 C 
BRANCH  30  31
ATOM     31  C   UNL     1     -10.111  20.035  67.147  0.00  0.00    +0.205 C 
ATOM     32  O   UNL     1     -11.076  19.087  67.484  0.00  0.00    -0.218 OA
ENDBRANCH  30  31
ENDBRANCH  28  30
ENDBRANCH   7  27
TORSDOF 11
ENDMDL
MODEL 3
REMARK VINA RESULT:      -5.6      4.285      6.430
REMARK  Name = 
REMARK  11 active torsions:
REMARK  status: ('A' for Active; 'I' for Inactive)
REMARK    1  A    between atoms: N_4  and  C_5
REMARK    2  A    between atoms: N_4  and  C_10
REMARK    3  A    between atoms: C_5  and  C_6
REMARK    4  A    between atoms: C_6  and  C_8
REMARK    5  A    between atoms: C_13  and  C_14
REMARK    6  A    between atoms: N_16  and  C_17
REMARK    7  A    between atoms: C_17  and  C_18
REMARK    8  A    between atoms: C_22  and  C_23
REMARK    9  A    between atoms: N_25  and  C_26
REMARK   10  A    between atoms: C_26  and  C_27
REMARK   11  A    between atoms: C_27  and  C_29
REMARK                            x       y       z     vdW  Elec       q    Type
REMARK                         _______ _______ _______ _____ _____    ______ ____
ROOT
ATOM      1  C   UNL     1      -8.680  16.006  68.542  0.00  0.00    +0.065 A 
ATOM      2  C   UNL     1      -7.909  14.867  68.736  0.00  0.00    +0.049 A 
ATOM      3  I   UNL     1      -8.535  13.008  68.029  0.00  0.00    -0.041 I 
ATOM      4  C   UNL     1      -6.601  14.935  69.202  0.00  0.00    +0.067 A 
ATOM      5  C   UNL     1      -5.987  16.144  69.372  0.00  0.00    +0.040 A 
ATOM      6  I   UNL     1      -3.922  16.192  69.819  0.00  0.00    -0.042 I 
ATOM      7  C   UNL     1      -6.713  17.304  69.131  0.00  0.00    +0.067 A 
ATOM      8  C   UNL     1      -7.979  17.202  68.566  0.00  0.00    +0.049 A 
ATOM      9  I   UNL     1      -8.644  18.839  67.433  0.00  0.00    -0.041 I 
ENDROOT
BRANCH   1  12
ATOM     10  C   UNL     1     -11.165  16.485  68.970  0.00  0.00    +0.095 C 
ATOM     11  C   UNL     1     -10.994  16.231  69.140  0.00  0.00    +0.230 C 
ATOM     12  N   UNL     1     -10.063  15.935  68.142  0.00  0.00    -0.255 N 
ATOM     13  O   UNL     1     -12.169  16.026  69.349  0.00  0.00    -0.275 OA
BRANCH  12  14
ATOM     14  C   UNL     1     -10.479  16.616  66.900  0.00  0.00    +0.134 C 
BRANCH  14  15
ATOM     15  C   UNL     1     -10.045  15.588  65.684  0.00  0.00    +0.205 C 
ATOM     16  O   UNL     1     -10.674  16.504  64.642  0.00  0.00    -0.218 OA
BRANCH  15  17
ATOM     17  C   UNL     1     -11.426  14.690  65.818  0.00  0.00    +0.217 C 
ATOM     18  O   UNL     1     -11.956  14.944  64.539  0.00  0.00    -0.218 OA
ENDBRANCH  15  17
ENDBRANCH  14  15
ENDBRANCH  12  14
ENDBRANCH   1  12
BRANCH   4  19
ATOM     19  C   UNL     1      -5.945  13.744  69.765  0.00  0.00    +0.266 C 
ATOM     20  N   UNL     1      -5.895  13.476  71.151  0.00  0.00    -0.199 NA
ATOM     21  O   UNL     1      -5.067  13.219  69.015  0.00  0.00    -0.268 OA
BRANCH  20  22
ATOM     22  C   UNL     1      -4.893  12.601  71.745  0.00  0.00    +0.151 C 
BRANCH  22  23
ATOM     23  C   UNL     1      -4.346  13.479  73.036  0.00  0.00    +0.206 C 
ATOM     24  O   UNL     1      -5.767  13.838  73.452  0.00  0.00    -0.218 OA
BRANCH  23  25
ATOM     25  C   UNL     1      -4.347  12.142  74.009  0.00  0.00    +0.217 C 
ATOM     26  O   UNL     1      -5.432  12.308  74.849  0.00  0.00    -0.218 OA
ENDBRANCH  23  25
ENDBRANCH  22  23
ENDBRANCH  20  22
ENDBRANCH   4  19
BRANCH   7  27
ATOM     27  C   UNL     1      -5.955  18.559  69.022  0.00  0.00    +0.266 C 
ATOM     28  N   UNL     1      -6.259  19.684  69.856  0.00  0.00    -0.199 NA
ATOM     29  O   UNL     1      -5.443  18.861  67.902  0.00  0.00    -0.268 OA
BRANCH  28  30
ATOM     30  C   UNL     1      -5.390  20.835  69.831  0.00  0.00    +0.151 C 
BRANCH  30  31
ATOM     31  C   UNL     1      -4.420  20.779  71.001  0.00  0.00    +0.205 C 
ATOM     32  O   UNL     1      -4.373  22.066  71.535  0.00  0.00    -0.218 OA
ENDBRANCH  30  31
ENDBRANCH  28  30
ENDBRANCH   7  27
TORSDOF 11
ENDMDL
MODEL 4
REMARK VINA RESULT:      -5.4      3.848      6.778
REMARK  Name = 
REMARK  11 active torsions:
REMARK  status: ('A' for Active; 'I' for Inactive)
REMARK    1  A    between atoms: N_4  and  C_5
REMARK    2  A    between atoms: N_4  and  C_10
REMARK    3  A    between atoms: C_5  and  C_6
REMARK    4  A    between atoms: C_6  and  C_8
REMARK    5  A    between atoms: C_13  and  C_14
REMARK    6  A    between atoms: N_16  and  C_17
REMARK    7  A    between atoms: C_17  and  C_18
REMARK    8  A    between atoms: C_22  and  C_23
REMARK    9  A    between atoms: N_25  and  C_26
REMARK   10  A    between atoms: C_26  and  C_27
REMARK   11  A    between atoms: C_27  and  C_29
REMARK                            x       y       z     vdW  Elec       q    Type
REMARK                         _______ _______ _______ _____ _____    ______ ____
ROOT
ATOM      1  C   UNL     1      -7.208  18.071  68.748  0.00  0.00    +0.065 A 
ATOM      2  C   UNL     1      -8.574  17.883  68.579  0.00  0.00    +0.049 A 
ATOM      3  I   UNL     1      -9.813  19.452  67.989  0.00  0.00    -0.041 I 
ATOM      4  C   UNL     1      -9.147  16.617  68.574  0.00  0.00    +0.067 A 
ATOM      5  C   UNL     1      -8.361  15.499  68.615  0.00  0.00    +0.040 A 
ATOM      6  I   UNL     1      -9.254  13.605  68.332  0.00  0.00    -0.042 I 
ATOM      7  C   UNL     1      -6.984  15.652  68.726  0.00  0.00    +0.067 A 
ATOM      8  C   UNL     1      -6.436  16.926  68.621  0.00  0.00    +0.049 A 
ATOM      9  I   UNL     1      -4.465  17.053  67.912  0.00  0.00    -0.041 I 
ENDROOT
BRANCH   1  12
ATOM     10  C   UNL     1      -5.876  19.845  70.037  0.00  0.00    +0.095 C 
ATOM     11  C   UNL     1      -6.208  19.771  70.117  0.00  0.00    +0.230 C 
ATOM     12  N   UNL     1      -6.622  19.385  68.840  0.00  0.00    -0.255 N 
ATOM     13  O   UNL     1      -5.962  20.804  70.696  0.00  0.00    -0.275 OA
BRANCH  12  14
ATOM     14  C   UNL     1      -5.571  19.763  67.874  0.00  0.00    +0.134 C 
BRANCH  14  15
ATOM     15  C   UNL     1      -6.314  20.784  66.812  0.00  0.00    +0.205 C 
ATOM     16  O   UNL     1      -6.490  19.657  65.803  0.00  0.00    -0.218 OA
BRANCH  15  17
ATOM     17  C   UNL     1      -4.889  21.262  66.124  0.00  0.00    +0.217 C 
ATOM     18  O   UNL     1      -4.019  20.833  67.144  0.00  0.00    -0.218 OA
ENDBRANCH  15  17
ENDBRANCH  14  15
ENDBRANCH  12  14
ENDBRANCH   1  12
BRANCH   4  19
ATOM     19  C   UNL     1     -10.593  16.449  68.787  0.00  0.00    +0.266 C 
ATOM     20  N   UNL     1     -11.165  16.245  70.062  0.00  0.00    -0.199 NA
ATOM     21  O   UNL     1     -11.236  16.058  67.766  0.00  0.00    -0.268 OA
BRANCH  20  22
ATOM     22  C   UNL     1     -12.473  15.630  70.247  0.00  0.00    +0.151 C 
BRANCH  22  23
ATOM     23  C   UNL     1     -12.326  14.868  71.708  0.00  0.00    +0.206 C 
ATOM     24  O   UNL     1     -12.214  16.198  72.442  0.00  0.00    -0.218 OA
BRANCH  23  25
ATOM     25  C   UNL     1     -13.967  14.838  71.913  0.00  0.00    +0.217 C 
ATOM     26  O   UNL     1     -14.272  16.024  72.554  0.00  0.00    -0.218 OA
ENDBRANCH  23  25
ENDBRANCH  22  23
ENDBRANCH  20  22
ENDBRANCH   4  19
BRANCH   7  27
ATOM     27  C   UNL     1      -6.155  14.468  68.460  0.00  0.00    +0.266 C 
ATOM     28  N   UNL     1      -5.317  13.906  69.478  0.00  0.00    -0.199 NA
ATOM     29  O   UNL     1      -5.744  14.270  67.276  0.00  0.00    -0.268 OA
BRANCH  28  30
ATOM     30  C   UNL     1      -4.646  12.654  69.228  0.00  0.00    +0.151 C 
BRANCH  30  31
ATOM     31  C   UNL     1      -5.120  11.603  70.219  0.00  0.00    +0.205 C 
ATOM     32  O   UNL     1      -5.717  12.297  71.272  0.00  0.00    -0.218 OA
ENDBRANCH  30  31
ENDBRANCH  28  30
ENDBRANCH   7  27
TORSDOF 11
ENDMDL
MODEL 5
REMARK VINA RESULT:      -5.4      4.161      6.633
REMARK  Name = 
REMARK  11 active torsions:
REMARK  status: ('A' for Active; 'I' for Inactive)
REMARK    1  A    between atoms: N_4  and  C_5
REMARK    2  A    between atoms: N_4  and  C_10
REMARK    3  A    between atoms: C_5  and  C_6
REMARK    4  A    between atoms: C_6  and  C_8
REMARK    5  A    between atoms: C_13  and  C_14
REMARK    6  A    between atoms: N_16  and  C_17
REMARK    7  A    between atoms: C_17  and  C_18
REMARK    8  A    between atoms: C_22  and  C_23
REMARK    9  A    between atoms: N_25  and  C_26
REMARK   10  A    between atoms: C_26  and  C_27
REMARK   11  A    between atoms: C_27  and  C_29
REMARK                            x       y       z     vdW  Elec       q    Type
REMARK                         _______ _______ _______ _____ _____    ______ ____
ROOT
ATOM      1  C   UNL     1      -9.275  13.340  66.903  0.00  0.00    +0.065 A 
ATOM      2  C   UNL     1      -8.024  12.778  67.118  0.00  0.00    +0.049 A 
ATOM      3  I   UNL     1      -7.632  10.793  66.616  0.00  0.00    -0.041 I 
ATOM      4  C   UNL     1      -6.920  13.550  67.463  0.00  0.00    +0.067 A 
ATOM      5  C   UNL     1      -7.007  14.914  67.484  0.00  0.00    +0.040 A 
ATOM      6  I   UNL     1      -5.245  16.051  67.746  0.00  0.00    -0.042 I 
ATOM      7  C   UNL     1      -8.233  15.512  67.217  0.00  0.00    +0.067 A 
ATOM      8  C   UNL     1      -9.287  14.720  66.773  0.00  0.00    +0.049 A 
ATOM      9  I   UNL     1     -10.734  15.657  65.577  0.00  0.00    -0.041 I 
ENDROOT
BRANCH   1  12
ATOM     10  C   UNL     1     -11.579  12.430  67.576  0.00  0.00    +0.095 C 
ATOM     11  C   UNL     1     -11.284  12.309  67.721  0.00  0.00    +0.230 C 
ATOM     12  N   UNL     1     -10.439  12.534  66.631  0.00  0.00    -0.255 N 
ATOM     13  O   UNL     1     -12.142  11.514  68.030  0.00  0.00    -0.275 OA
BRANCH  12  14
ATOM     14  C   UNL     1     -11.271  12.862  65.456  0.00  0.00    +0.134 C 
BRANCH  14  15
ATOM     15  C   UNL     1     -11.069  11.593  64.422  0.00  0.00    +0.205 C 
ATOM     16  O   UNL     1     -10.111  12.406  63.561  0.00  0.00    -0.218 OA
BRANCH  15  17
ATOM     17  C   UNL     1     -12.366  12.018  63.490  0.00  0.00    +0.217 C 
ATOM     18  O   UNL     1     -13.237  12.409  64.525  0.00  0.00    -0.218 OA
ENDBRANCH  15  17
ENDBRANCH  14  15
ENDBRANCH  12  14
ENDBRANCH   1  12
BRANCH   4  19
ATOM     19  C   UNL     1      -5.728  12.927  68.059  0.00  0.00    +0.266 C 
ATOM     20  N   UNL     1      -4.631  12.473  67.293  0.00  0.00    -0.199 NA
ATOM     21  O   UNL     1      -5.913  12.424  69.208  0.00  0.00    -0.268 OA
BRANCH  20  22
ATOM     22  C   UNL     1      -3.694  11.470  67.782  0.00  0.00    +0.151 C 
BRANCH  22  23
ATOM     23  C   UNL     1      -2.557  11.403  66.582  0.00  0.00    +0.206 C 
ATOM     24  O   UNL     1      -2.319   9.919  66.828  0.00  0.00    -0.218 OA
BRANCH  23  25
ATOM     25  C   UNL     1      -3.710  11.079  65.441  0.00  0.00    +0.217 C 
ATOM     26  O   UNL     1      -3.298  11.760  64.311  0.00  0.00    -0.218 OA
ENDBRANCH  23  25
ENDBRANCH  22  23
ENDBRANCH  20  22
ENDBRANCH   4  19
BRANCH   7  27
ATOM     27  C   UNL     1      -8.229  16.956  66.945  0.00  0.00    +0.266 C 
ATOM     28  N   UNL     1      -8.911  17.875  67.808  0.00  0.00    -0.199 NA
ATOM     29  O   UNL     1      -8.128  17.345  65.742  0.00  0.00    -0.268 OA
BRANCH  28  30
ATOM     30  C   UNL     1      -8.748  19.293  67.598  0.00  0.00    +0.151 C 
BRANCH  30  31
ATOM     31  C   UNL     1     -10.097  19.990  67.690  0.00  0.00    +0.205 C 
ATOM     32  O   UNL     1     -11.063  18.999  67.518  0.00  0.00    -0.218 OA
ENDBRANCH  30  31
ENDBRANCH  28  30
ENDBRANCH   7  27
TORSDOF 11
ENDMDL
MODEL 6
REMARK VINA RESULT:      -5.3      4.972      9.293
REMARK  Name = 
REMARK  11 active torsions:
REMARK  status: ('A' for Active; 'I' for Inactive)
REMARK    1  A    between atoms: N_4  and  C_5
REMARK    2  A    between atoms: N_4  and  C_10
REMARK    3  A    between atoms: C_5  and  C_6
REMARK    4  A    between atoms: C_6  and  C_8
REMARK    5  A    between atoms: C_13  and  C_14
REMARK    6  A    between atoms: N_16  and  C_17
REMARK    7  A    between atoms: C_17  and  C_18
REMARK    8  A    between atoms: C_22  and  C_23
REMARK    9  A    between atoms: N_25  and  C_26
REMARK   10  A    between atoms: C_26  and  C_27
REMARK   11  A    between atoms: C_27  and  C_29
REMARK                            x       y       z     vdW  Elec       q    Type
REMARK                         _______ _______ _______ _____ _____    ______ ____
ROOT
ATOM      1  C   UNL     1      -8.637  17.000  67.038  0.00  0.00    +0.065 A 
ATOM      2  C   UNL     1      -8.365  18.281  66.573  0.00  0.00    +0.049 A 
ATOM      3  I   UNL     1      -9.844  19.749  66.530  0.00  0.00    -0.041 I 
ATOM      4  C   UNL     1      -7.067  18.714  66.327  0.00  0.00    +0.067 A 
ATOM      5  C   UNL     1      -5.999  17.925  66.652  0.00  0.00    +0.040 A 
ATOM      6  I   UNL     1      -4.050  18.729  66.514  0.00  0.00    -0.042 I 
ATOM      7  C   UNL     1      -6.235  16.659  67.174  0.00  0.00    +0.067 A 
ATOM      8  C   UNL     1      -7.537  16.298  67.506  0.00  0.00    +0.049 A 
ATOM      9  I   UNL     1      -7.763  14.871  69.028  0.00  0.00    -0.041 I 
ENDROOT
BRANCH   1  12
ATOM     10  C   UNL     1     -10.856  16.969  68.325  0.00  0.00    +0.095 C 
ATOM     11  C   UNL     1     -10.571  16.807  68.446  0.00  0.00    +0.230 C 
ATOM     12  N   UNL     1      -9.984  16.520  67.211  0.00  0.00    -0.255 N 
ATOM     13  O   UNL     1     -11.489  16.386  69.113  0.00  0.00    -0.275 OA
BRANCH  12  14
ATOM     14  C   UNL     1     -10.976  16.788  66.151  0.00  0.00    +0.134 C 
BRANCH  14  15
ATOM     15  C   UNL     1     -10.620  15.712  64.952  0.00  0.00    +0.205 C 
ATOM     16  O   UNL     1     -11.461  16.497  63.953  0.00  0.00    -0.218 OA
BRANCH  15  17
ATOM     17  C   UNL     1     -11.885  14.720  65.332  0.00  0.00    +0.217 C 
ATOM     18  O   UNL     1     -12.540  14.742  64.086  0.00  0.00    -0.218 OA
ENDBRANCH  15  17
ENDBRANCH  14  15
ENDBRANCH  12  14
ENDBRANCH   1  12
BRANCH   4  19
ATOM     19  C   UNL     1      -6.819  19.895  65.486  0.00  0.00    +0.266 C 
ATOM     20  N   UNL     1      -6.489  19.809  64.115  0.00  0.00    -0.199 NA
ATOM     21  O   UNL     1      -6.483  20.938  66.124  0.00  0.00    -0.268 OA
BRANCH  20  22
ATOM     22  C   UNL     1      -5.804  20.880  63.404  0.00  0.00    +0.151 C 
BRANCH  22  23
ATOM     23  C   UNL     1      -5.802  20.348  61.837  0.00  0.00    +0.206 C 
ATOM     24  O   UNL     1      -4.506  21.091  61.538  0.00  0.00    -0.218 OA
BRANCH  23  25
ATOM     25  C   UNL     1      -4.977  18.976  62.252  0.00  0.00    +0.217 C 
ATOM     26  O   UNL     1      -3.645  19.280  62.042  0.00  0.00    -0.218 OA
ENDBRANCH  23  25
ENDBRANCH  22  23
ENDBRANCH  20  22
ENDBRANCH   4  19
BRANCH   7  27
ATOM     27  C   UNL     1      -5.096  15.966  67.792  0.00  0.00    +0.266 C 
ATOM     28  N   UNL     1      -4.406  16.529  68.915  0.00  0.00    -0.199 NA
ATOM     29  O   UNL     1      -4.384  15.206  67.068  0.00  0.00    -0.268 OA
BRANCH  28  30
ATOM     30  C   UNL     1      -3.402  15.745  69.592  0.00  0.00    +0.151 C 
BRANCH  30  31
ATOM     31  C   UNL     1      -4.012  15.053  70.801  0.00  0.00    +0.205 C 
ATOM     32  O   UNL     1      -4.670  16.043  71.531  0.00  0.00    -0.218 OA
ENDBRANCH  30  31
ENDBRANCH  28  30
ENDBRANCH   7  27
TORSDOF 11
ENDMDL
MODEL 7
REMARK VINA RESULT:      -5.3      4.251      6.659
REMARK  Name = 
REMARK  11 active torsions:
REMARK  status: ('A' for Active; 'I' for Inactive)
REMARK    1  A    between atoms: N_4  and  C_5
REMARK    2  A    between atoms: N_4  and  C_10
REMARK    3  A    between atoms: C_5  and  C_6
REMARK    4  A    between atoms: C_6  and  C_8
REMARK    5  A    between atoms: C_13  and  C_14
REMARK    6  A    between atoms: N_16  and  C_17
REMARK    7  A    between atoms: C_17  and  C_18
REMARK    8  A    between atoms: C_22  and  C_23
REMARK    9  A    between atoms: N_25  and  C_26
REMARK   10  A    between atoms: C_26  and  C_27
REMARK   11  A    between atoms: C_27  and  C_29
REMARK                            x       y       z     vdW  Elec       q    Type
REMARK                         _______ _______ _______ _____ _____    ______ ____
ROOT
ATOM      1  C   UNL     1      -8.735  16.112  68.488  0.00  0.00    +0.065 A 
ATOM      2  C   UNL     1      -7.960  14.976  68.684  0.00  0.00    +0.049 A 
ATOM      3  I   UNL     1      -8.559  13.121  67.946  0.00  0.00    -0.041 I 
ATOM      4  C   UNL     1      -6.662  15.048  69.176  0.00  0.00    +0.067 A 
ATOM      5  C   UNL     1      -6.059  16.259  69.370  0.00  0.00    +0.040 A 
ATOM      6  I   UNL     1      -4.004  16.317  69.858  0.00  0.00    -0.042 I 
ATOM      7  C   UNL     1      -6.789  17.417  69.128  0.00  0.00    +0.067 A 
ATOM      8  C   UNL     1      -8.043  17.313  68.537  0.00  0.00    +0.049 A 
ATOM      9  I   UNL     1      -8.697  18.957  67.409  0.00  0.00    -0.041 I 
ENDROOT
BRANCH   1  12
ATOM     10  C   UNL     1     -11.234  16.540  68.888  0.00  0.00    +0.095 C 
ATOM     11  C   UNL     1     -11.063  16.282  69.051  0.00  0.00    +0.230 C 
ATOM     12  N   UNL     1     -10.110  16.036  68.060  0.00  0.00    -0.255 N 
ATOM     13  O   UNL     1     -12.238  16.053  69.231  0.00  0.00    -0.275 OA
BRANCH  12  14
ATOM     14  C   UNL     1     -10.514  16.755  66.836  0.00  0.00    +0.134 C 
BRANCH  14  15
ATOM     15  C   UNL     1     -10.094  15.753  65.594  0.00  0.00    +0.205 C 
ATOM     16  O   UNL     1     -10.781  16.664  64.585  0.00  0.00    -0.218 OA
BRANCH  15  17
ATOM     17  C   UNL     1     -11.445  14.817  65.763  0.00  0.00    +0.217 C 
ATOM     18  O   UNL     1     -11.936  14.934  64.449  0.00  0.00    -0.218 OA
ENDBRANCH  15  17
ENDBRANCH  14  15
ENDBRANCH  12  14
ENDBRANCH   1  12
BRANCH   4  19
ATOM     19  C   UNL     1      -6.009  13.856  69.739  0.00  0.00    +0.266 C 
ATOM     20  N   UNL     1      -5.950  13.593  71.126  0.00  0.00    -0.199 NA
ATOM     21  O   UNL     1      -5.139  13.323  68.986  0.00  0.00    -0.268 OA
BRANCH  20  22
ATOM     22  C   UNL     1      -4.949  12.714  71.717  0.00  0.00    +0.151 C 
BRANCH  22  23
ATOM     23  C   UNL     1      -4.422  13.575  73.028  0.00  0.00    +0.206 C 
ATOM     24  O   UNL     1      -5.849  13.920  73.432  0.00  0.00    -0.218 OA
BRANCH  23  25
ATOM     25  C   UNL     1      -4.429  12.222  73.980  0.00  0.00    +0.217 C 
ATOM     26  O   UNL     1      -4.772  11.187  73.131  0.00  0.00    -0.218 OA
ENDBRANCH  23  25
ENDBRANCH  22  23
ENDBRANCH  20  22
ENDBRANCH   4  19
BRANCH   7  27
ATOM     27  C   UNL     1      -6.037  18.678  69.047  0.00  0.00    +0.266 C 
ATOM     28  N   UNL     1      -5.059  18.893  68.022  0.00  0.00    -0.199 NA
ATOM     29  O   UNL     1      -5.826  19.326  70.116  0.00  0.00    -0.268 OA
BRANCH  28  30
ATOM     30  C   UNL     1      -4.463  20.199  67.880  0.00  0.00    +0.151 C 
BRANCH  30  31
ATOM     31  C   UNL     1      -4.998  20.880  66.629  0.00  0.00    +0.205 C 
ATOM     32  O   UNL     1      -5.975  21.777  67.058  0.00  0.00    -0.218 OA
ENDBRANCH  30  31
ENDBRANCH  28  30
ENDBRANCH   7  27
TORSDOF 11
ENDMDL
MODEL 8
REMARK VINA RESULT:      -5.3      3.808      8.331
REMARK  Name = 
REMARK  11 active torsions:
REMARK  status: ('A' for Active; 'I' for Inactive)
REMARK    1  A    between atoms: N_4  and  C_5
REMARK    2  A    between atoms: N_4  and  C_10
REMARK    3  A    between atoms: C_5  and  C_6
REMARK    4  A    between atoms: C_6  and  C_8
REMARK    5  A    between atoms: C_13  and  C_14
REMARK    6  A    between atoms: N_16  and  C_17
REMARK    7  A    between atoms: C_17  and  C_18
REMARK    8  A    between atoms: C_22  and  C_23
REMARK    9  A    between atoms: N_25  and  C_26
REMARK   10  A    between atoms: C_26  and  C_27
REMARK   11  A    between atoms: C_27  and  C_29
REMARK                            x       y       z     vdW  Elec       q    Type
REMARK                         _______ _______ _______ _____ _____    ______ ____
ROOT
ATOM      1  C   UNL     1      -9.571  13.041  67.224  0.00  0.00    +0.065 A 
ATOM      2  C   UNL     1      -9.559  14.349  67.691  0.00  0.00    +0.049 A 
ATOM      3  I   UNL     1     -11.275  15.227  68.485  0.00  0.00    -0.041 I 
ATOM      4  C   UNL     1      -8.375  15.058  67.862  0.00  0.00    +0.067 A 
ATOM      5  C   UNL     1      -7.167  14.443  67.687  0.00  0.00    +0.040 A 
ATOM      6  I   UNL     1      -5.403  15.478  68.219  0.00  0.00    -0.042 I 
ATOM      7  C   UNL     1      -7.143  13.116  67.276  0.00  0.00    +0.067 A 
ATOM      8  C   UNL     1      -8.338  12.407  67.217  0.00  0.00    +0.049 A 
ATOM      9  I   UNL     1      -8.217  10.328  67.478  0.00  0.00    -0.041 I 
ENDROOT
BRANCH   1  12
ATOM     10  C   UNL     1     -11.746  11.952  68.042  0.00  0.00    +0.095 C 
ATOM     11  C   UNL     1     -11.435  11.798  68.087  0.00  0.00    +0.230 C 
ATOM     12  N   UNL     1     -10.799  12.333  66.964  0.00  0.00    -0.255 N 
ATOM     13  O   UNL     1     -12.255  10.939  68.319  0.00  0.00    -0.275 OA
BRANCH  12  14
ATOM     14  C   UNL     1     -11.821  12.973  66.111  0.00  0.00    +0.134 C 
BRANCH  14  15
ATOM     15  C   UNL     1     -11.061  13.256  64.674  0.00  0.00    +0.205 C 
ATOM     16  O   UNL     1     -11.891  14.513  64.446  0.00  0.00    -0.218 OA
BRANCH  15  17
ATOM     17  C   UNL     1     -12.124  12.324  63.818  0.00  0.00    +0.217 C 
ATOM     18  O   UNL     1     -13.255  12.505  64.636  0.00  0.00    -0.218 OA
ENDBRANCH  15  17
ENDBRANCH  14  15
ENDBRANCH  12  14
ENDBRANCH   1  12
BRANCH   4  19
ATOM     19  C   UNL     1      -8.391  16.525  67.973  0.00  0.00    +0.266 C 
ATOM     20  N   UNL     1      -8.355  17.383  66.852  0.00  0.00    -0.199 NA
ATOM     21  O   UNL     1      -7.998  16.975  69.092  0.00  0.00    -0.268 OA
BRANCH  20  22
ATOM     22  C   UNL     1      -7.910  18.768  66.937  0.00  0.00    +0.151 C 
BRANCH  22  23
ATOM     23  C   UNL     1      -9.108  19.596  66.152  0.00  0.00    +0.206 C 
ATOM     24  O   UNL     1      -9.899  18.316  65.913  0.00  0.00    -0.218 OA
BRANCH  23  25
ATOM     25  C   UNL     1      -9.907  19.883  67.571  0.00  0.00    +0.217 C 
ATOM     26  O   UNL     1     -11.096  19.186  67.462  0.00  0.00    -0.218 OA
ENDBRANCH  23  25
ENDBRANCH  22  23
ENDBRANCH  20  22
ENDBRANCH   4  19
BRANCH   7  27
ATOM     27  C   UNL     1      -5.865  12.401  67.393  0.00  0.00    +0.266 C 
ATOM     28  N   UNL     1      -5.246  11.795  66.251  0.00  0.00    -0.199 NA
ATOM     29  O   UNL     1      -5.582  11.844  68.498  0.00  0.00    -0.268 OA
BRANCH  28  30
ATOM     30  C   UNL     1      -3.919  11.245  66.377  0.00  0.00    +0.151 C 
BRANCH  30  31
ATOM     31  C   UNL     1      -3.311  11.035  64.999  0.00  0.00    +0.205 C 
ATOM     32  O   UNL     1      -2.918  12.294  64.546  0.00  0.00    -0.218 OA
ENDBRANCH  30  31
ENDBRANCH  28  30
ENDBRANCH   7  27
TORSDOF 11
ENDMDL
MODEL 9
REMARK VINA RESULT:      -5.3      4.059      8.519
REMARK  Name = 
REMARK  11 active torsions:
REMARK  status: ('A' for Active; 'I' for Inactive)
REMARK    1  A    between atoms: N_4  and  C_5
REMARK    2  A    between atoms: N_4  and  C_10
REMARK    3  A    between atoms: C_5  and  C_6
REMARK    4  A    between atoms: C_6  and  C_8
REMARK    5  A    between atoms: C_13  and  C_14
REMARK    6  A    between atoms: N_16  and  C_17
REMARK    7  A    between atoms: C_17  and  C_18
REMARK    8  A    between atoms: C_22  and  C_23
REMARK    9  A    between atoms: N_25  and  C_26
REMARK   10  A    between atoms: C_26  and  C_27
REMARK   11  A    between atoms: C_27  and  C_29
REMARK                            x       y       z     vdW  Elec       q    Type
REMARK                         _______ _______ _______ _____ _____    ______ ____
ROOT
ATOM      1  C   UNL     1      -8.181  16.226  67.446  0.00  0.00    +0.065 A 
ATOM      2  C   UNL     1      -7.628  17.414  67.907  0.00  0.00    +0.049 A 
ATOM      3  I   UNL     1      -8.834  19.021  68.462  0.00  0.00    -0.041 I 
ATOM      4  C   UNL     1      -6.280  17.521  68.233  0.00  0.00    +0.067 A 
ATOM      5  C   UNL     1      -5.475  16.416  68.223  0.00  0.00    +0.040 A 
ATOM      6  I   UNL     1      -3.510  16.573  68.983  0.00  0.00    -0.042 I 
ATOM      7  C   UNL     1      -6.011  15.199  67.821  0.00  0.00    +0.067 A 
ATOM      8  C   UNL     1      -7.382  15.104  67.605  0.00  0.00    +0.049 A 
ATOM      9  I   UNL     1      -8.255  13.217  67.884  0.00  0.00    -0.041 I 
ENDROOT
BRANCH   1  12
ATOM     10  C   UNL     1      -9.953  15.625  65.690  0.00  0.00    +0.095 C 
ATOM     11  C   UNL     1      -9.756  15.913  65.661  0.00  0.00    +0.230 C 
ATOM     12  N   UNL     1      -9.556  16.136  67.025  0.00  0.00    -0.255 N 
ATOM     13  O   UNL     1     -10.651  16.055  64.859  0.00  0.00    -0.275 OA
BRANCH  12  14
ATOM     14  C   UNL     1     -10.473  15.257  67.780  0.00  0.00    +0.134 C 
BRANCH  14  15
ATOM     15  C   UNL     1     -11.139  16.228  68.936  0.00  0.00    +0.205 C 
ATOM     16  O   UNL     1     -10.242  15.620  70.007  0.00  0.00    -0.218 OA
BRANCH  15  17
ATOM     17  C   UNL     1     -12.359  15.164  69.266  0.00  0.00    +0.217 C 
ATOM     18  O   UNL     1     -11.650  13.969  69.041  0.00  0.00    -0.218 OA
ENDBRANCH  15  17
ENDBRANCH  14  15
ENDBRANCH  12  14
ENDBRANCH   1  12
BRANCH   4  19
ATOM     19  C   UNL     1      -5.638  18.840  68.338  0.00  0.00    +0.266 C 
ATOM     20  N   UNL     1      -5.542  19.556  69.553  0.00  0.00    -0.199 NA
ATOM     21  O   UNL     1      -5.576  19.486  67.249  0.00  0.00    -0.268 OA
BRANCH  20  22
ATOM     22  C   UNL     1      -5.349  20.999  69.600  0.00  0.00    +0.151 C 
BRANCH  22  23
ATOM     23  C   UNL     1      -3.923  21.159  70.423  0.00  0.00    +0.206 C 
ATOM     24  O   UNL     1      -4.515  22.229  71.332  0.00  0.00    -0.218 OA
BRANCH  23  25
ATOM     25  C   UNL     1      -4.342  19.959  71.481  0.00  0.00    +0.217 C 
ATOM     26  O   UNL     1      -3.545  20.165  72.592  0.00  0.00    -0.218 OA
ENDBRANCH  23  25
ENDBRANCH  22  23
ENDBRANCH  20  22
ENDBRANCH   4  19
BRANCH   7  27
ATOM     27  C   UNL     1      -5.225  13.992  68.110  0.00  0.00    +0.266 C 
ATOM     28  N   UNL     1      -4.998  13.559  69.458  0.00  0.00    -0.199 NA
ATOM     29  O   UNL     1      -4.318  13.650  67.291  0.00  0.00    -0.268 OA
BRANCH  28  30
ATOM     30  C   UNL     1      -4.362  12.286  69.692  0.00  0.00    +0.151 C 
BRANCH  30  31
ATOM     31  C   UNL     1      -5.210  11.447  70.636  0.00  0.00    +0.205 C 
ATOM     32  O   UNL     1      -5.507  12.263  71.727  0.00  0.00    -0.218 OA
ENDBRANCH  30  31
ENDBRANCH  28  30
ENDBRANCH   7  27
TORSDOF 11
ENDMDL
