MODEL 1
REMARK VINA RESULT:      -7.2      0.000      0.000
REMARK  Name = 
REMARK  17 active torsions:
REMARK  status: ('A' for Active; 'I' for Inactive)
REMARK    1  A    between atoms: C_2  and  O_4
REMARK    2  A    between atoms: O_4  and  C_5
REMARK    3  A    between atoms: C_5  and  O_7
REMARK    4  A    between atoms: O_7  and  C_8
REMARK    5  A    between atoms: C_8  and  O_9
REMARK    6  A    between atoms: O_9  and  P_10
REMARK    7  A    between atoms: P_10  and  C_12
REMARK    8  A    between atoms: P_10  and  O_27
REMARK    9  A    between atoms: C_12  and  O_13
REMARK   10  A    between atoms: O_13  and  C_14
REMARK   11  A    between atoms: C_14  and  C_16
REMARK   12  A    between atoms: C_16  and  N_17
REMARK   13  A    between atoms: O_27  and  C_28
REMARK   14  A    between atoms: C_28  and  O_29
REMARK   15  A    between atoms: O_29  and  C_30
REMARK   16  A    between atoms: C_30  and  O_32
REMARK   17  A    between atoms: O_32  and  C_33
REMARK                            x       y       z     vdW  Elec       q    Type
REMARK                         _______ _______ _______ _____ _____    ______ ____
ROOT
ATOM      1  P   UNL     1     -10.365  16.526  68.349  0.00  0.00    +0.378 P 
ATOM      2  O   UNL     1      -9.169  16.320  69.232  0.00  0.00    -0.255 OA
ENDROOT
BRANCH   1   3
ATOM      3  O   UNL     1     -10.427  15.447  67.059  0.00  0.00    -0.250 OA
BRANCH   3   4
ATOM      4  C   UNL     1      -9.654  15.851  65.990  0.00  0.00    +0.372 C 
BRANCH   4   5
ATOM      5  O   UNL     1     -10.118  15.332  64.746  0.00  0.00    -0.387 OA
BRANCH   5   6
ATOM      6  C   UNL     1     -11.433  15.478  64.318  0.00  0.00    +0.514 C 
ATOM      7  O   UNL     1     -11.765  16.647  63.963  0.00  0.00    -0.203 OA
BRANCH   6   8
ATOM      8  O   UNL     1     -12.372  14.450  64.389  0.00  0.00    -0.422 OA
BRANCH   8   9
ATOM      9  C   UNL     1     -11.904  13.128  64.517  0.00  0.00    +0.173 C 
ATOM     10  C   UNL     1     -12.464  12.201  63.468  0.00  0.00    +0.047 C 
ATOM     11  C   UNL     1     -12.009  12.590  65.909  0.00  0.00    +0.047 C 
ENDBRANCH   8   9
ENDBRANCH   6   8
ENDBRANCH   5   6
ENDBRANCH   4   5
ENDBRANCH   3   4
ENDBRANCH   1   3
BRANCH   1  12
ATOM     12  O   UNL     1     -11.785  16.421  69.269  0.00  0.00    -0.250 OA
BRANCH  12  13
ATOM     13  C   UNL     1     -11.959  15.102  69.647  0.00  0.00    +0.372 C 
BRANCH  13  14
ATOM     14  O   UNL     1     -11.296  14.951  70.900  0.00  0.00    -0.387 OA
BRANCH  14  15
ATOM     15  C   UNL     1     -11.996  15.369  72.030  0.00  0.00    +0.514 C 
ATOM     16  O   UNL     1     -12.002  16.573  72.352  0.00  0.00    -0.203 OA
BRANCH  15  17
ATOM     17  O   UNL     1     -12.592  14.470  72.893  0.00  0.00    -0.422 OA
BRANCH  17  19
ATOM     18  C   UNL     1     -14.270  14.230  72.002  0.00  0.00    +0.047 C 
ATOM     19  C   UNL     1     -13.755  13.748  72.540  0.00  0.00    +0.173 C 
ATOM     20  C   UNL     1     -13.327  12.420  71.927  0.00  0.00    +0.047 C 
ENDBRANCH  17  19
ENDBRANCH  15  17
ENDBRANCH  14  15
ENDBRANCH  13  14
ENDBRANCH  12  13
ENDBRANCH   1  12
BRANCH   1  21
ATOM     21  C   UNL     1     -10.303  18.191  67.660  0.00  0.00    +0.258 C 
BRANCH  21  22
ATOM     22  O   UNL     1      -9.879  19.113  68.632  0.00  0.00    -0.343 OA
BRANCH  22  23
ATOM     23  C   UNL     1      -9.374  20.209  67.673  0.00  0.00    +0.139 C 
ATOM     24  C   UNL     1     -10.254  19.588  66.389  0.00  0.00    +0.034 C 
BRANCH  23  25
ATOM     25  C   UNL     1      -8.008  19.324  67.303  0.00  0.00    +0.138 C 
BRANCH  25  26
ATOM     26  N   UNL     1      -6.966  19.761  68.147  0.00  0.00    -0.292 N 
ATOM     27  C   UNL     1      -6.427  18.899  69.048  0.00  0.00    +0.167 A 
ATOM     28  N   UNL     1      -6.317  17.550  69.114  0.00  0.00    -0.205 NA
ATOM     29  C   UNL     1      -5.495  16.940  70.003  0.00  0.00    +0.202 A 
ATOM     30  N   UNL     1      -4.906  17.642  70.980  0.00  0.00    -0.204 NA
ATOM     31  C   UNL     1      -4.958  18.994  70.935  0.00  0.00    +0.192 A 
ATOM     32  N   UNL     1      -4.537  19.783  72.034  0.00  0.00    -0.105 NA
ATOM     33  C   UNL     1      -5.519  19.605  69.828  0.00  0.00    +0.152 A 
ATOM     34  N   UNL     1      -5.609  20.881  69.425  0.00  0.00    -0.219 NA
ATOM     35  C   UNL     1      -6.137  20.815  68.185  0.00  0.00    +0.180 A 
ENDBRANCH  25  26
ENDBRANCH  23  25
ENDBRANCH  22  23
ENDBRANCH  21  22
ENDBRANCH   1  21
TORSDOF 17
ENDMDL
MODEL 2
REMARK VINA RESULT:      -7.1      1.434      2.072
REMARK  Name = 
REMARK  17 active torsions:
REMARK  status: ('A' for Active; 'I' for Inactive)
REMARK    1  A    between atoms: C_2  and  O_4
REMARK    2  A    between atoms: O_4  and  C_5
REMARK    3  A    between atoms: C_5  and  O_7
REMARK    4  A    between atoms: O_7  and  C_8
REMARK    5  A    between atoms: C_8  and  O_9
REMARK    6  A    between atoms: O_9  and  P_10
REMARK    7  A    between atoms: P_10  and  C_12
REMARK    8  A    between atoms: P_10  and  O_27
REMARK    9  A    between atoms: C_12  and  O_13
REMARK   10  A    between atoms: O_13  and  C_14
REMARK   11  A    between atoms: C_14  and  C_16
REMARK   12  A    between atoms: C_16  and  N_17
REMARK   13  A    between atoms: O_27  and  C_28
REMARK   14  A    between atoms: C_28  and  O_29
REMARK   15  A    between atoms: O_29  and  C_30
REMARK   16  A    between atoms: C_30  and  O_32
REMARK   17  A    between atoms: O_32  and  C_33
REMARK                            x       y       z     vdW  Elec       q    Type
REMARK                         _______ _______ _______ _____ _____    ______ ____
ROOT
ATOM      1  P   UNL     1     -10.218  15.345  67.092  0.00  0.00    +0.378 P 
ATOM      2  O   UNL     1      -8.970  15.445  66.263  0.00  0.00    -0.255 OA
ENDROOT
BRANCH   1   3
ATOM      3  O   UNL     1     -11.508  14.651  66.264  0.00  0.00    -0.250 OA
BRANCH   3   4
ATOM      4  C   UNL     1     -11.481  14.925  64.912  0.00  0.00    +0.372 C 
BRANCH   4   5
ATOM      5  O   UNL     1     -12.430  14.157  64.175  0.00  0.00    -0.387 OA
BRANCH   5   6
ATOM      6  C   UNL     1     -12.145  12.889  63.682  0.00  0.00    +0.514 C 
ATOM      7  O   UNL     1     -13.145  12.127  63.523  0.00  0.00    -0.203 OA
BRANCH   6   8
ATOM      8  O   UNL     1     -10.845  12.423  63.492  0.00  0.00    -0.422 OA
BRANCH   8   9
ATOM      9  C   UNL     1     -10.468  11.224  64.128  0.00  0.00    +0.173 C 
ATOM     10  C   UNL     1      -9.941  11.438  65.525  0.00  0.00    +0.047 C 
ATOM     11  C   UNL     1      -9.593  10.351  63.285  0.00  0.00    +0.047 C 
ENDBRANCH   8   9
ENDBRANCH   6   8
ENDBRANCH   5   6
ENDBRANCH   4   5
ENDBRANCH   3   4
ENDBRANCH   1   3
BRANCH   1  12
ATOM     12  O   UNL     1      -9.898  14.475  68.511  0.00  0.00    -0.250 OA
BRANCH  12  13
ATOM     13  C   UNL     1     -11.069  14.389  69.241  0.00  0.00    +0.372 C 
BRANCH  13  14
ATOM     14  O   UNL     1     -10.832  15.076  70.467  0.00  0.00    -0.387 OA
BRANCH  14  15
ATOM     15  C   UNL     1     -11.917  15.749  71.025  0.00  0.00    +0.514 C 
ATOM     16  O   UNL     1     -12.884  16.077  70.310  0.00  0.00    -0.203 OA
BRANCH  15  17
ATOM     17  O   UNL     1     -11.912  16.184  72.336  0.00  0.00    -0.422 OA
BRANCH  17  19
ATOM     18  C   UNL     1     -12.550  15.787  74.098  0.00  0.00    +0.047 C 
ATOM     19  C   UNL     1     -12.227  15.324  73.414  0.00  0.00    +0.173 C 
ATOM     20  C   UNL     1     -13.188  14.255  72.909  0.00  0.00    +0.047 C 
ENDBRANCH  17  19
ENDBRANCH  15  17
ENDBRANCH  14  15
ENDBRANCH  13  14
ENDBRANCH  12  13
ENDBRANCH   1  12
BRANCH   1  21
ATOM     21  C   UNL     1     -10.722  17.002  67.590  0.00  0.00    +0.258 C 
BRANCH  21  22
ATOM     22  O   UNL     1     -10.069  17.973  66.812  0.00  0.00    -0.343 OA
BRANCH  22  23
ATOM     23  C   UNL     1      -9.434  18.773  67.966  0.00  0.00    +0.139 C 
ATOM     24  C   UNL     1     -10.026  20.226  67.378  0.00  0.00    +0.034 C 
BRANCH  23  25
ATOM     25  C   UNL     1      -7.988  18.907  67.141  0.00  0.00    +0.138 C 
BRANCH  25  26
ATOM     26  N   UNL     1      -7.020  19.401  68.040  0.00  0.00    -0.292 N 
ATOM     27  C   UNL     1      -6.498  18.576  68.983  0.00  0.00    +0.167 A 
ATOM     28  N   UNL     1      -6.331  17.234  69.075  0.00  0.00    -0.205 NA
ATOM     29  C   UNL     1      -5.538  16.673  70.020  0.00  0.00    +0.202 A 
ATOM     30  N   UNL     1      -5.042  17.413  71.021  0.00  0.00    -0.204 NA
ATOM     31  C   UNL     1      -5.153  18.760  70.954  0.00  0.00    +0.192 A 
ATOM     32  N   UNL     1      -4.835  19.580  72.065  0.00  0.00    -0.105 NA
ATOM     33  C   UNL     1      -5.672  19.332  69.807  0.00  0.00    +0.152 A 
ATOM     34  N   UNL     1      -5.796  20.598  69.381  0.00  0.00    -0.219 NA
ATOM     35  C   UNL     1      -6.244  20.493  68.113  0.00  0.00    +0.180 A 
ENDBRANCH  25  26
ENDBRANCH  23  25
ENDBRANCH  22  23
ENDBRANCH  21  22
ENDBRANCH   1  21
TORSDOF 17
ENDMDL
MODEL 3
REMARK VINA RESULT:      -6.8      1.663      5.472
REMARK  Name = 
REMARK  17 active torsions:
REMARK  status: ('A' for Active; 'I' for Inactive)
REMARK    1  A    between atoms: C_2  and  O_4
REMARK    2  A    between atoms: O_4  and  C_5
REMARK    3  A    between atoms: C_5  and  O_7
REMARK    4  A    between atoms: O_7  and  C_8
REMARK    5  A    between atoms: C_8  and  O_9
REMARK    6  A    between atoms: O_9  and  P_10
REMARK    7  A    between atoms: P_10  and  C_12
REMARK    8  A    between atoms: P_10  and  O_27
REMARK    9  A    between atoms: C_12  and  O_13
REMARK   10  A    between atoms: O_13  and  C_14
REMARK   11  A    between atoms: C_14  and  C_16
REMARK   12  A    between atoms: C_16  and  N_17
REMARK   13  A    between atoms: O_27  and  C_28
REMARK   14  A    between atoms: C_28  and  O_29
REMARK   15  A    between atoms: O_29  and  C_30
REMARK   16  A    between atoms: C_30  and  O_32
REMARK   17  A    between atoms: O_32  and  C_33
REMARK                            x       y       z     vdW  Elec       q    Type
REMARK                         _______ _______ _______ _____ _____    ______ ____
ROOT
ATOM      1  P   UNL     1     -10.215  16.128  66.207  0.00  0.00    +0.378 P 
ATOM      2  O   UNL     1     -10.657  16.736  64.907  0.00  0.00    -0.255 OA
ENDROOT
BRANCH   1   3
ATOM      3  O   UNL     1     -11.057  16.724  67.535  0.00  0.00    -0.250 OA
BRANCH   3   4
ATOM      4  C   UNL     1     -10.516  16.314  68.736  0.00  0.00    +0.372 C 
BRANCH   4   5
ATOM      5  O   UNL     1     -11.422  16.457  69.828  0.00  0.00    -0.387 OA
BRANCH   5   6
ATOM      6  C   UNL     1     -12.355  15.482  70.159  0.00  0.00    +0.514 C 
ATOM      7  O   UNL     1     -12.216  14.370  69.569  0.00  0.00    -0.203 OA
BRANCH   6   8
ATOM      8  O   UNL     1     -13.452  15.730  70.983  0.00  0.00    -0.422 OA
BRANCH   8   9
ATOM      9  C   UNL     1     -13.427  15.220  72.296  0.00  0.00    +0.173 C 
ATOM     10  C   UNL     1     -12.169  15.581  73.044  0.00  0.00    +0.047 C 
ATOM     11  C   UNL     1     -13.778  13.768  72.379  0.00  0.00    +0.047 C 
ENDBRANCH   8   9
ENDBRANCH   6   8
ENDBRANCH   5   6
ENDBRANCH   4   5
ENDBRANCH   3   4
ENDBRANCH   1   3
BRANCH   1  12
ATOM     12  O   UNL     1     -10.360  14.440  66.132  0.00  0.00    -0.250 OA
BRANCH  12  13
ATOM     13  C   UNL     1     -11.688  14.130  65.898  0.00  0.00    +0.372 C 
BRANCH  13  14
ATOM     14  O   UNL     1     -11.816  13.941  64.491  0.00  0.00    -0.387 OA
BRANCH  14  15
ATOM     15  C   UNL     1     -12.207  12.673  64.065  0.00  0.00    +0.514 C 
ATOM     16  O   UNL     1     -13.300  12.200  64.434  0.00  0.00    -0.203 OA
BRANCH  15  17
ATOM     17  O   UNL     1     -11.365  11.854  63.338  0.00  0.00    -0.422 OA
BRANCH  17  19
ATOM     18  C   UNL     1     -10.252  10.738  64.426  0.00  0.00    +0.047 C 
ATOM     19  C   UNL     1     -10.128  11.403  63.852  0.00  0.00    +0.173 C 
ATOM     20  C   UNL     1      -9.233  11.020  62.680  0.00  0.00    +0.047 C 
ENDBRANCH  17  19
ENDBRANCH  15  17
ENDBRANCH  14  15
ENDBRANCH  13  14
ENDBRANCH  12  13
ENDBRANCH   1  12
BRANCH   1  21
ATOM     21  C   UNL     1      -8.469  16.498  66.461  0.00  0.00    +0.258 C 
BRANCH  21  22
ATOM     22  O   UNL     1      -8.117  17.693  65.811  0.00  0.00    -0.343 OA
BRANCH  22  23
ATOM     23  C   UNL     1      -8.206  18.628  67.033  0.00  0.00    +0.139 C 
ATOM     24  C   UNL     1      -9.247  19.677  66.242  0.00  0.00    +0.034 C 
BRANCH  23  25
ATOM     25  C   UNL     1      -6.838  19.459  66.557  0.00  0.00    +0.138 C 
BRANCH  25  26
ATOM     26  N   UNL     1      -6.179  19.913  67.718  0.00  0.00    -0.292 N 
ATOM     27  C   UNL     1      -5.546  19.021  68.523  0.00  0.00    +0.167 A 
ATOM     28  N   UNL     1      -4.990  17.800  68.324  0.00  0.00    -0.205 NA
ATOM     29  C   UNL     1      -4.182  17.222  69.245  0.00  0.00    +0.202 A 
ATOM     30  N   UNL     1      -4.056  17.750  70.470  0.00  0.00    -0.204 NA
ATOM     31  C   UNL     1      -4.563  18.983  70.704  0.00  0.00    +0.192 A 
ATOM     32  N   UNL     1      -4.644  19.507  72.018  0.00  0.00    -0.105 NA
ATOM     33  C   UNL     1      -5.093  19.700  69.647  0.00  0.00    +0.152 A 
ATOM     34  N   UNL     1      -5.545  20.956  69.518  0.00  0.00    -0.219 NA
ATOM     35  C   UNL     1      -5.787  21.102  68.199  0.00  0.00    +0.180 A 
ENDBRANCH  25  26
ENDBRANCH  23  25
ENDBRANCH  22  23
ENDBRANCH  21  22
ENDBRANCH   1  21
TORSDOF 17
ENDMDL
MODEL 4
REMARK VINA RESULT:      -6.7      4.161      7.241
REMARK  Name = 
REMARK  17 active torsions:
REMARK  status: ('A' for Active; 'I' for Inactive)
REMARK    1  A    between atoms: C_2  and  O_4
REMARK    2  A    between atoms: O_4  and  C_5
REMARK    3  A    between atoms: C_5  and  O_7
REMARK    4  A    between atoms: O_7  and  C_8
REMARK    5  A    between atoms: C_8  and  O_9
REMARK    6  A    between atoms: O_9  and  P_10
REMARK    7  A    between atoms: P_10  and  C_12
REMARK    8  A    between atoms: P_10  and  O_27
REMARK    9  A    between atoms: C_12  and  O_13
REMARK   10  A    between atoms: O_13  and  C_14
REMARK   11  A    between atoms: C_14  and  C_16
REMARK   12  A    between atoms: C_16  and  N_17
REMARK   13  A    between atoms: O_27  and  C_28
REMARK   14  A    between atoms: C_28  and  O_29
REMARK   15  A    between atoms: O_29  and  C_30
REMARK   16  A    between atoms: C_30  and  O_32
REMARK   17  A    between atoms: O_32  and  C_33
REMARK                            x       y       z     vdW  Elec       q    Type
REMARK                         _______ _______ _______ _____ _____    ______ ____
ROOT
ATOM      1  P   UNL     1     -11.958  12.938  64.776  0.00  0.00    +0.378 P 
ATOM      2  O   UNL     1     -13.314  12.393  64.434  0.00  0.00    -0.255 OA
ENDROOT
BRANCH   1   3
ATOM      3  O   UNL     1     -10.773  12.507  63.661  0.00  0.00    -0.250 OA
BRANCH   3   4
ATOM      4  C   UNL     1     -10.668  11.141  63.497  0.00  0.00    +0.372 C 
BRANCH   4   5
ATOM      5  O   UNL     1      -9.325  10.674  63.605  0.00  0.00    -0.387 OA
BRANCH   5   6
ATOM      6  C   UNL     1      -8.967   9.603  64.415  0.00  0.00    +0.514 C 
ATOM      7  O   UNL     1      -8.459   8.610  63.814  0.00  0.00    -0.203 OA
BRANCH   6   8
ATOM      8  O   UNL     1      -9.259   9.551  65.777  0.00  0.00    -0.422 OA
BRANCH   8   9
ATOM      9  C   UNL     1      -9.230   8.297  66.417  0.00  0.00    +0.173 C 
ATOM     10  C   UNL     1     -10.566   7.899  66.992  0.00  0.00    +0.047 C 
ATOM     11  C   UNL     1      -8.093   8.142  67.377  0.00  0.00    +0.047 C 
ENDBRANCH   8   9
ENDBRANCH   6   8
ENDBRANCH   5   6
ENDBRANCH   4   5
ENDBRANCH   3   4
ENDBRANCH   1   3
BRANCH   1  12
ATOM     12  O   UNL     1     -12.035  14.625  64.925  0.00  0.00    -0.250 OA
BRANCH  12  13
ATOM     13  C   UNL     1     -10.775  15.139  64.680  0.00  0.00    +0.372 C 
BRANCH  13  14
ATOM     14  O   UNL     1     -10.826  16.518  65.040  0.00  0.00    -0.387 OA
BRANCH  14  15
ATOM     15  C   UNL     1     -10.238  16.868  66.253  0.00  0.00    +0.514 C 
ATOM     16  O   UNL     1      -9.334  16.159  66.737  0.00  0.00    -0.203 OA
BRANCH  15  17
ATOM     17  O   UNL     1     -10.706  17.920  67.016  0.00  0.00    -0.422 OA
BRANCH  17  19
ATOM     18  C   UNL     1     -10.417  19.801  66.797  0.00  0.00    +0.047 C 
ATOM     19  C   UNL     1      -9.978  19.123  67.164  0.00  0.00    +0.173 C 
ATOM     20  C   UNL     1      -9.692  19.330  68.647  0.00  0.00    +0.047 C 
ENDBRANCH  17  19
ENDBRANCH  15  17
ENDBRANCH  14  15
ENDBRANCH  13  14
ENDBRANCH  12  13
ENDBRANCH   1  12
BRANCH   1  21
ATOM     21  C   UNL     1     -11.454  12.287  66.380  0.00  0.00    +0.258 C 
BRANCH  21  22
ATOM     22  O   UNL     1     -10.227  12.847  66.777  0.00  0.00    -0.343 OA
BRANCH  22  23
ATOM     23  C   UNL     1     -10.453  12.784  68.300  0.00  0.00    +0.139 C 
ATOM     24  C   UNL     1     -11.325  11.358  68.182  0.00  0.00    +0.034 C 
BRANCH  23  25
ATOM     25  C   UNL     1     -11.812  13.748  68.187  0.00  0.00    +0.138 C 
BRANCH  25  26
ATOM     26  N   UNL     1     -11.852  14.577  69.327  0.00  0.00    -0.292 N 
ATOM     27  C   UNL     1     -12.550  14.179  70.422  0.00  0.00    +0.167 A 
ATOM     28  N   UNL     1     -12.918  12.972  70.919  0.00  0.00    -0.205 NA
ATOM     29  C   UNL     1     -13.394  12.831  72.180  0.00  0.00    +0.202 A 
ATOM     30  N   UNL     1     -13.700  13.907  72.918  0.00  0.00    -0.204 NA
ATOM     31  C   UNL     1     -13.319  15.129  72.479  0.00  0.00    +0.192 A 
ATOM     32  N   UNL     1     -13.787  16.312  73.103  0.00  0.00    -0.105 NA
ATOM     33  C   UNL     1     -12.533  15.218  71.345  0.00  0.00    +0.152 A 
ATOM     34  N   UNL     1     -11.900  16.232  70.737  0.00  0.00    -0.219 NA
ATOM     35  C   UNL     1     -11.175  15.650  69.760  0.00  0.00    +0.180 A 
ENDBRANCH  25  26
ENDBRANCH  23  25
ENDBRANCH  22  23
ENDBRANCH  21  22
ENDBRANCH   1  21
TORSDOF 17
ENDMDL
MODEL 5
REMARK VINA RESULT:      -6.6      4.988      8.117
REMARK  Name = 
REMARK  17 active torsions:
REMARK  status: ('A' for Active; 'I' for Inactive)
REMARK    1  A    between atoms: C_2  and  O_4
REMARK    2  A    between atoms: O_4  and  C_5
REMARK    3  A    between atoms: C_5  and  O_7
REMARK    4  A    between atoms: O_7  and  C_8
REMARK    5  A    between atoms: C_8  and  O_9
REMARK    6  A    between atoms: O_9  and  P_10
REMARK    7  A    between atoms: P_10  and  C_12
REMARK    8  A    between atoms: P_10  and  O_27
REMARK    9  A    between atoms: C_12  and  O_13
REMARK   10  A    between atoms: O_13  and  C_14
REMARK   11  A    between atoms: C_14  and  C_16
REMARK   12  A    between atoms: C_16  and  N_17
REMARK   13  A    between atoms: O_27  and  C_28
REMARK   14  A    between atoms: C_28  and  O_29
REMARK   15  A    between atoms: O_29  and  C_30
REMARK   16  A    between atoms: C_30  and  O_32
REMARK   17  A    between atoms: O_32  and  C_33
REMARK                            x       y       z     vdW  Elec       q    Type
REMARK                         _______ _______ _______ _____ _____    ______ ____
ROOT
ATOM      1  P   UNL     1     -11.794  12.904  65.924  0.00  0.00    +0.378 P 
ATOM      2  O   UNL     1     -12.951  12.581  65.024  0.00  0.00    -0.255 OA
ENDROOT
BRANCH   1   3
ATOM      3  O   UNL     1     -11.488  14.554  66.042  0.00  0.00    -0.250 OA
BRANCH   3   4
ATOM      4  C   UNL     1     -11.038  15.098  64.857  0.00  0.00    +0.372 C 
BRANCH   4   5
ATOM      5  O   UNL     1     -10.797  16.500  64.949  0.00  0.00    -0.387 OA
BRANCH   5   6
ATOM      6  C   UNL     1      -9.964  17.055  65.913  0.00  0.00    +0.514 C 
ATOM      7  O   UNL     1      -8.736  16.765  65.806  0.00  0.00    -0.203 OA
BRANCH   6   8
ATOM      8  O   UNL     1     -10.443  17.775  67.006  0.00  0.00    -0.422 OA
BRANCH   8   9
ATOM      9  C   UNL     1      -9.739  18.929  67.404  0.00  0.00    +0.173 C 
ATOM     10  C   UNL     1      -9.881  19.227  68.875  0.00  0.00    +0.047 C 
ATOM     11  C   UNL     1      -9.989  20.114  66.525  0.00  0.00    +0.047 C 
ENDBRANCH   8   9
ENDBRANCH   6   8
ENDBRANCH   5   6
ENDBRANCH   4   5
ENDBRANCH   3   4
ENDBRANCH   1   3
BRANCH   1  12
ATOM     12  O   UNL     1     -12.063  12.247  67.464  0.00  0.00    -0.250 OA
BRANCH  12  13
ATOM     13  C   UNL     1     -11.300  12.954  68.376  0.00  0.00    +0.372 C 
BRANCH  13  14
ATOM     14  O   UNL     1     -12.208  13.762  69.121  0.00  0.00    -0.387 OA
BRANCH  14  15
ATOM     15  C   UNL     1     -12.389  13.423  70.461  0.00  0.00    +0.514 C 
ATOM     16  O   UNL     1     -12.250  12.241  70.831  0.00  0.00    -0.203 OA
BRANCH  15  17
ATOM     17  O   UNL     1     -12.843  14.338  71.391  0.00  0.00    -0.422 OA
BRANCH  17  19
ATOM     18  C   UNL     1     -11.901  15.956  71.794  0.00  0.00    +0.047 C 
ATOM     19  C   UNL     1     -11.960  15.143  72.145  0.00  0.00    +0.173 C 
ATOM     20  C   UNL     1     -12.438  15.153  73.592  0.00  0.00    +0.047 C 
ENDBRANCH  17  19
ENDBRANCH  15  17
ENDBRANCH  14  15
ENDBRANCH  13  14
ENDBRANCH  12  13
ENDBRANCH   1  12
BRANCH   1  21
ATOM     21  C   UNL     1     -10.307  12.123  65.269  0.00  0.00    +0.258 C 
BRANCH  21  22
ATOM     22  O   UNL     1     -10.555  10.776  64.952  0.00  0.00    -0.343 OA
BRANCH  22  23
ATOM     23  C   UNL     1      -9.205  10.200  65.422  0.00  0.00    +0.139 C 
ATOM     24  C   UNL     1      -8.959   9.403  63.969  0.00  0.00    +0.034 C 
BRANCH  23  25
ATOM     25  C   UNL     1      -9.957   8.890  66.134  0.00  0.00    +0.138 C 
BRANCH  25  26
ATOM     26  N   UNL     1      -9.939   9.085  67.531  0.00  0.00    -0.292 N 
ATOM     27  C   UNL     1     -10.514   8.163  68.344  0.00  0.00    +0.167 A 
ATOM     28  N   UNL     1     -10.772   6.836  68.233  0.00  0.00    -0.205 NA
ATOM     29  C   UNL     1     -11.125   6.082  69.302  0.00  0.00    +0.202 A 
ATOM     30  N   UNL     1     -11.420   6.659  70.476  0.00  0.00    -0.204 NA
ATOM     31  C   UNL     1     -11.146   7.973  70.644  0.00  0.00    +0.192 A 
ATOM     32  N   UNL     1     -11.618   8.682  71.777  0.00  0.00    -0.105 NA
ATOM     33  C   UNL     1     -10.470   8.649  69.646  0.00  0.00    +0.152 A 
ATOM     34  N   UNL     1      -9.948   9.881  69.554  0.00  0.00    -0.219 NA
ATOM     35  C   UNL     1      -9.283   9.889  68.381  0.00  0.00    +0.180 A 
ENDBRANCH  25  26
ENDBRANCH  23  25
ENDBRANCH  22  23
ENDBRANCH  21  22
ENDBRANCH   1  21
TORSDOF 17
ENDMDL
MODEL 6
REMARK VINA RESULT:      -6.6      4.862      8.450
REMARK  Name = 
REMARK  17 active torsions:
REMARK  status: ('A' for Active; 'I' for Inactive)
REMARK    1  A    between atoms: C_2  and  O_4
REMARK    2  A    between atoms: O_4  and  C_5
REMARK    3  A    between atoms: C_5  and  O_7
REMARK    4  A    between atoms: O_7  and  C_8
REMARK    5  A    between atoms: C_8  and  O_9
REMARK    6  A    between atoms: O_9  and  P_10
REMARK    7  A    between atoms: P_10  and  C_12
REMARK    8  A    between atoms: P_10  and  O_27
REMARK    9  A    between atoms: C_12  and  O_13
REMARK   10  A    between atoms: O_13  and  C_14
REMARK   11  A    between atoms: C_14  and  C_16
REMARK   12  A    between atoms: C_16  and  N_17
REMARK   13  A    between atoms: O_27  and  C_28
REMARK   14  A    between atoms: C_28  and  O_29
REMARK   15  A    between atoms: O_29  and  C_30
REMARK   16  A    between atoms: C_30  and  O_32
REMARK   17  A    between atoms: O_32  and  C_33
REMARK                            x       y       z     vdW  Elec       q    Type
REMARK                         _______ _______ _______ _____ _____    ______ ____
ROOT
ATOM      1  P   UNL     1      -9.115  15.010  68.203  0.00  0.00    +0.378 P 
ATOM      2  O   UNL     1      -8.634  15.151  69.618  0.00  0.00    -0.255 OA
ENDROOT
BRANCH   1   3
ATOM      3  O   UNL     1     -10.712  14.492  68.097  0.00  0.00    -0.250 OA
BRANCH   3   4
ATOM      4  C   UNL     1     -11.240  14.142  69.323  0.00  0.00    +0.372 C 
BRANCH   4   5
ATOM      5  O   UNL     1     -12.417  14.879  69.648  0.00  0.00    -0.387 OA
BRANCH   5   6
ATOM      6  C   UNL     1     -12.488  15.730  70.744  0.00  0.00    +0.514 C 
ATOM      7  O   UNL     1     -11.433  16.385  70.996  0.00  0.00    -0.203 OA
BRANCH   6   8
ATOM      8  O   UNL     1     -13.589  15.778  71.598  0.00  0.00    -0.422 OA
BRANCH   8   9
ATOM      9  C   UNL     1     -13.600  14.926  72.719  0.00  0.00    +0.173 C 
ATOM     10  C   UNL     1     -12.562  15.296  73.749  0.00  0.00    +0.047 C 
ATOM     11  C   UNL     1     -13.601  13.472  72.365  0.00  0.00    +0.047 C 
ENDBRANCH   8   9
ENDBRANCH   6   8
ENDBRANCH   5   6
ENDBRANCH   4   5
ENDBRANCH   3   4
ENDBRANCH   1   3
BRANCH   1  12
ATOM     12  O   UNL     1      -8.921  16.479  67.379  0.00  0.00    -0.250 OA
BRANCH  12  13
ATOM     13  C   UNL     1      -9.020  16.231  66.023  0.00  0.00    +0.372 C 
BRANCH  13  14
ATOM     14  O   UNL     1     -10.306  16.698  65.621  0.00  0.00    -0.387 OA
BRANCH  14  15
ATOM     15  C   UNL     1     -10.975  15.935  64.665  0.00  0.00    +0.514 C 
ATOM     16  O   UNL     1     -11.754  16.484  63.861  0.00  0.00    -0.203 OA
BRANCH  15  17
ATOM     17  O   UNL     1     -10.903  14.556  64.650  0.00  0.00    -0.422 OA
BRANCH  17  19
ATOM     18  C   UNL     1     -11.907  13.203  63.738  0.00  0.00    +0.047 C 
ATOM     19  C   UNL     1     -12.041  13.748  64.425  0.00  0.00    +0.173 C 
ATOM     20  C   UNL     1     -12.366  13.008  65.717  0.00  0.00    +0.047 C 
ENDBRANCH  17  19
ENDBRANCH  15  17
ENDBRANCH  14  15
ENDBRANCH  13  14
ENDBRANCH  12  13
ENDBRANCH   1  12
BRANCH   1  21
ATOM     21  C   UNL     1      -8.093  13.790  67.357  0.00  0.00    +0.258 C 
BRANCH  21  22
ATOM     22  O   UNL     1      -8.881  12.724  66.889  0.00  0.00    -0.343 OA
BRANCH  22  23
ATOM     23  C   UNL     1      -8.491  11.689  67.963  0.00  0.00    +0.139 C 
ATOM     24  C   UNL     1      -7.278  11.045  67.001  0.00  0.00    +0.034 C 
BRANCH  23  25
ATOM     25  C   UNL     1      -9.643  10.613  67.413  0.00  0.00    +0.138 C 
BRANCH  25  26
ATOM     26  N   UNL     1      -9.819   9.624  68.403  0.00  0.00    -0.292 N 
ATOM     27  C   UNL     1     -10.691   9.841  69.421  0.00  0.00    +0.167 A 
ATOM     28  N   UNL     1     -11.799  10.608  69.567  0.00  0.00    -0.205 NA
ATOM     29  C   UNL     1     -12.649  10.448  70.611  0.00  0.00    +0.202 A 
ATOM     30  N   UNL     1     -12.322   9.656  71.641  0.00  0.00    -0.204 NA
ATOM     31  C   UNL     1     -11.245   8.846  71.526  0.00  0.00    +0.192 A 
ATOM     32  N   UNL     1     -10.731   8.143  72.644  0.00  0.00    -0.105 NA
ATOM     33  C   UNL     1     -10.585   8.780  70.313  0.00  0.00    +0.152 A 
ATOM     34  N   UNL     1      -9.593   8.009  69.841  0.00  0.00    -0.219 NA
ATOM     35  C   UNL     1      -9.499   8.328  68.534  0.00  0.00    +0.180 A 
ENDBRANCH  25  26
ENDBRANCH  23  25
ENDBRANCH  22  23
ENDBRANCH  21  22
ENDBRANCH   1  21
TORSDOF 17
ENDMDL
MODEL 7
REMARK VINA RESULT:      -6.5      4.124      7.369
REMARK  Name = 
REMARK  17 active torsions:
REMARK  status: ('A' for Active; 'I' for Inactive)
REMARK    1  A    between atoms: C_2  and  O_4
REMARK    2  A    between atoms: O_4  and  C_5
REMARK    3  A    between atoms: C_5  and  O_7
REMARK    4  A    between atoms: O_7  and  C_8
REMARK    5  A    between atoms: C_8  and  O_9
REMARK    6  A    between atoms: O_9  and  P_10
REMARK    7  A    between atoms: P_10  and  C_12
REMARK    8  A    between atoms: P_10  and  O_27
REMARK    9  A    between atoms: C_12  and  O_13
REMARK   10  A    between atoms: O_13  and  C_14
REMARK   11  A    between atoms: C_14  and  C_16
REMARK   12  A    between atoms: C_16  and  N_17
REMARK   13  A    between atoms: O_27  and  C_28
REMARK   14  A    between atoms: C_28  and  O_29
REMARK   15  A    between atoms: O_29  and  C_30
REMARK   16  A    between atoms: C_30  and  O_32
REMARK   17  A    between atoms: O_32  and  C_33
REMARK                            x       y       z     vdW  Elec       q    Type
REMARK                         _______ _______ _______ _____ _____    ______ ____
ROOT
ATOM      1  P   UNL     1      -8.585  14.911  67.708  0.00  0.00    +0.378 P 
ATOM      2  O   UNL     1      -9.373  14.625  66.462  0.00  0.00    -0.255 OA
ENDROOT
BRANCH   1   3
ATOM      3  O   UNL     1      -7.261  15.912  67.436  0.00  0.00    -0.250 OA
BRANCH   3   4
ATOM      4  C   UNL     1      -6.800  16.510  68.592  0.00  0.00    +0.372 C 
BRANCH   4   5
ATOM      5  O   UNL     1      -6.484  17.889  68.412  0.00  0.00    -0.387 OA
BRANCH   5   6
ATOM      6  C   UNL     1      -7.366  18.908  68.750  0.00  0.00    +0.514 C 
ATOM      7  O   UNL     1      -6.851  19.902  69.344  0.00  0.00    -0.203 OA
BRANCH   6   8
ATOM      8  O   UNL     1      -8.745  18.808  68.575  0.00  0.00    -0.422 OA
BRANCH   8   9
ATOM      9  C   UNL     1      -9.254  18.842  67.262  0.00  0.00    +0.173 C 
ATOM     10  C   UNL     1      -8.398  19.651  66.320  0.00  0.00    +0.047 C 
ATOM     11  C   UNL     1     -10.709  19.185  67.193  0.00  0.00    +0.047 C 
ENDBRANCH   8   9
ENDBRANCH   6   8
ENDBRANCH   5   6
ENDBRANCH   4   5
ENDBRANCH   3   4
ENDBRANCH   1   3
BRANCH   1  12
ATOM     12  O   UNL     1      -9.599  15.589  68.886  0.00  0.00    -0.250 OA
BRANCH  12  13
ATOM     13  C   UNL     1     -10.909  15.425  68.477  0.00  0.00    +0.372 C 
BRANCH  13  14
ATOM     14  O   UNL     1     -11.689  16.338  69.246  0.00  0.00    -0.387 OA
BRANCH  14  15
ATOM     15  C   UNL     1     -12.157  15.876  70.475  0.00  0.00    +0.514 C 
ATOM     16  O   UNL     1     -11.559  16.180  71.526  0.00  0.00    -0.203 OA
BRANCH  15  17
ATOM     17  O   UNL     1     -13.204  14.980  70.568  0.00  0.00    -0.422 OA
BRANCH  17  19
ATOM     18  C   UNL     1     -14.845  15.008  71.555  0.00  0.00    +0.047 C 
ATOM     19  C   UNL     1     -13.990  14.862  71.737  0.00  0.00    +0.173 C 
ATOM     20  C   UNL     1     -13.736  13.489  72.348  0.00  0.00    +0.047 C 
ENDBRANCH  17  19
ENDBRANCH  15  17
ENDBRANCH  14  15
ENDBRANCH  13  14
ENDBRANCH  12  13
ENDBRANCH   1  12
BRANCH   1  21
ATOM     21  C   UNL     1      -7.963  13.358  68.377  0.00  0.00    +0.258 C 
BRANCH  21  22
ATOM     22  O   UNL     1      -7.791  12.412  67.351  0.00  0.00    -0.343 OA
BRANCH  22  23
ATOM     23  C   UNL     1      -8.005  11.143  68.201  0.00  0.00    +0.139 C 
ATOM     24  C   UNL     1      -6.538  10.490  67.721  0.00  0.00    +0.034 C 
BRANCH  23  25
ATOM     25  C   UNL     1      -8.857  10.404  66.970  0.00  0.00    +0.138 C 
BRANCH  25  26
ATOM     26  N   UNL     1     -10.120  11.026  66.881  0.00  0.00    -0.292 N 
ATOM     27  C   UNL     1     -10.554  11.495  65.683  0.00  0.00    +0.167 A 
ATOM     28  N   UNL     1     -10.289  11.174  64.392  0.00  0.00    -0.205 NA
ATOM     29  C   UNL     1     -11.057  11.623  63.370  0.00  0.00    +0.202 A 
ATOM     30  N   UNL     1     -11.994  12.558  63.580  0.00  0.00    -0.204 NA
ATOM     31  C   UNL     1     -12.317  12.883  64.853  0.00  0.00    +0.192 A 
ATOM     32  N   UNL     1     -13.143  13.999  65.140  0.00  0.00    -0.105 NA
ATOM     33  C   UNL     1     -11.754  12.164  65.891  0.00  0.00    +0.152 A 
ATOM     34  N   UNL     1     -11.952  12.147  67.218  0.00  0.00    -0.219 NA
ATOM     35  C   UNL     1     -11.203  11.119  67.666  0.00  0.00    +0.180 A 
ENDBRANCH  25  26
ENDBRANCH  23  25
ENDBRANCH  22  23
ENDBRANCH  21  22
ENDBRANCH   1  21
TORSDOF 17
ENDMDL
MODEL 8
REMARK VINA RESULT:      -6.5      3.373      6.020
REMARK  Name = 
REMARK  17 active torsions:
REMARK  status: ('A' for Active; 'I' for Inactive)
REMARK    1  A    between atoms: C_2  and  O_4
REMARK    2  A    between atoms: O_4  and  C_5
REMARK    3  A    between atoms: C_5  and  O_7
REMARK    4  A    between atoms: O_7  and  C_8
REMARK    5  A    between atoms: C_8  and  O_9
REMARK    6  A    between atoms: O_9  and  P_10
REMARK    7  A    between atoms: P_10  and  C_12
REMARK    8  A    between atoms: P_10  and  O_27
REMARK    9  A    between atoms: C_12  and  O_13
REMARK   10  A    between atoms: O_13  and  C_14
REMARK   11  A    between atoms: C_14  and  C_16
REMARK   12  A    between atoms: C_16  and  N_17
REMARK   13  A    between atoms: O_27  and  C_28
REMARK   14  A    between atoms: C_28  and  O_29
REMARK   15  A    between atoms: O_29  and  C_30
REMARK   16  A    between atoms: C_30  and  O_32
REMARK   17  A    between atoms: O_32  and  C_33
REMARK                            x       y       z     vdW  Elec       q    Type
REMARK                         _______ _______ _______ _____ _____    ______ ____
ROOT
ATOM      1  P   UNL     1     -10.893  11.559  67.846  0.00  0.00    +0.378 P 
ATOM      2  O   UNL     1      -9.524  12.115  68.111  0.00  0.00    -0.255 OA
ENDROOT
BRANCH   1   3
ATOM      3  O   UNL     1     -10.956   9.881  67.950  0.00  0.00    -0.250 OA
BRANCH   3   4
ATOM      4  C   UNL     1     -10.349   9.395  69.090  0.00  0.00    +0.372 C 
BRANCH   4   5
ATOM      5  O   UNL     1     -10.801   8.089  69.442  0.00  0.00    -0.387 OA
BRANCH   5   6
ATOM      6  C   UNL     1     -11.480   7.827  70.627  0.00  0.00    +0.514 C 
ATOM      7  O   UNL     1     -11.896   6.639  70.766  0.00  0.00    -0.203 OA
BRANCH   6   8
ATOM      8  O   UNL     1     -11.803   8.818  71.551  0.00  0.00    -0.422 OA
BRANCH   8   9
ATOM      9  C   UNL     1     -13.085   9.397  71.485  0.00  0.00    +0.173 C 
ATOM     10  C   UNL     1     -13.077  10.880  71.761  0.00  0.00    +0.047 C 
ATOM     11  C   UNL     1     -14.120   8.649  72.266  0.00  0.00    +0.047 C 
ENDBRANCH   8   9
ENDBRANCH   6   8
ENDBRANCH   5   6
ENDBRANCH   4   5
ENDBRANCH   3   4
ENDBRANCH   1   3
BRANCH   1  12
ATOM     12  O   UNL     1     -12.013  12.253  68.913  0.00  0.00    -0.250 OA
BRANCH  12  13
ATOM     13  C   UNL     1     -11.428  13.365  69.491  0.00  0.00    +0.372 C 
BRANCH  13  14
ATOM     14  O   UNL     1     -12.352  14.438  69.324  0.00  0.00    -0.387 OA
BRANCH  14  15
ATOM     15  C   UNL     1     -12.157  15.560  70.128  0.00  0.00    +0.514 C 
ATOM     16  O   UNL     1     -11.624  16.583  69.655  0.00  0.00    -0.203 OA
BRANCH  15  17
ATOM     17  O   UNL     1     -12.422  15.543  71.483  0.00  0.00    -0.422 OA
BRANCH  17  19
ATOM     18  C   UNL     1     -13.223  14.577  72.930  0.00  0.00    +0.047 C 
ATOM     19  C   UNL     1     -13.352  14.645  72.055  0.00  0.00    +0.173 C 
ATOM     20  C   UNL     1     -14.756  15.115  71.694  0.00  0.00    +0.047 C 
ENDBRANCH  17  19
ENDBRANCH  15  17
ENDBRANCH  14  15
ENDBRANCH  13  14
ENDBRANCH  12  13
ENDBRANCH   1  12
BRANCH   1  21
ATOM     21  C   UNL     1     -11.398  12.018  66.178  0.00  0.00    +0.258 C 
BRANCH  21  22
ATOM     22  O   UNL     1     -10.498  12.948  65.627  0.00  0.00    -0.343 OA
BRANCH  22  23
ATOM     23  C   UNL     1     -11.318  14.222  65.911  0.00  0.00    +0.139 C 
ATOM     24  C   UNL     1     -12.122  14.116  64.445  0.00  0.00    +0.034 C 
BRANCH  23  25
ATOM     25  C   UNL     1     -10.107  15.195  65.297  0.00  0.00    +0.138 C 
BRANCH  25  26
ATOM     26  N   UNL     1      -9.557  15.932  66.367  0.00  0.00    -0.292 N 
ATOM     27  C   UNL     1      -9.650  17.286  66.366  0.00  0.00    +0.167 A 
ATOM     28  N   UNL     1     -10.509  18.173  65.805  0.00  0.00    -0.205 NA
ATOM     29  C   UNL     1     -10.535  19.477  66.172  0.00  0.00    +0.202 A 
ATOM     30  N   UNL     1      -9.581  19.981  66.967  0.00  0.00    -0.204 NA
ATOM     31  C   UNL     1      -8.724  19.130  67.578  0.00  0.00    +0.192 A 
ATOM     32  N   UNL     1      -7.577  19.606  68.260  0.00  0.00    -0.105 NA
ATOM     33  C   UNL     1      -8.930  17.768  67.452  0.00  0.00    +0.152 A 
ATOM     34  N   UNL     1      -8.361  16.692  68.015  0.00  0.00    -0.219 NA
ATOM     35  C   UNL     1      -9.106  15.649  67.597  0.00  0.00    +0.180 A 
ENDBRANCH  25  26
ENDBRANCH  23  25
ENDBRANCH  22  23
ENDBRANCH  21  22
ENDBRANCH   1  21
TORSDOF 17
ENDMDL
MODEL 9
REMARK VINA RESULT:      -6.5      1.620      2.180
REMARK  Name = 
REMARK  17 active torsions:
REMARK  status: ('A' for Active; 'I' for Inactive)
REMARK    1  A    between atoms: C_2  and  O_4
REMARK    2  A    between atoms: O_4  and  C_5
REMARK    3  A    between atoms: C_5  and  O_7
REMARK    4  A    between atoms: O_7  and  C_8
REMARK    5  A    between atoms: C_8  and  O_9
REMARK    6  A    between atoms: O_9  and  P_10
REMARK    7  A    between atoms: P_10  and  C_12
REMARK    8  A    between atoms: P_10  and  O_27
REMARK    9  A    between atoms: C_12  and  O_13
REMARK   10  A    between atoms: O_13  and  C_14
REMARK   11  A    between atoms: C_14  and  C_16
REMARK   12  A    between atoms: C_16  and  N_17
REMARK   13  A    between atoms: O_27  and  C_28
REMARK   14  A    between atoms: C_28  and  O_29
REMARK   15  A    between atoms: O_29  and  C_30
REMARK   16  A    between atoms: C_30  and  O_32
REMARK   17  A    between atoms: O_32  and  C_33
REMARK                            x       y       z     vdW  Elec       q    Type
REMARK                         _______ _______ _______ _____ _____    ______ ____
ROOT
ATOM      1  P   UNL     1      -9.579  17.031  67.419  0.00  0.00    +0.378 P 
ATOM      2  O   UNL     1      -8.454  16.628  68.327  0.00  0.00    -0.255 OA
ENDROOT
BRANCH   1   3
ATOM      3  O   UNL     1      -9.830  15.947  66.157  0.00  0.00    -0.250 OA
BRANCH   3   4
ATOM      4  C   UNL     1      -9.240  14.720  66.385  0.00  0.00    +0.372 C 
BRANCH   4   5
ATOM      5  O   UNL     1     -10.069  13.841  67.142  0.00  0.00    -0.387 OA
BRANCH   5   6
ATOM      6  C   UNL     1     -11.374  13.538  66.771  0.00  0.00    +0.514 C 
ATOM      7  O   UNL     1     -12.278  14.179  67.382  0.00  0.00    -0.203 OA
BRANCH   6   8
ATOM      8  O   UNL     1     -11.691  12.511  65.884  0.00  0.00    -0.422 OA
BRANCH   8   9
ATOM      9  C   UNL     1     -12.355  12.845  64.688  0.00  0.00    +0.173 C 
ATOM     10  C   UNL     1     -12.029  11.909  63.552  0.00  0.00    +0.047 C 
ATOM     11  C   UNL     1     -12.239  14.292  64.325  0.00  0.00    +0.047 C 
ENDBRANCH   8   9
ENDBRANCH   6   8
ENDBRANCH   5   6
ENDBRANCH   4   5
ENDBRANCH   3   4
ENDBRANCH   1   3
BRANCH   1  12
ATOM     12  O   UNL     1     -11.004  17.223  68.317  0.00  0.00    -0.250 OA
BRANCH  12  13
ATOM     13  C   UNL     1     -10.786  16.722  69.588  0.00  0.00    +0.372 C 
BRANCH  13  14
ATOM     14  O   UNL     1     -11.989  16.060  69.971  0.00  0.00    -0.387 OA
BRANCH  14  15
ATOM     15  C   UNL     1     -11.870  15.060  70.935  0.00  0.00    +0.514 C 
ATOM     16  O   UNL     1     -12.046  13.866  70.622  0.00  0.00    -0.203 OA
BRANCH  15  17
ATOM     17  O   UNL     1     -11.681  15.352  72.272  0.00  0.00    -0.422 OA
BRANCH  17  19
ATOM     18  C   UNL     1     -12.414  15.383  74.041  0.00  0.00    +0.047 C 
ATOM     19  C   UNL     1     -12.677  15.098  73.243  0.00  0.00    +0.173 C 
ATOM     20  C   UNL     1     -13.977  15.740  72.777  0.00  0.00    +0.047 C 
ENDBRANCH  17  19
ENDBRANCH  15  17
ENDBRANCH  14  15
ENDBRANCH  13  14
ENDBRANCH  12  13
ENDBRANCH   1  12
BRANCH   1  21
ATOM     21  C   UNL     1      -9.195  18.633  66.687  0.00  0.00    +0.258 C 
BRANCH  21  22
ATOM     22  O   UNL     1      -8.028  18.554  65.908  0.00  0.00    -0.343 OA
BRANCH  22  23
ATOM     23  C   UNL     1      -7.309  19.791  66.482  0.00  0.00    +0.139 C 
ATOM     24  C   UNL     1      -6.611  20.158  65.004  0.00  0.00    +0.034 C 
BRANCH  23  25
ATOM     25  C   UNL     1      -6.014  18.864  66.983  0.00  0.00    +0.138 C 
BRANCH  25  26
ATOM     26  N   UNL     1      -5.253  19.636  67.886  0.00  0.00    -0.292 N 
ATOM     27  C   UNL     1      -5.297  19.351  69.213  0.00  0.00    +0.167 A 
ATOM     28  N   UNL     1      -5.564  18.232  69.930  0.00  0.00    -0.205 NA
ATOM     29  C   UNL     1      -5.285  18.144  71.254  0.00  0.00    +0.202 A 
ATOM     30  N   UNL     1      -4.911  19.230  71.945  0.00  0.00    -0.204 NA
ATOM     31  C   UNL     1      -4.598  20.359  71.268  0.00  0.00    +0.192 A 
ATOM     32  N   UNL     1      -4.397  21.588  71.944  0.00  0.00    -0.105 NA
ATOM     33  C   UNL     1      -4.566  20.323  69.887  0.00  0.00    +0.152 A 
ATOM     34  N   UNL     1      -4.183  21.203  68.949  0.00  0.00    -0.219 NA
ATOM     35  C   UNL     1      -4.249  20.520  67.787  0.00  0.00    +0.180 A 
ENDBRANCH  25  26
ENDBRANCH  23  25
ENDBRANCH  22  23
ENDBRANCH  21  22
ENDBRANCH   1  21
TORSDOF 17
ENDMDL
