MODEL 1
REMARK VINA RESULT:      -6.0      0.000      0.000
REMARK  Name = 
REMARK  7 active torsions:
REMARK  status: ('A' for Active; 'I' for Inactive)
REMARK    1  A    between atoms: C_2  and  C_3
REMARK    2  A    between atoms: C_3  and  C_4
REMARK    3  A    between atoms: C_3  and  C_6
REMARK    4  A    between atoms: C_6  and  N_7
REMARK    5  A    between atoms: C_6  and  C_11
REMARK    6  A    between atoms: C_12  and  N_13
REMARK    7  A    between atoms: C_18  and  C_19
REMARK                            x       y       z     vdW  Elec       q    Type
REMARK                         _______ _______ _______ _____ _____    ______ ____
ROOT
ATOM      1  C   UNL     1     -11.600  14.127  66.997  0.00  0.00    +0.091 C 
ATOM      2  C   UNL     1     -11.675  12.667  66.139  0.00  0.00    +0.168 C 
ATOM      3  O   UNL     1     -10.320  12.128  66.619  0.00  0.00    -0.222 OA
ATOM      4  C   UNL     1     -10.895  13.270  64.709  0.00  0.00    +0.137 C 
ATOM      5  C   UNL     1     -11.484  14.785  64.868  0.00  0.00    +0.057 C 
ATOM      6  C   UNL     1     -10.329  14.742  66.077  0.00  0.00    +0.186 C 
ENDROOT
BRANCH   6   7
ATOM      7  N   UNL     1     -10.681  16.217  66.576  0.00  0.00    -0.090 NA
ATOM      8  C   UNL     1      -9.722  17.209  66.485  0.00  0.00    +0.534 C 
ATOM      9  N   UNL     1     -10.217  18.538  66.730  0.00  0.00    +0.135 NA
ATOM     10  N   UNL     1      -8.733  17.045  65.674  0.00  0.00    +0.135 NA
ENDBRANCH   6   7
BRANCH   4  11
ATOM     11  C   UNL     1     -12.101  12.800  63.742  0.00  0.00    +0.367 C 
ATOM     12  O   UNL     1     -11.982  11.565  63.164  0.00  0.00    -0.246 OA
ATOM     13  O   UNL     1     -12.665  13.776  63.157  0.00  0.00    -0.246 OA
ENDBRANCH   4  11
BRANCH   1  14
ATOM     14  C   UNL     1     -10.716  13.565  68.335  0.00  0.00    +0.101 C 
BRANCH  14  15
ATOM     15  N   UNL     1     -10.092  14.976  68.748  0.00  0.00    -0.207 NA
ATOM     16  C   UNL     1      -8.680  14.831  68.934  0.00  0.00    +0.242 C 
ATOM     17  O   UNL     1      -8.067  13.750  68.731  0.00  0.00    -0.273 OA
ATOM     18  C   UNL     1      -7.808  15.996  69.283  0.00  0.00    +0.096 C 
ENDBRANCH  14  15
BRANCH  14  19
ATOM     19  C   UNL     1     -12.025  13.814  69.338  0.00  0.00    +0.020 C 
BRANCH  19  21
ATOM     20  C   UNL     1     -11.960  11.438  69.574  0.00  0.00    +0.000 C 
ATOM     21  C   UNL     1     -11.947  12.680  70.331  0.00  0.00    +0.002 C 
ENDBRANCH  19  21
BRANCH  19  22
ATOM     22  C   UNL     1     -11.685  15.149  69.930  0.00  0.00    +0.002 C 
ATOM     23  C   UNL     1     -12.786  15.521  70.882  0.00  0.00    +0.000 C 
ENDBRANCH  19  22
ENDBRANCH  14  19
ENDBRANCH   1  14
TORSDOF 7
ENDMDL
MODEL 2
REMARK VINA RESULT:      -5.6      2.407      4.632
REMARK  Name = 
REMARK  7 active torsions:
REMARK  status: ('A' for Active; 'I' for Inactive)
REMARK    1  A    between atoms: C_2  and  C_3
REMARK    2  A    between atoms: C_3  and  C_4
REMARK    3  A    between atoms: C_3  and  C_6
REMARK    4  A    between atoms: C_6  and  N_7
REMARK    5  A    between atoms: C_6  and  C_11
REMARK    6  A    between atoms: C_12  and  N_13
REMARK    7  A    between atoms: C_18  and  C_19
REMARK                            x       y       z     vdW  Elec       q    Type
REMARK                         _______ _______ _______ _____ _____    ______ ____
ROOT
ATOM      1  C   UNL     1     -10.585  13.610  67.521  0.00  0.00    +0.091 C 
ATOM      2  C   UNL     1     -10.980  13.950  65.908  0.00  0.00    +0.168 C 
ATOM      3  O   UNL     1     -12.293  14.684  66.216  0.00  0.00    -0.222 OA
ATOM      4  C   UNL     1     -11.891  12.495  65.647  0.00  0.00    +0.137 C 
ATOM      5  C   UNL     1     -10.986  11.590  66.662  0.00  0.00    +0.057 C 
ATOM      6  C   UNL     1     -11.861  12.531  67.734  0.00  0.00    +0.186 C 
ENDROOT
BRANCH   6   7
ATOM      7  N   UNL     1     -11.124  11.909  69.005  0.00  0.00    -0.090 NA
ATOM      8  C   UNL     1     -11.825  11.069  69.850  0.00  0.00    +0.534 C 
ATOM      9  N   UNL     1     -11.009  10.378  70.814  0.00  0.00    +0.135 NA
ATOM     10  N   UNL     1     -12.899  10.503  69.414  0.00  0.00    +0.135 NA
ENDBRANCH   6   7
BRANCH   4  11
ATOM     11  C   UNL     1     -11.023  12.076  64.349  0.00  0.00    +0.367 C 
ATOM     12  O   UNL     1     -11.526  12.439  63.129  0.00  0.00    -0.246 OA
ATOM     13  O   UNL     1     -10.369  11.002  64.525  0.00  0.00    -0.246 OA
ENDBRANCH   4  11
BRANCH   1  14
ATOM     14  C   UNL     1     -11.279  14.990  68.228  0.00  0.00    +0.101 C 
BRANCH  14  15
ATOM     15  N   UNL     1     -10.827  14.676  69.726  0.00  0.00    -0.207 NA
ATOM     16  C   UNL     1     -11.761  15.269  70.635  0.00  0.00    +0.242 C 
ATOM     17  O   UNL     1     -12.794  15.882  70.256  0.00  0.00    -0.273 OA
ATOM     18  C   UNL     1     -11.628  15.109  72.117  0.00  0.00    +0.096 C 
ENDBRANCH  14  15
BRANCH  14  19
ATOM     19  C   UNL     1      -9.885  15.864  67.956  0.00  0.00    +0.020 C 
BRANCH  19  21
ATOM     20  C   UNL     1     -10.089  17.698  66.439  0.00  0.00    +0.000 C 
ATOM     21  C   UNL     1     -10.366  17.287  67.806  0.00  0.00    +0.002 C 
ENDBRANCH  19  21
BRANCH  19  22
ATOM     22  C   UNL     1      -9.137  15.619  69.232  0.00  0.00    +0.002 C 
ATOM     23  C   UNL     1      -7.727  16.097  69.036  0.00  0.00    +0.000 C 
ENDBRANCH  19  22
ENDBRANCH  14  19
ENDBRANCH   1  14
TORSDOF 7
ENDMDL
MODEL 3
REMARK VINA RESULT:      -5.5      3.034      5.314
REMARK  Name = 
REMARK  7 active torsions:
REMARK  status: ('A' for Active; 'I' for Inactive)
REMARK    1  A    between atoms: C_2  and  C_3
REMARK    2  A    between atoms: C_3  and  C_4
REMARK    3  A    between atoms: C_3  and  C_6
REMARK    4  A    between atoms: C_6  and  N_7
REMARK    5  A    between atoms: C_6  and  C_11
REMARK    6  A    between atoms: C_12  and  N_13
REMARK    7  A    between atoms: C_18  and  C_19
REMARK                            x       y       z     vdW  Elec       q    Type
REMARK                         _______ _______ _______ _____ _____    ______ ____
ROOT
ATOM      1  C   UNL     1      -8.405  15.469  67.071  0.00  0.00    +0.091 C 
ATOM      2  C   UNL     1      -8.272  14.531  68.476  0.00  0.00    +0.168 C 
ATOM      3  O   UNL     1      -9.150  15.434  69.355  0.00  0.00    -0.222 OA
ATOM      4  C   UNL     1      -6.869  15.348  69.093  0.00  0.00    +0.137 C 
ATOM      5  C   UNL     1      -6.252  15.679  67.617  0.00  0.00    +0.057 C 
ATOM      6  C   UNL     1      -7.526  16.760  67.702  0.00  0.00    +0.186 C 
ENDROOT
BRANCH   6   7
ATOM      7  N   UNL     1      -7.266  17.306  66.225  0.00  0.00    -0.090 NA
ATOM      8  C   UNL     1      -6.785  18.591  66.054  0.00  0.00    +0.534 C 
ATOM      9  N   UNL     1      -6.359  18.892  64.712  0.00  0.00    +0.135 NA
ATOM     10  N   UNL     1      -6.202  19.174  67.045  0.00  0.00    +0.135 NA
ENDBRANCH   6   7
BRANCH   4  11
ATOM     11  C   UNL     1      -6.024  13.977  69.242  0.00  0.00    +0.367 C 
ATOM     12  O   UNL     1      -5.913  13.458  70.504  0.00  0.00    -0.246 OA
ATOM     13  O   UNL     1      -5.099  13.878  68.379  0.00  0.00    -0.246 OA
ENDBRANCH   4  11
BRANCH   1  14
ATOM     14  C   UNL     1      -9.976  16.060  67.332  0.00  0.00    +0.101 C 
BRANCH  14  15
ATOM     15  N   UNL     1      -9.988  17.095  66.117  0.00  0.00    -0.207 NA
ATOM     16  C   UNL     1     -10.488  18.356  66.576  0.00  0.00    +0.242 C 
ATOM     17  O   UNL     1     -10.800  18.577  67.776  0.00  0.00    -0.273 OA
ATOM     18  C   UNL     1     -10.575  19.545  65.671  0.00  0.00    +0.096 C 
ENDBRANCH  14  15
BRANCH  14  19
ATOM     19  C   UNL     1     -10.617  14.865  66.362  0.00  0.00    +0.020 C 
BRANCH  19  21
ATOM     20  C   UNL     1     -11.592  13.031  67.544  0.00  0.00    +0.000 C 
ATOM     21  C   UNL     1     -11.841  14.398  67.113  0.00  0.00    +0.002 C 
ENDBRANCH  19  21
BRANCH  19  22
ATOM     22  C   UNL     1     -10.940  15.642  65.121  0.00  0.00    +0.002 C 
ATOM     23  C   UNL     1     -12.050  14.925  64.408  0.00  0.00    +0.000 C 
ENDBRANCH  19  22
ENDBRANCH  14  19
ENDBRANCH   1  14
TORSDOF 7
ENDMDL
MODEL 4
REMARK VINA RESULT:      -5.5      2.698      4.923
REMARK  Name = 
REMARK  7 active torsions:
REMARK  status: ('A' for Active; 'I' for Inactive)
REMARK    1  A    between atoms: C_2  and  C_3
REMARK    2  A    between atoms: C_3  and  C_4
REMARK    3  A    between atoms: C_3  and  C_6
REMARK    4  A    between atoms: C_6  and  N_7
REMARK    5  A    between atoms: C_6  and  C_11
REMARK    6  A    between atoms: C_12  and  N_13
REMARK    7  A    between atoms: C_18  and  C_19
REMARK                            x       y       z     vdW  Elec       q    Type
REMARK                         _______ _______ _______ _____ _____    ______ ____
ROOT
ATOM      1  C   UNL     1     -10.717  14.770  67.029  0.00  0.00    +0.091 C 
ATOM      2  C   UNL     1      -9.392  15.476  66.244  0.00  0.00    +0.168 C 
ATOM      3  O   UNL     1      -8.321  14.611  66.926  0.00  0.00    -0.222 OA
ATOM      4  C   UNL     1      -9.119  16.704  67.442  0.00  0.00    +0.137 C 
ATOM      5  C   UNL     1     -10.696  16.848  67.842  0.00  0.00    +0.057 C 
ATOM      6  C   UNL     1     -10.301  15.381  68.543  0.00  0.00    +0.186 C 
ENDROOT
BRANCH   6   7
ATOM      7  N   UNL     1     -11.793  15.133  69.054  0.00  0.00    -0.090 NA
ATOM      8  C   UNL     1     -12.025  14.958  70.406  0.00  0.00    +0.534 C 
ATOM      9  N   UNL     1     -13.415  14.987  70.778  0.00  0.00    +0.135 NA
ATOM     10  N   UNL     1     -11.139  15.371  71.247  0.00  0.00    +0.135 NA
ENDBRANCH   6   7
BRANCH   4  11
ATOM     11  C   UNL     1      -9.186  17.903  66.361  0.00  0.00    +0.367 C 
ATOM     12  O   UNL     1      -7.993  18.340  65.851  0.00  0.00    -0.246 OA
ATOM     13  O   UNL     1     -10.171  18.680  66.555  0.00  0.00    -0.246 OA
ENDBRANCH   4  11
BRANCH   1  14
ATOM     14  C   UNL     1     -10.085  13.202  67.189  0.00  0.00    +0.101 C 
BRANCH  14  15
ATOM     15  N   UNL     1     -11.412  12.527  67.767  0.00  0.00    -0.207 NA
ATOM     16  C   UNL     1     -11.055  11.562  68.763  0.00  0.00    +0.242 C 
ATOM     17  O   UNL     1      -9.867  11.360  69.131  0.00  0.00    -0.273 OA
ATOM     18  C   UNL     1     -12.091  10.793  69.521  0.00  0.00    +0.096 C 
ENDBRANCH  14  15
BRANCH  14  19
ATOM     19  C   UNL     1     -10.538  12.830  65.627  0.00  0.00    +0.020 C 
BRANCH  19  21
ATOM     20  C   UNL     1     -10.221  10.479  65.350  0.00  0.00    +0.000 C 
ATOM     21  C   UNL     1      -9.556  11.764  65.204  0.00  0.00    +0.002 C 
ENDBRANCH  19  21
BRANCH  19  22
ATOM     22  C   UNL     1     -11.927  12.309  65.845  0.00  0.00    +0.002 C 
ATOM     23  C   UNL     1     -12.751  12.686  64.648  0.00  0.00    +0.000 C 
ENDBRANCH  19  22
ENDBRANCH  14  19
ENDBRANCH   1  14
TORSDOF 7
ENDMDL
MODEL 5
REMARK VINA RESULT:      -5.5      2.703      5.269
REMARK  Name = 
REMARK  7 active torsions:
REMARK  status: ('A' for Active; 'I' for Inactive)
REMARK    1  A    between atoms: C_2  and  C_3
REMARK    2  A    between atoms: C_3  and  C_4
REMARK    3  A    between atoms: C_3  and  C_6
REMARK    4  A    between atoms: C_6  and  N_7
REMARK    5  A    between atoms: C_6  and  C_11
REMARK    6  A    between atoms: C_12  and  N_13
REMARK    7  A    between atoms: C_18  and  C_19
REMARK                            x       y       z     vdW  Elec       q    Type
REMARK                         _______ _______ _______ _____ _____    ______ ____
ROOT
ATOM      1  C   UNL     1     -11.011  14.294  69.684  0.00  0.00    +0.091 C 
ATOM      2  C   UNL     1     -12.192  14.055  70.876  0.00  0.00    +0.168 C 
ATOM      3  O   UNL     1     -13.367  13.874  69.905  0.00  0.00    -0.222 OA
ATOM      4  C   UNL     1     -12.618  15.731  71.032  0.00  0.00    +0.137 C 
ATOM      5  C   UNL     1     -11.116  16.280  70.697  0.00  0.00    +0.057 C 
ATOM      6  C   UNL     1     -11.638  15.778  69.189  0.00  0.00    +0.186 C 
ENDROOT
BRANCH   6   7
ATOM      7  N   UNL     1     -10.244  16.137  68.499  0.00  0.00    -0.090 NA
ATOM      8  C   UNL     1     -10.163  17.242  67.672  0.00  0.00    +0.534 C 
ATOM      9  N   UNL     1      -8.822  17.612  67.304  0.00  0.00    +0.135 NA
ATOM     10  N   UNL     1     -11.064  18.159  67.771  0.00  0.00    +0.135 NA
ENDBRANCH   6   7
BRANCH   4  11
ATOM     11  C   UNL     1     -12.369  15.742  72.629  0.00  0.00    +0.367 C 
ATOM     12  O   UNL     1     -13.284  15.077  73.399  0.00  0.00    -0.246 OA
ATOM     13  O   UNL     1     -11.781  16.795  73.023  0.00  0.00    -0.246 OA
ENDBRANCH   4  11
BRANCH   1  14
ATOM     14  C   UNL     1     -11.688  13.302  68.483  0.00  0.00    +0.101 C 
BRANCH  14  15
ATOM     15  N   UNL     1     -10.584  13.587  67.365  0.00  0.00    -0.207 NA
ATOM     16  C   UNL     1     -11.235  13.890  66.126  0.00  0.00    +0.242 C 
ATOM     17  O   UNL     1     -12.487  13.964  66.007  0.00  0.00    -0.273 OA
ATOM     18  C   UNL     1     -10.461  14.247  64.897  0.00  0.00    +0.096 C 
ENDBRANCH  14  15
BRANCH  14  19
ATOM     19  C   UNL     1     -10.826  11.989  69.044  0.00  0.00    +0.020 C 
BRANCH  19  21
ATOM     20  C   UNL     1     -12.050  10.424  70.371  0.00  0.00    +0.000 C 
ATOM     21  C   UNL     1     -11.819  10.852  69.000  0.00  0.00    +0.002 C 
ENDBRANCH  19  21
BRANCH  19  22
ATOM     22  C   UNL     1      -9.752  11.882  68.003  0.00  0.00    +0.002 C 
ATOM     23  C   UNL     1      -9.010  10.598  68.240  0.00  0.00    +0.000 C 
ENDBRANCH  19  22
ENDBRANCH  14  19
ENDBRANCH   1  14
TORSDOF 7
ENDMDL
MODEL 6
REMARK VINA RESULT:      -5.4      3.138      5.298
REMARK  Name = 
REMARK  7 active torsions:
REMARK  status: ('A' for Active; 'I' for Inactive)
REMARK    1  A    between atoms: C_2  and  C_3
REMARK    2  A    between atoms: C_3  and  C_4
REMARK    3  A    between atoms: C_3  and  C_6
REMARK    4  A    between atoms: C_6  and  N_7
REMARK    5  A    between atoms: C_6  and  C_11
REMARK    6  A    between atoms: C_12  and  N_13
REMARK    7  A    between atoms: C_18  and  C_19
REMARK                            x       y       z     vdW  Elec       q    Type
REMARK                         _______ _______ _______ _____ _____    ______ ____
ROOT
ATOM      1  C   UNL     1      -9.129  14.462  66.707  0.00  0.00    +0.091 C 
ATOM      2  C   UNL     1      -9.202  15.772  67.781  0.00  0.00    +0.168 C 
ATOM      3  O   UNL     1      -9.850  14.997  68.937  0.00  0.00    -0.222 OA
ATOM      4  C   UNL     1     -10.781  16.304  67.292  0.00  0.00    +0.137 C 
ATOM      5  C   UNL     1     -10.605  15.827  65.739  0.00  0.00    +0.057 C 
ATOM      6  C   UNL     1     -10.801  14.363  66.524  0.00  0.00    +0.186 C 
ENDROOT
BRANCH   6   7
ATOM      7  N   UNL     1     -10.604  13.525  65.180  0.00  0.00    -0.090 NA
ATOM      8  C   UNL     1     -11.683  12.852  64.638  0.00  0.00    +0.534 C 
ATOM      9  N   UNL     1     -11.459  12.339  63.312  0.00  0.00    +0.135 NA
ATOM     10  N   UNL     1     -12.874  13.207  64.982  0.00  0.00    +0.135 NA
ENDBRANCH   6   7
BRANCH   4  11
ATOM     11  C   UNL     1     -10.279  17.810  66.985  0.00  0.00    +0.367 C 
ATOM     12  O   UNL     1     -10.720  18.790  67.833  0.00  0.00    -0.246 OA
ATOM     13  O   UNL     1     -10.080  18.015  65.748  0.00  0.00    -0.246 OA
ENDBRANCH   4  11
BRANCH   1  14
ATOM     14  C   UNL     1      -8.912  13.230  67.857  0.00  0.00    +0.101 C 
BRANCH  14  15
ATOM     15  N   UNL     1      -8.984  12.008  66.833  0.00  0.00    -0.207 NA
ATOM     16  C   UNL     1      -9.849  10.998  67.364  0.00  0.00    +0.242 C 
ATOM     17  O   UNL     1     -10.478  11.131  68.448  0.00  0.00    -0.273 OA
ATOM     18  C   UNL     1     -10.153   9.744  66.607  0.00  0.00    +0.096 C 
ENDBRANCH  14  15
BRANCH  14  19
ATOM     19  C   UNL     1      -7.256  13.321  67.682  0.00  0.00    +0.020 C 
BRANCH  19  21
ATOM     20  C   UNL     1      -6.081  14.632  69.297  0.00  0.00    +0.000 C 
ATOM     21  C   UNL     1      -6.737  13.349  69.099  0.00  0.00    +0.002 C 
ENDBRANCH  19  21
BRANCH  19  22
ATOM     22  C   UNL     1      -6.970  12.034  66.968  0.00  0.00    +0.002 C 
ATOM     23  C   UNL     1      -5.489  11.794  67.032  0.00  0.00    +0.000 C 
ENDBRANCH  19  22
ENDBRANCH  14  19
ENDBRANCH   1  14
TORSDOF 7
ENDMDL
MODEL 7
REMARK VINA RESULT:      -5.4      3.284      6.206
REMARK  Name = 
REMARK  7 active torsions:
REMARK  status: ('A' for Active; 'I' for Inactive)
REMARK    1  A    between atoms: C_2  and  C_3
REMARK    2  A    between atoms: C_3  and  C_4
REMARK    3  A    between atoms: C_3  and  C_6
REMARK    4  A    between atoms: C_6  and  N_7
REMARK    5  A    between atoms: C_6  and  C_11
REMARK    6  A    between atoms: C_12  and  N_13
REMARK    7  A    between atoms: C_18  and  C_19
REMARK                            x       y       z     vdW  Elec       q    Type
REMARK                         _______ _______ _______ _____ _____    ______ ____
ROOT
ATOM      1  C   UNL     1     -11.672  12.589  67.843  0.00  0.00    +0.091 C 
ATOM      2  C   UNL     1     -11.772  14.207  68.340  0.00  0.00    +0.168 C 
ATOM      3  O   UNL     1     -10.282  14.526  68.149  0.00  0.00    -0.222 OA
ATOM      4  C   UNL     1     -11.457  13.889  70.018  0.00  0.00    +0.137 C 
ATOM      5  C   UNL     1     -12.178  12.422  70.010  0.00  0.00    +0.057 C 
ATOM      6  C   UNL     1     -10.761  12.109  69.176  0.00  0.00    +0.186 C 
ENDROOT
BRANCH   6   7
ATOM      7  N   UNL     1     -11.164  10.589  68.905  0.00  0.00    -0.090 NA
ATOM      8  C   UNL     1     -10.248   9.588  69.172  0.00  0.00    +0.534 C 
ATOM      9  N   UNL     1     -10.793   8.256  69.125  0.00  0.00    +0.135 NA
ATOM     10  N   UNL     1      -9.268   9.839  69.971  0.00  0.00    +0.135 NA
ENDBRANCH   6   7
BRANCH   4  11
ATOM     11  C   UNL     1     -12.797  14.649  70.508  0.00  0.00    +0.367 C 
ATOM     12  O   UNL     1     -12.727  16.012  70.612  0.00  0.00    -0.246 OA
ATOM     13  O   UNL     1     -13.502  13.940  71.289  0.00  0.00    -0.246 OA
ENDBRANCH   4  11
BRANCH   1  14
ATOM     14  C   UNL     1     -10.418  12.770  66.712  0.00  0.00    +0.101 C 
BRANCH  14  15
ATOM     15  N   UNL     1     -10.549  11.318  66.059  0.00  0.00    -0.207 NA
ATOM     16  C   UNL     1      -9.244  10.748  65.913  0.00  0.00    +0.242 C 
ATOM     17  O   UNL     1      -8.194  11.321  66.309  0.00  0.00    -0.273 OA
ATOM     18  C   UNL     1      -9.044   9.368  65.369  0.00  0.00    +0.096 C 
ENDBRANCH  14  15
BRANCH  14  19
ATOM     19  C   UNL     1     -11.481  13.403  65.594  0.00  0.00    +0.020 C 
BRANCH  19  21
ATOM     20  C   UNL     1     -10.991  15.654  64.962  0.00  0.00    +0.000 C 
ATOM     21  C   UNL     1     -10.614  14.272  64.714  0.00  0.00    +0.002 C 
ENDBRANCH  19  21
BRANCH  19  22
ATOM     22  C   UNL     1     -11.961  12.157  64.913  0.00  0.00    +0.002 C 
ATOM     23  C   UNL     1     -12.254  12.501  63.480  0.00  0.00    +0.000 C 
ENDBRANCH  19  22
ENDBRANCH  14  19
ENDBRANCH   1  14
TORSDOF 7
ENDMDL
MODEL 8
REMARK VINA RESULT:      -5.4      2.735      4.803
REMARK  Name = 
REMARK  7 active torsions:
REMARK  status: ('A' for Active; 'I' for Inactive)
REMARK    1  A    between atoms: C_2  and  C_3
REMARK    2  A    between atoms: C_3  and  C_4
REMARK    3  A    between atoms: C_3  and  C_6
REMARK    4  A    between atoms: C_6  and  N_7
REMARK    5  A    between atoms: C_6  and  C_11
REMARK    6  A    between atoms: C_12  and  N_13
REMARK    7  A    between atoms: C_18  and  C_19
REMARK                            x       y       z     vdW  Elec       q    Type
REMARK                         _______ _______ _______ _____ _____    ______ ____
ROOT
ATOM      1  C   UNL     1     -10.137  15.048  69.231  0.00  0.00    +0.091 C 
ATOM      2  C   UNL     1     -11.384  13.945  69.551  0.00  0.00    +0.168 C 
ATOM      3  O   UNL     1     -11.958  13.933  68.126  0.00  0.00    -0.222 OA
ATOM      4  C   UNL     1     -12.564  15.144  69.983  0.00  0.00    +0.137 C 
ATOM      5  C   UNL     1     -11.471  16.181  70.616  0.00  0.00    +0.057 C 
ATOM      6  C   UNL     1     -11.184  16.343  68.975  0.00  0.00    +0.186 C 
ENDROOT
BRANCH   6   7
ATOM      7  N   UNL     1      -9.978  17.364  69.207  0.00  0.00    -0.090 NA
ATOM      8  C   UNL     1      -9.869  18.477  68.395  0.00  0.00    +0.534 C 
ATOM      9  N   UNL     1      -8.902  19.446  68.842  0.00  0.00    +0.135 NA
ATOM     10  N   UNL     1     -10.909  18.878  67.747  0.00  0.00    +0.135 NA
ENDBRANCH   6   7
BRANCH   4  11
ATOM     11  C   UNL     1     -12.876  14.453  71.411  0.00  0.00    +0.367 C 
ATOM     12  O   UNL     1     -14.151  13.998  71.609  0.00  0.00    -0.246 OA
ATOM     13  O   UNL     1     -12.169  14.934  72.350  0.00  0.00    -0.246 OA
ENDBRANCH   4  11
BRANCH   1  14
ATOM     14  C   UNL     1      -9.849  14.612  67.614  0.00  0.00    +0.101 C 
BRANCH  14  15
ATOM     15  N   UNL     1      -8.464  15.391  67.458  0.00  0.00    -0.207 NA
ATOM     16  C   UNL     1      -8.530  16.246  66.312  0.00  0.00    +0.242 C 
ATOM     17  O   UNL     1      -9.566  16.372  65.606  0.00  0.00    -0.273 OA
ATOM     18  C   UNL     1      -7.393  17.142  65.931  0.00  0.00    +0.096 C 
ENDBRANCH  14  15
BRANCH  14  19
ATOM     19  C   UNL     1      -9.054  13.229  68.100  0.00  0.00    +0.020 C 
BRANCH  19  21
ATOM     20  C   UNL     1      -9.967  11.168  67.308  0.00  0.00    +0.000 C 
ATOM     21  C   UNL     1      -9.157  12.308  66.908  0.00  0.00    +0.002 C 
ENDBRANCH  19  21
BRANCH  19  22
ATOM     22  C   UNL     1      -7.669  13.757  68.327  0.00  0.00    +0.002 C 
ATOM     23  C   UNL     1      -6.797  12.600  68.723  0.00  0.00    +0.000 C 
ENDBRANCH  19  22
ENDBRANCH  14  19
ENDBRANCH   1  14
TORSDOF 7
ENDMDL
MODEL 9
REMARK VINA RESULT:      -5.3      3.929      6.663
REMARK  Name = 
REMARK  7 active torsions:
REMARK  status: ('A' for Active; 'I' for Inactive)
REMARK    1  A    between atoms: C_2  and  C_3
REMARK    2  A    between atoms: C_3  and  C_4
REMARK    3  A    between atoms: C_3  and  C_6
REMARK    4  A    between atoms: C_6  and  N_7
REMARK    5  A    between atoms: C_6  and  C_11
REMARK    6  A    between atoms: C_12  and  N_13
REMARK    7  A    between atoms: C_18  and  C_19
REMARK                            x       y       z     vdW  Elec       q    Type
REMARK                         _______ _______ _______ _____ _____    ______ ____
ROOT
ATOM      1  C   UNL     1      -7.196  17.453  67.866  0.00  0.00    +0.091 C 
ATOM      2  C   UNL     1      -8.718  16.727  67.697  0.00  0.00    +0.168 C 
ATOM      3  O   UNL     1      -9.365  17.428  68.900  0.00  0.00    -0.222 OA
ATOM      4  C   UNL     1      -8.371  15.365  68.716  0.00  0.00    +0.137 C 
ATOM      5  C   UNL     1      -6.786  15.307  68.323  0.00  0.00    +0.057 C 
ATOM      6  C   UNL     1      -6.842  16.658  69.309  0.00  0.00    +0.186 C 
ENDROOT
BRANCH   6   7
ATOM      7  N   UNL     1      -5.291  16.971  69.102  0.00  0.00    -0.090 NA
ATOM      8  C   UNL     1      -4.486  17.164  70.210  0.00  0.00    +0.534 C 
ATOM      9  N   UNL     1      -3.076  17.196  69.922  0.00  0.00    +0.135 NA
ATOM     10  N   UNL     1      -4.885  16.721  71.353  0.00  0.00    +0.135 NA
ENDBRANCH   6   7
BRANCH   4  11
ATOM     11  C   UNL     1      -8.789  14.292  67.581  0.00  0.00    +0.367 C 
ATOM     12  O   UNL     1     -10.079  13.836  67.612  0.00  0.00    -0.246 OA
ATOM     13  O   UNL     1      -7.815  13.564  67.217  0.00  0.00    -0.246 OA
ENDBRANCH   4  11
BRANCH   1  14
ATOM     14  C   UNL     1      -7.716  18.941  68.500  0.00  0.00    +0.101 C 
BRANCH  14  15
ATOM     15  N   UNL     1      -6.305  19.682  68.412  0.00  0.00    -0.207 NA
ATOM     16  C   UNL     1      -6.031  20.325  69.662  0.00  0.00    +0.242 C 
ATOM     17  O   UNL     1      -6.793  20.238  70.662  0.00  0.00    -0.273 OA
ATOM     18  C   UNL     1      -4.754  21.068  69.903  0.00  0.00    +0.096 C 
ENDBRANCH  14  15
BRANCH  14  19
ATOM     19  C   UNL     1      -8.128  19.477  66.976  0.00  0.00    +0.020 C 
BRANCH  19  21
ATOM     20  C   UNL     1     -10.432  19.786  66.424  0.00  0.00    +0.000 C 
ATOM     21  C   UNL     1      -9.341  20.345  67.207  0.00  0.00    +0.002 C 
ENDBRANCH  19  21
BRANCH  19  22
ATOM     22  C   UNL     1      -6.902  20.254  66.601  0.00  0.00    +0.002 C 
ATOM     23  C   UNL     1      -6.716  20.128  65.116  0.00  0.00    +0.000 C 
ENDBRANCH  19  22
ENDBRANCH  14  19
ENDBRANCH   1  14
TORSDOF 7
ENDMDL
