MODEL 1
REMARK VINA RESULT:      -6.8      0.000      0.000
REMARK  Name = 
REMARK  7 active torsions:
REMARK  status: ('A' for Active; 'I' for Inactive)
REMARK    1  A    between atoms: C_2  and  N_3
REMARK    2  A    between atoms: N_3  and  C_4
REMARK    3  A    between atoms: N_3  and  C_6
REMARK    4  A    between atoms: C_6  and  C_7
REMARK    5  A    between atoms: C_7  and  N_8
REMARK    6  A    between atoms: C_9  and  C_11
REMARK    7  A    between atoms: C_15  and  C_16
REMARK                            x       y       z     vdW  Elec       q    Type
REMARK                         _______ _______ _______ _____ _____    ______ ____
ROOT
ATOM      1  C   UNL     1      -8.525  18.645  67.507  0.00  0.00    +0.066 A 
ATOM      2  C   UNL     1      -8.453  17.518  66.715  0.00  0.00    +0.001 A 
ATOM      3  C   UNL     1      -7.196  16.971  66.133  0.00  0.00    +0.033 C 
ATOM      4  C   UNL     1      -9.720  16.957  66.589  0.00  0.00    +0.077 A 
ATOM      5  N   UNL     1     -10.480  17.627  67.491  0.00  0.00    -0.250 NA
ATOM      6  C   UNL     1      -9.860  18.760  67.871  0.00  0.00    +0.063 A 
ATOM      7  C   UNL     1     -10.485  20.062  68.261  0.00  0.00    +0.052 C 
ENDROOT
BRANCH   4   8
ATOM      8  C   UNL     1      -9.890  15.512  66.395  0.00  0.00    +0.023 C 
ATOM      9  C   UNL     1     -10.751  15.076  65.507  0.00  0.00    +0.058 C 
ATOM     10  C   UNL     1     -10.845  13.689  65.036  0.00  0.00    +0.022 A 
ATOM     11  C   UNL     1     -12.030  13.640  64.312  0.00  0.00    +0.074 A 
ATOM     12  C   UNL     1     -12.365  12.390  63.805  0.00  0.00    +0.019 A 
ATOM     13  C   UNL     1     -11.383  11.437  63.564  0.00  0.00    +0.031 A 
ATOM     14  C   UNL     1     -10.153  11.547  64.202  0.00  0.00    +0.140 A 
ATOM     15  F   UNL     1      -9.072  10.835  63.772  0.00  0.00    -0.204 F 
ATOM     16  N   UNL     1     -12.418  14.973  63.963  0.00  0.00    -0.175 NA
ATOM     17  C   UNL     1     -10.022  12.573  65.129  0.00  0.00    +0.031 A 
ATOM     18  C   UNL     1     -11.521  15.909  64.574  0.00  0.00    +0.269 C 
ATOM     19  O   UNL     1     -11.315  17.118  64.250  0.00  0.00    -0.268 OA
ENDBRANCH   4   8
BRANCH   1  21
ATOM     20  N   UNL     1      -6.965  20.611  67.628  0.00  0.00    -0.200 NA
ATOM     21  C   UNL     1      -7.418  19.372  68.146  0.00  0.00    +0.266 C 
ATOM     22  O   UNL     1      -6.653  18.795  68.977  0.00  0.00    -0.268 OA
BRANCH  20  23
ATOM     23  C   UNL     1      -5.662  21.171  67.890  0.00  0.00    +0.133 C 
BRANCH  23  24
ATOM     24  C   UNL     1      -4.762  21.164  66.682  0.00  0.00    +0.096 C 
BRANCH  24  25
ATOM     25  N   UNL     1      -4.539  19.845  66.147  0.00  0.00    -0.271 NA
BRANCH  25  27
ATOM     26  C   UNL     1      -3.731  17.837  67.182  0.00  0.00    +0.019 C 
ATOM     27  C   UNL     1      -3.346  19.214  66.658  0.00  0.00    +0.072 C 
ENDBRANCH  25  27
BRANCH  25  28
ATOM     28  C   UNL     1      -4.657  19.776  64.715  0.00  0.00    +0.072 C 
ATOM     29  C   UNL     1      -6.063  20.037  64.232  0.00  0.00    +0.019 C 
ENDBRANCH  25  28
ENDBRANCH  24  25
ENDBRANCH  23  24
ENDBRANCH  20  23
ENDBRANCH   1  21
TORSDOF 7
ENDMDL
MODEL 2
REMARK VINA RESULT:      -6.6      1.378      1.758
REMARK  Name = 
REMARK  7 active torsions:
REMARK  status: ('A' for Active; 'I' for Inactive)
REMARK    1  A    between atoms: C_2  and  N_3
REMARK    2  A    between atoms: N_3  and  C_4
REMARK    3  A    between atoms: N_3  and  C_6
REMARK    4  A    between atoms: C_6  and  C_7
REMARK    5  A    between atoms: C_7  and  N_8
REMARK    6  A    between atoms: C_9  and  C_11
REMARK    7  A    between atoms: C_15  and  C_16
REMARK                            x       y       z     vdW  Elec       q    Type
REMARK                         _______ _______ _______ _____ _____    ______ ____
ROOT
ATOM      1  C   UNL     1      -8.471  18.752  67.356  0.00  0.00    +0.066 A 
ATOM      2  C   UNL     1      -8.387  17.603  66.597  0.00  0.00    +0.001 A 
ATOM      3  C   UNL     1      -7.124  17.055  66.029  0.00  0.00    +0.033 C 
ATOM      4  C   UNL     1      -9.646  17.022  66.492  0.00  0.00    +0.077 A 
ATOM      5  N   UNL     1     -10.413  17.709  67.375  0.00  0.00    -0.250 NA
ATOM      6  C   UNL     1      -9.807  18.861  67.720  0.00  0.00    +0.063 A 
ATOM      7  C   UNL     1     -10.448  20.166  68.072  0.00  0.00    +0.052 C 
ENDROOT
BRANCH   4   8
ATOM      8  C   UNL     1      -9.798  15.569  66.342  0.00  0.00    +0.023 C 
ATOM      9  C   UNL     1     -10.681  15.096  65.496  0.00  0.00    +0.058 C 
ATOM     10  C   UNL     1     -10.768  13.696  65.065  0.00  0.00    +0.022 A 
ATOM     11  C   UNL     1     -11.976  13.608  64.385  0.00  0.00    +0.074 A 
ATOM     12  C   UNL     1     -12.307  12.340  63.923  0.00  0.00    +0.019 A 
ATOM     13  C   UNL     1     -11.318  11.397  63.673  0.00  0.00    +0.031 A 
ATOM     14  C   UNL     1     -10.068  11.544  64.264  0.00  0.00    +0.140 A 
ATOM     15  F   UNL     1      -8.990  10.838  63.815  0.00  0.00    -0.204 F 
ATOM     16  N   UNL     1     -12.400  14.924  64.015  0.00  0.00    -0.175 NA
ATOM     17  C   UNL     1      -9.923  12.596  65.159  0.00  0.00    +0.031 A 
ATOM     18  C   UNL     1     -11.498  15.892  64.569  0.00  0.00    +0.269 C 
ATOM     19  O   UNL     1     -11.325  17.094  64.207  0.00  0.00    -0.268 OA
ENDBRANCH   4   8
BRANCH   1  21
ATOM     20  N   UNL     1      -6.871  19.166  69.249  0.00  0.00    -0.200 NA
ATOM     21  C   UNL     1      -7.373  19.512  67.970  0.00  0.00    +0.266 C 
ATOM     22  O   UNL     1      -7.044  20.655  67.526  0.00  0.00    -0.268 OA
BRANCH  20  23
ATOM     23  C   UNL     1      -6.135  20.066  70.102  0.00  0.00    +0.133 C 
BRANCH  23  24
ATOM     24  C   UNL     1      -4.672  19.721  70.204  0.00  0.00    +0.096 C 
BRANCH  24  25
ATOM     25  N   UNL     1      -4.235  18.797  69.190  0.00  0.00    -0.271 NA
BRANCH  25  27
ATOM     26  C   UNL     1      -4.522  16.565  70.022  0.00  0.00    +0.019 C 
ATOM     27  C   UNL     1      -3.514  17.665  69.720  0.00  0.00    +0.072 C 
ENDBRANCH  25  27
BRANCH  25  28
ATOM     28  C   UNL     1      -3.575  19.429  68.078  0.00  0.00    +0.072 C 
ATOM     29  C   UNL     1      -3.875  18.753  66.762  0.00  0.00    +0.019 C 
ENDBRANCH  25  28
ENDBRANCH  24  25
ENDBRANCH  23  24
ENDBRANCH  20  23
ENDBRANCH   1  21
TORSDOF 7
ENDMDL
MODEL 3
REMARK VINA RESULT:      -6.4      4.425      8.322
REMARK  Name = 
REMARK  7 active torsions:
REMARK  status: ('A' for Active; 'I' for Inactive)
REMARK    1  A    between atoms: C_2  and  N_3
REMARK    2  A    between atoms: N_3  and  C_4
REMARK    3  A    between atoms: N_3  and  C_6
REMARK    4  A    between atoms: C_6  and  C_7
REMARK    5  A    between atoms: C_7  and  N_8
REMARK    6  A    between atoms: C_9  and  C_11
REMARK    7  A    between atoms: C_15  and  C_16
REMARK                            x       y       z     vdW  Elec       q    Type
REMARK                         _______ _______ _______ _____ _____    ______ ____
ROOT
ATOM      1  C   UNL     1     -11.074  14.211  67.645  0.00  0.00    +0.066 A 
ATOM      2  C   UNL     1     -10.112  15.185  67.820  0.00  0.00    +0.001 A 
ATOM      3  C   UNL     1      -9.478  15.522  69.125  0.00  0.00    +0.033 C 
ATOM      4  C   UNL     1      -9.803  15.758  66.592  0.00  0.00    +0.077 A 
ATOM      5  N   UNL     1     -10.416  14.963  65.681  0.00  0.00    -0.250 NA
ATOM      6  C   UNL     1     -11.342  14.194  66.283  0.00  0.00    +0.063 A 
ATOM      7  C   UNL     1     -12.638  13.704  65.717  0.00  0.00    +0.052 C 
ENDROOT
BRANCH   4   8
ATOM      8  C   UNL     1      -8.465  16.303  66.328  0.00  0.00    +0.023 C 
ATOM      9  C   UNL     1      -8.300  17.601  66.248  0.00  0.00    +0.058 C 
ATOM     10  C   UNL     1      -7.002  18.286  66.239  0.00  0.00    +0.022 A 
ATOM     11  C   UNL     1      -7.296  19.599  65.891  0.00  0.00    +0.074 A 
ATOM     12  C   UNL     1      -6.197  20.441  65.764  0.00  0.00    +0.019 A 
ATOM     13  C   UNL     1      -5.013  20.165  66.437  0.00  0.00    +0.031 A 
ATOM     14  C   UNL     1      -4.766  18.874  66.887  0.00  0.00    +0.140 A 
ATOM     15  F   UNL     1      -3.789  18.624  67.806  0.00  0.00    -0.204 F 
ATOM     16  N   UNL     1      -8.690  19.839  66.112  0.00  0.00    -0.175 NA
ATOM     17  C   UNL     1      -5.700  17.905  66.540  0.00  0.00    +0.031 A 
ATOM     18  C   UNL     1      -9.330  18.617  66.504  0.00  0.00    +0.269 C 
ATOM     19  O   UNL     1     -10.440  18.475  67.102  0.00  0.00    -0.268 OA
ENDBRANCH   4   8
BRANCH   1  21
ATOM     20  N   UNL     1     -12.322  13.457  69.692  0.00  0.00    -0.200 NA
ATOM     21  C   UNL     1     -11.479  13.161  68.591  0.00  0.00    +0.266 C 
ATOM     22  O   UNL     1     -10.870  12.050  68.631  0.00  0.00    -0.268 OA
BRANCH  20  23
ATOM     23  C   UNL     1     -12.419  12.643  70.878  0.00  0.00    +0.133 C 
BRANCH  23  24
ATOM     24  C   UNL     1     -13.198  13.304  71.986  0.00  0.00    +0.096 C 
BRANCH  24  25
ATOM     25  N   UNL     1     -13.010  14.731  72.040  0.00  0.00    -0.271 NA
BRANCH  25  27
ATOM     26  C   UNL     1     -12.491  15.765  74.141  0.00  0.00    +0.019 C 
ATOM     27  C   UNL     1     -11.911  15.132  72.883  0.00  0.00    +0.072 C 
ENDBRANCH  25  27
BRANCH  25  28
ATOM     28  C   UNL     1     -14.223  15.464  72.289  0.00  0.00    +0.072 C 
ATOM     29  C   UNL     1     -15.324  15.118  71.316  0.00  0.00    +0.019 C 
ENDBRANCH  25  28
ENDBRANCH  24  25
ENDBRANCH  23  24
ENDBRANCH  20  23
ENDBRANCH   1  21
TORSDOF 7
ENDMDL
MODEL 4
REMARK VINA RESULT:      -6.3      4.458      9.035
REMARK  Name = 
REMARK  7 active torsions:
REMARK  status: ('A' for Active; 'I' for Inactive)
REMARK    1  A    between atoms: C_2  and  N_3
REMARK    2  A    between atoms: N_3  and  C_4
REMARK    3  A    between atoms: N_3  and  C_6
REMARK    4  A    between atoms: C_6  and  C_7
REMARK    5  A    between atoms: C_7  and  N_8
REMARK    6  A    between atoms: C_9  and  C_11
REMARK    7  A    between atoms: C_15  and  C_16
REMARK                            x       y       z     vdW  Elec       q    Type
REMARK                         _______ _______ _______ _____ _____    ______ ____
ROOT
ATOM      1  C   UNL     1     -10.724  13.868  66.362  0.00  0.00    +0.066 A 
ATOM      2  C   UNL     1      -9.892  14.771  66.991  0.00  0.00    +0.001 A 
ATOM      3  C   UNL     1      -9.216  14.530  68.296  0.00  0.00    +0.033 C 
ATOM      4  C   UNL     1      -9.750  15.904  66.197  0.00  0.00    +0.077 A 
ATOM      5  N   UNL     1     -10.316  15.563  65.013  0.00  0.00    -0.250 NA
ATOM      6  C   UNL     1     -11.085  14.468  65.163  0.00  0.00    +0.063 A 
ATOM      7  C   UNL     1     -12.341  14.121  64.427  0.00  0.00    +0.052 C 
ENDROOT
BRANCH   4   8
ATOM      8  C   UNL     1      -8.520  16.704  66.235  0.00  0.00    +0.023 C 
ATOM      9  C   UNL     1      -8.563  17.935  66.686  0.00  0.00    +0.058 C 
ATOM     10  C   UNL     1      -7.389  18.754  67.011  0.00  0.00    +0.022 A 
ATOM     11  C   UNL     1      -7.892  20.035  67.202  0.00  0.00    +0.074 A 
ATOM     12  C   UNL     1      -6.942  21.013  67.471  0.00  0.00    +0.019 A 
ATOM     13  C   UNL     1      -5.718  20.674  68.034  0.00  0.00    +0.031 A 
ATOM     14  C   UNL     1      -5.263  19.363  67.944  0.00  0.00    +0.140 A 
ATOM     15  F   UNL     1      -4.242  18.917  68.732  0.00  0.00    -0.204 F 
ATOM     16  N   UNL     1      -9.302  19.952  67.434  0.00  0.00    -0.175 NA
ATOM     17  C   UNL     1      -6.039  18.486  67.197  0.00  0.00    +0.031 A 
ATOM     18  C   UNL     1      -9.735  18.594  67.277  0.00  0.00    +0.269 C 
ATOM     19  O   UNL     1     -10.798  18.058  67.716  0.00  0.00    -0.268 OA
ENDBRANCH   4   8
BRANCH   1  21
ATOM     20  N   UNL     1     -11.746  12.041  67.752  0.00  0.00    -0.200 NA
ATOM     21  C   UNL     1     -10.917  12.445  66.676  0.00  0.00    +0.266 C 
ATOM     22  O   UNL     1     -10.137  11.563  66.204  0.00  0.00    -0.268 OA
BRANCH  20  23
ATOM     23  C   UNL     1     -11.662  10.757  68.402  0.00  0.00    +0.133 C 
BRANCH  23  24
ATOM     24  C   UNL     1     -11.352  10.858  69.872  0.00  0.00    +0.096 C 
BRANCH  24  25
ATOM     25  N   UNL     1     -11.821   9.727  70.631  0.00  0.00    -0.271 NA
BRANCH  25  27
ATOM     26  C   UNL     1     -13.103  11.423  71.743  0.00  0.00    +0.019 C 
ATOM     27  C   UNL     1     -13.077   9.966  71.299  0.00  0.00    +0.072 C 
ENDBRANCH  25  27
BRANCH  25  28
ATOM     28  C   UNL     1     -10.818   9.149  71.486  0.00  0.00    +0.072 C 
ATOM     29  C   UNL     1     -11.380   8.109  72.424  0.00  0.00    +0.019 C 
ENDBRANCH  25  28
ENDBRANCH  24  25
ENDBRANCH  23  24
ENDBRANCH  20  23
ENDBRANCH   1  21
TORSDOF 7
ENDMDL
MODEL 5
REMARK VINA RESULT:      -6.3      4.795      9.230
REMARK  Name = 
REMARK  7 active torsions:
REMARK  status: ('A' for Active; 'I' for Inactive)
REMARK    1  A    between atoms: C_2  and  N_3
REMARK    2  A    between atoms: N_3  and  C_4
REMARK    3  A    between atoms: N_3  and  C_6
REMARK    4  A    between atoms: C_6  and  C_7
REMARK    5  A    between atoms: C_7  and  N_8
REMARK    6  A    between atoms: C_9  and  C_11
REMARK    7  A    between atoms: C_15  and  C_16
REMARK                            x       y       z     vdW  Elec       q    Type
REMARK                         _______ _______ _______ _____ _____    ______ ____
ROOT
ATOM      1  C   UNL     1     -11.082  13.335  66.935  0.00  0.00    +0.066 A 
ATOM      2  C   UNL     1     -10.330  14.401  67.384  0.00  0.00    +0.001 A 
ATOM      3  C   UNL     1      -9.645  14.456  68.705  0.00  0.00    +0.033 C 
ATOM      4  C   UNL     1     -10.277  15.380  66.399  0.00  0.00    +0.077 A 
ATOM      5  N   UNL     1     -10.805  14.787  65.300  0.00  0.00    -0.250 NA
ATOM      6  C   UNL     1     -11.483  13.678  65.650  0.00  0.00    +0.063 A 
ATOM      7  C   UNL     1     -12.702  13.103  65.000  0.00  0.00    +0.052 C 
ENDROOT
BRANCH   4   8
ATOM      8  C   UNL     1      -9.116  16.272  66.281  0.00  0.00    +0.023 C 
ATOM      9  C   UNL     1      -9.204  17.508  66.712  0.00  0.00    +0.058 C 
ATOM     10  C   UNL     1      -8.069  18.422  66.886  0.00  0.00    +0.022 A 
ATOM     11  C   UNL     1      -8.646  19.666  67.109  0.00  0.00    +0.074 A 
ATOM     12  C   UNL     1      -7.751  20.719  67.250  0.00  0.00    +0.019 A 
ATOM     13  C   UNL     1      -6.448  20.489  67.676  0.00  0.00    +0.031 A 
ATOM     14  C   UNL     1      -5.905  19.215  67.558  0.00  0.00    +0.140 A 
ATOM     15  F   UNL     1      -4.771  18.869  68.233  0.00  0.00    -0.204 F 
ATOM     16  N   UNL     1     -10.010  19.483  67.502  0.00  0.00    -0.175 NA
ATOM     17  C   UNL     1      -6.689  18.261  66.921  0.00  0.00    +0.031 A 
ATOM     18  C   UNL     1     -10.351  18.093  67.420  0.00  0.00    +0.269 C 
ATOM     19  O   UNL     1     -11.312  17.490  67.987  0.00  0.00    -0.268 OA
ENDBRANCH   4   8
BRANCH   1  21
ATOM     20  N   UNL     1     -12.063  11.680  68.552  0.00  0.00    -0.200 NA
ATOM     21  C   UNL     1     -11.159  11.981  67.502  0.00  0.00    +0.266 C 
ATOM     22  O   UNL     1     -10.242  11.132  67.287  0.00  0.00    -0.268 OA
BRANCH  20  23
ATOM     23  C   UNL     1     -11.921  10.558  69.446  0.00  0.00    +0.133 C 
BRANCH  23  24
ATOM     24  C   UNL     1     -12.559  10.789  70.790  0.00  0.00    +0.096 C 
BRANCH  24  25
ATOM     25  N   UNL     1     -12.426   9.666  71.683  0.00  0.00    -0.271 NA
BRANCH  25  27
ATOM     26  C   UNL     1     -10.414   8.437  72.125  0.00  0.00    +0.019 C 
ATOM     27  C   UNL     1     -11.581   8.618  71.163  0.00  0.00    +0.072 C 
ENDBRANCH  25  27
BRANCH  25  28
ATOM     28  C   UNL     1     -13.682   9.187  72.198  0.00  0.00    +0.072 C 
ATOM     29  C   UNL     1     -14.141   7.915  71.528  0.00  0.00    +0.019 C 
ENDBRANCH  25  28
ENDBRANCH  24  25
ENDBRANCH  23  24
ENDBRANCH  20  23
ENDBRANCH   1  21
TORSDOF 7
ENDMDL
MODEL 6
REMARK VINA RESULT:      -6.2      2.963      8.295
REMARK  Name = 
REMARK  7 active torsions:
REMARK  status: ('A' for Active; 'I' for Inactive)
REMARK    1  A    between atoms: C_2  and  N_3
REMARK    2  A    between atoms: N_3  and  C_4
REMARK    3  A    between atoms: N_3  and  C_6
REMARK    4  A    between atoms: C_6  and  C_7
REMARK    5  A    between atoms: C_7  and  N_8
REMARK    6  A    between atoms: C_9  and  C_11
REMARK    7  A    between atoms: C_15  and  C_16
REMARK                            x       y       z     vdW  Elec       q    Type
REMARK                         _______ _______ _______ _____ _____    ______ ____
ROOT
ATOM      1  C   UNL     1     -10.844  15.076  68.054  0.00  0.00    +0.066 A 
ATOM      2  C   UNL     1      -9.759  15.808  67.618  0.00  0.00    +0.001 A 
ATOM      3  C   UNL     1      -8.846  15.392  66.517  0.00  0.00    +0.033 C 
ATOM      4  C   UNL     1      -9.686  17.001  68.329  0.00  0.00    +0.077 A 
ATOM      5  N   UNL     1     -10.855  17.060  69.014  0.00  0.00    -0.250 NA
ATOM      6  C   UNL     1     -11.440  15.848  69.043  0.00  0.00    +0.063 A 
ATOM      7  C   UNL     1     -12.287  15.263  70.129  0.00  0.00    +0.052 C 
ENDROOT
BRANCH   4   8
ATOM      8  C   UNL     1      -9.113  18.209  67.722  0.00  0.00    +0.023 C 
ATOM      9  C   UNL     1      -7.936  18.634  68.114  0.00  0.00    +0.058 C 
ATOM     10  C   UNL     1      -7.143  19.663  67.433  0.00  0.00    +0.022 A 
ATOM     11  C   UNL     1      -6.116  19.964  68.319  0.00  0.00    +0.074 A 
ATOM     12  C   UNL     1      -5.251  20.971  67.908  0.00  0.00    +0.019 A 
ATOM     13  C   UNL     1      -5.087  21.255  66.557  0.00  0.00    +0.031 A 
ATOM     14  C   UNL     1      -6.062  20.854  65.651  0.00  0.00    +0.140 A 
ATOM     15  F   UNL     1      -5.808  20.829  64.311  0.00  0.00    -0.204 F 
ATOM     16  N   UNL     1      -5.996  18.901  69.271  0.00  0.00    -0.175 NA
ATOM     17  C   UNL     1      -7.203  20.268  66.184  0.00  0.00    +0.031 A 
ATOM     18  C   UNL     1      -7.046  17.948  69.060  0.00  0.00    +0.269 C 
ATOM     19  O   UNL     1      -7.092  16.741  69.447  0.00  0.00    -0.268 OA
ENDBRANCH   4   8
BRANCH   1  21
ATOM     20  N   UNL     1     -10.969  12.609  67.594  0.00  0.00    -0.200 NA
ATOM     21  C   UNL     1     -11.475  13.919  67.403  0.00  0.00    +0.266 C 
ATOM     22  O   UNL     1     -12.283  14.076  66.437  0.00  0.00    -0.268 OA
BRANCH  20  23
ATOM     23  C   UNL     1     -11.218  11.506  66.699  0.00  0.00    +0.133 C 
BRANCH  23  24
ATOM     24  C   UNL     1     -10.080  11.252  65.744  0.00  0.00    +0.096 C 
BRANCH  24  25
ATOM     25  N   UNL     1     -10.518  10.959  64.404  0.00  0.00    -0.271 NA
BRANCH  25  27
ATOM     26  C   UNL     1      -9.064  10.966  62.496  0.00  0.00    +0.019 C 
ATOM     27  C   UNL     1      -9.589  10.141  63.663  0.00  0.00    +0.072 C 
ENDBRANCH  25  27
BRANCH  25  28
ATOM     28  C   UNL     1     -10.968  12.118  63.678  0.00  0.00    +0.072 C 
ATOM     29  C   UNL     1     -12.447  12.081  63.380  0.00  0.00    +0.019 C 
ENDBRANCH  25  28
ENDBRANCH  24  25
ENDBRANCH  23  24
ENDBRANCH  20  23
ENDBRANCH   1  21
TORSDOF 7
ENDMDL
MODEL 7
REMARK VINA RESULT:      -6.1      6.275     10.153
REMARK  Name = 
REMARK  7 active torsions:
REMARK  status: ('A' for Active; 'I' for Inactive)
REMARK    1  A    between atoms: C_2  and  N_3
REMARK    2  A    between atoms: N_3  and  C_4
REMARK    3  A    between atoms: N_3  and  C_6
REMARK    4  A    between atoms: C_6  and  C_7
REMARK    5  A    between atoms: C_7  and  N_8
REMARK    6  A    between atoms: C_9  and  C_11
REMARK    7  A    between atoms: C_15  and  C_16
REMARK                            x       y       z     vdW  Elec       q    Type
REMARK                         _______ _______ _______ _____ _____    ______ ____
ROOT
ATOM      1  C   UNL     1     -11.579  11.525  69.504  0.00  0.00    +0.066 A 
ATOM      2  C   UNL     1     -11.635  12.903  69.532  0.00  0.00    +0.001 A 
ATOM      3  C   UNL     1     -12.390  13.699  70.539  0.00  0.00    +0.033 C 
ATOM      4  C   UNL     1     -10.845  13.421  68.511  0.00  0.00    +0.077 A 
ATOM      5  N   UNL     1     -10.155  12.353  68.039  0.00  0.00    -0.250 NA
ATOM      6  C   UNL     1     -10.732  11.208  68.450  0.00  0.00    +0.063 A 
ATOM      7  C   UNL     1     -10.790   9.898  67.728  0.00  0.00    +0.052 C 
ENDROOT
BRANCH   4   8
ATOM      8  C   UNL     1     -10.193  14.729  68.649  0.00  0.00    +0.023 C 
ATOM      9  C   UNL     1     -10.176  15.554  67.630  0.00  0.00    +0.058 C 
ATOM     10  C   UNL     1      -9.789  16.968  67.697  0.00  0.00    +0.022 A 
ATOM     11  C   UNL     1      -9.677  17.369  66.372  0.00  0.00    +0.074 A 
ATOM     12  C   UNL     1      -9.260  18.681  66.180  0.00  0.00    +0.019 A 
ATOM     13  C   UNL     1      -9.467  19.640  67.164  0.00  0.00    +0.031 A 
ATOM     14  C   UNL     1      -9.692  19.237  68.475  0.00  0.00    +0.140 A 
ATOM     15  F   UNL     1     -10.201  20.102  69.400  0.00  0.00    -0.204 F 
ATOM     16  N   UNL     1     -10.377  16.435  65.542  0.00  0.00    -0.175 NA
ATOM     17  C   UNL     1      -9.598  17.875  68.733  0.00  0.00    +0.031 A 
ATOM     18  C   UNL     1     -10.854  15.345  66.343  0.00  0.00    +0.269 C 
ATOM     19  O   UNL     1     -11.776  14.520  66.068  0.00  0.00    -0.268 OA
ENDBRANCH   4   8
BRANCH   1  21
ATOM     20  N   UNL     1     -11.059   9.750  71.205  0.00  0.00    -0.200 NA
ATOM     21  C   UNL     1     -12.001  10.582  70.550  0.00  0.00    +0.266 C 
ATOM     22  O   UNL     1     -13.222  10.271  70.692  0.00  0.00    -0.268 OA
BRANCH  20  23
ATOM     23  C   UNL     1     -11.398   8.531  71.897  0.00  0.00    +0.133 C 
BRANCH  23  24
ATOM     24  C   UNL     1     -11.116   7.293  71.086  0.00  0.00    +0.096 C 
BRANCH  24  25
ATOM     25  N   UNL     1     -10.181   6.399  71.719  0.00  0.00    -0.271 NA
BRANCH  25  27
ATOM     26  C   UNL     1     -10.508   5.421  69.553  0.00  0.00    +0.019 C 
ATOM     27  C   UNL     1      -9.874   5.235  70.925  0.00  0.00    +0.072 C 
ENDBRANCH  25  27
BRANCH  25  28
ATOM     28  C   UNL     1     -10.513   6.091  73.086  0.00  0.00    +0.072 C 
ATOM     29  C   UNL     1     -11.280   4.799  73.222  0.00  0.00    +0.019 C 
ENDBRANCH  25  28
ENDBRANCH  24  25
ENDBRANCH  23  24
ENDBRANCH  20  23
ENDBRANCH   1  21
TORSDOF 7
ENDMDL
MODEL 8
REMARK VINA RESULT:      -5.9      4.331      5.783
REMARK  Name = 
REMARK  7 active torsions:
REMARK  status: ('A' for Active; 'I' for Inactive)
REMARK    1  A    between atoms: C_2  and  N_3
REMARK    2  A    between atoms: N_3  and  C_4
REMARK    3  A    between atoms: N_3  and  C_6
REMARK    4  A    between atoms: C_6  and  C_7
REMARK    5  A    between atoms: C_7  and  N_8
REMARK    6  A    between atoms: C_9  and  C_11
REMARK    7  A    between atoms: C_15  and  C_16
REMARK                            x       y       z     vdW  Elec       q    Type
REMARK                         _______ _______ _______ _____ _____    ______ ____
ROOT
ATOM      1  C   UNL     1     -10.443  14.766  66.512  0.00  0.00    +0.066 A 
ATOM      2  C   UNL     1     -10.028  13.728  67.321  0.00  0.00    +0.001 A 
ATOM      3  C   UNL     1      -8.842  13.778  68.220  0.00  0.00    +0.033 C 
ATOM      4  C   UNL     1     -10.912  12.662  67.198  0.00  0.00    +0.077 A 
ATOM      5  N   UNL     1     -11.958  13.165  66.496  0.00  0.00    -0.250 NA
ATOM      6  C   UNL     1     -11.603  14.317  65.896  0.00  0.00    +0.063 A 
ATOM      7  C   UNL     1     -12.090  14.860  64.589  0.00  0.00    +0.052 C 
ENDROOT
BRANCH   4   8
ATOM      8  C   UNL     1     -11.139  11.735  68.314  0.00  0.00    +0.023 C 
ATOM      9  C   UNL     1     -10.820  10.470  68.180  0.00  0.00    +0.058 C 
ATOM     10  C   UNL     1     -10.758   9.497  69.276  0.00  0.00    +0.022 A 
ATOM     11  C   UNL     1     -10.633   8.263  68.649  0.00  0.00    +0.074 A 
ATOM     12  C   UNL     1     -10.610   7.164  69.498  0.00  0.00    +0.019 A 
ATOM     13  C   UNL     1     -10.198   7.298  70.819  0.00  0.00    +0.031 A 
ATOM     14  C   UNL     1     -10.215   8.553  71.416  0.00  0.00    +0.140 A 
ATOM     15  F   UNL     1      -9.542   8.788  72.579  0.00  0.00    -0.204 F 
ATOM     16  N   UNL     1     -10.190   8.468  67.303  0.00  0.00    -0.175 NA
ATOM     17  C   UNL     1     -10.744   9.594  70.662  0.00  0.00    +0.031 A 
ATOM     18  C   UNL     1     -10.137   9.873  67.024  0.00  0.00    +0.269 C 
ATOM     19  O   UNL     1      -9.494  10.463  66.103  0.00  0.00    -0.268 OA
ENDBRANCH   4   8
BRANCH   1  21
ATOM     20  N   UNL     1     -10.604  17.103  67.422  0.00  0.00    -0.200 NA
ATOM     21  C   UNL     1     -10.001  16.168  66.544  0.00  0.00    +0.266 C 
ATOM     22  O   UNL     1      -9.295  16.649  65.607  0.00  0.00    -0.268 OA
BRANCH  20  23
ATOM     23  C   UNL     1     -10.562  18.533  67.235  0.00  0.00    +0.133 C 
BRANCH  23  24
ATOM     24  C   UNL     1      -9.594  19.222  68.161  0.00  0.00    +0.096 C 
BRANCH  24  25
ATOM     25  N   UNL     1      -8.220  19.076  67.757  0.00  0.00    -0.271 NA
BRANCH  25  27
ATOM     26  C   UNL     1      -7.094  17.186  68.717  0.00  0.00    +0.019 C 
ATOM     27  C   UNL     1      -7.344  18.684  68.835  0.00  0.00    +0.072 C 
ENDBRANCH  25  27
BRANCH  25  28
ATOM     28  C   UNL     1      -7.723  20.186  66.989  0.00  0.00    +0.072 C 
ATOM     29  C   UNL     1      -7.203  19.772  65.634  0.00  0.00    +0.019 C 
ENDBRANCH  25  28
ENDBRANCH  24  25
ENDBRANCH  23  24
ENDBRANCH  20  23
ENDBRANCH   1  21
TORSDOF 7
ENDMDL
MODEL 9
REMARK VINA RESULT:      -5.8      3.332      8.267
REMARK  Name = 
REMARK  7 active torsions:
REMARK  status: ('A' for Active; 'I' for Inactive)
REMARK    1  A    between atoms: C_2  and  N_3
REMARK    2  A    between atoms: N_3  and  C_4
REMARK    3  A    between atoms: N_3  and  C_6
REMARK    4  A    between atoms: C_6  and  C_7
REMARK    5  A    between atoms: C_7  and  N_8
REMARK    6  A    between atoms: C_9  and  C_11
REMARK    7  A    between atoms: C_15  and  C_16
REMARK                            x       y       z     vdW  Elec       q    Type
REMARK                         _______ _______ _______ _____ _____    ______ ____
ROOT
ATOM      1  C   UNL     1     -10.812  13.558  66.724  0.00  0.00    +0.066 A 
ATOM      2  C   UNL     1      -9.975  14.527  67.239  0.00  0.00    +0.001 A 
ATOM      3  C   UNL     1      -9.210  14.395  68.510  0.00  0.00    +0.033 C 
ATOM      4  C   UNL     1      -9.924  15.608  66.366  0.00  0.00    +0.077 A 
ATOM      5  N   UNL     1     -10.550  15.171  65.245  0.00  0.00    -0.250 NA
ATOM      6  C   UNL     1     -11.269  14.066  65.515  0.00  0.00    +0.063 A 
ATOM      7  C   UNL     1     -12.555  13.630  64.886  0.00  0.00    +0.052 C 
ENDROOT
BRANCH   4   8
ATOM      8  C   UNL     1      -8.724  16.449  66.273  0.00  0.00    +0.023 C 
ATOM      9  C   UNL     1      -8.766  17.687  66.702  0.00  0.00    +0.058 C 
ATOM     10  C   UNL     1      -7.596  18.550  66.899  0.00  0.00    +0.022 A 
ATOM     11  C   UNL     1      -8.122  19.819  67.111  0.00  0.00    +0.074 A 
ATOM     12  C   UNL     1      -7.185  20.832  67.271  0.00  0.00    +0.019 A 
ATOM     13  C   UNL     1      -5.902  20.545  67.723  0.00  0.00    +0.031 A 
ATOM     14  C   UNL     1      -5.413  19.248  67.615  0.00  0.00    +0.140 A 
ATOM     15  F   UNL     1      -4.309  18.853  68.312  0.00  0.00    -0.204 F 
ATOM     16  N   UNL     1      -9.500  19.696  67.477  0.00  0.00    -0.175 NA
ATOM     17  C   UNL     1      -6.225  18.330  66.961  0.00  0.00    +0.031 A 
ATOM     18  C   UNL     1      -9.900  18.322  67.388  0.00  0.00    +0.269 C 
ATOM     19  O   UNL     1     -10.898  17.762  67.935  0.00  0.00    -0.268 OA
ENDBRANCH   4   8
BRANCH   1  21
ATOM     20  N   UNL     1      -9.951  11.198  66.777  0.00  0.00    -0.200 NA
ATOM     21  C   UNL     1     -10.933  12.154  67.141  0.00  0.00    +0.266 C 
ATOM     22  O   UNL     1     -12.034  11.695  67.572  0.00  0.00    -0.268 OA
BRANCH  20  23
ATOM     23  C   UNL     1     -10.179   9.774  66.750  0.00  0.00    +0.133 C 
BRANCH  23  24
ATOM     24  C   UNL     1      -9.507   9.090  65.587  0.00  0.00    +0.096 C 
BRANCH  24  25
ATOM     25  N   UNL     1      -8.863  10.008  64.684  0.00  0.00    -0.271 NA
BRANCH  25  27
ATOM     26  C   UNL     1      -9.912  11.534  63.157  0.00  0.00    +0.019 C 
ATOM     27  C   UNL     1      -9.502  10.086  63.393  0.00  0.00    +0.072 C 
ENDBRANCH  25  27
BRANCH  25  28
ATOM     28  C   UNL     1      -7.436   9.837  64.608  0.00  0.00    +0.072 C 
ATOM     29  C   UNL     1      -7.025   8.822  63.569  0.00  0.00    +0.019 C 
ENDBRANCH  25  28
ENDBRANCH  24  25
ENDBRANCH  23  24
ENDBRANCH  20  23
ENDBRANCH   1  21
TORSDOF 7
ENDMDL
