MODEL 1
REMARK VINA RESULT:      -7.0      0.000      0.000
REMARK  Name = 
REMARK  3 active torsions:
REMARK  status: ('A' for Active; 'I' for Inactive)
REMARK    1  A    between atoms: C_2  and  O_3
REMARK    2  A    between atoms: C_2  and  C_16
REMARK    3  A    between atoms: O_3  and  C_4
REMARK                            x       y       z     vdW  Elec       q    Type
REMARK                         _______ _______ _______ _____ _____    ______ ____
ROOT
ATOM      1  O   UNL     1     -10.390  15.844  68.201  0.00  0.00    -0.449 OA
ENDROOT
BRANCH   1   2
ATOM      2  C   UNL     1      -9.214  16.773  68.562  0.00  0.00    +0.172 C 
ATOM      3  C   UNL     1     -10.188  18.076  68.609  0.00  0.00    +0.060 C 
ATOM      4  C   UNL     1      -9.175  19.347  68.615  0.00  0.00    +0.062 C 
ATOM      5  N   UNL     1      -7.784  18.629  68.510  0.00  0.00    -0.269 NA
ATOM      6  C   UNL     1      -7.429  17.714  67.303  0.00  0.00    +0.062 C 
ATOM      7  C   UNL     1      -7.516  18.732  65.949  0.00  0.00    +0.024 C 
ATOM      8  C   UNL     1      -8.002  19.370  67.324  0.00  0.00    +0.062 C 
ATOM      9  C   UNL     1      -7.200  20.757  67.404  0.00  0.00    +0.166 C 
ATOM     10  O   UNL     1      -6.377  20.968  66.555  0.00  0.00    -0.295 OA
ATOM     11  C   UNL     1      -6.797  19.765  68.562  0.00  0.00    +0.137 C 
ATOM     12  C   UNL     1      -9.507  19.816  67.021  0.00  0.00    +0.024 C 
ATOM     13  C   UNL     1      -8.923  17.115  66.982  0.00  0.00    +0.060 C 
ENDBRANCH   1   2
BRANCH   1  15
ATOM     14  O   UNL     1      -9.684  14.160  68.609  0.00  0.00    -0.245 OA
ATOM     15  C   UNL     1     -10.198  14.653  68.910  0.00  0.00    +0.343 C 
BRANCH  15  16
ATOM     16  C   UNL     1     -11.273  13.984  69.648  0.00  0.00    +0.096 A 
ATOM     17  C   UNL     1     -11.962  14.601  70.685  0.00  0.00    +0.025 A 
ATOM     18  C   UNL     1     -12.792  13.704  71.325  0.00  0.00    +0.082 A 
ATOM     19  C   UNL     1     -13.271  14.091  72.548  0.00  0.00    +0.019 A 
ATOM     20  C   UNL     1     -12.836  15.239  73.196  0.00  0.00    +0.002 A 
ATOM     21  C   UNL     1     -12.058  16.156  72.534  0.00  0.00    +0.000 A 
ATOM     22  N   UNL     1     -12.712  12.582  70.590  0.00  0.00    -0.244 NA
ATOM     23  C   UNL     1     -11.645  15.817  71.269  0.00  0.00    +0.002 A 
ATOM     24  C   UNL     1     -11.779  12.712  69.614  0.00  0.00    +0.105 A 
ENDBRANCH  15  16
ENDBRANCH   1  15
TORSDOF 3
ENDMDL
MODEL 2
REMARK VINA RESULT:      -7.0      3.413      4.992
REMARK  Name = 
REMARK  3 active torsions:
REMARK  status: ('A' for Active; 'I' for Inactive)
REMARK    1  A    between atoms: C_2  and  O_3
REMARK    2  A    between atoms: C_2  and  C_16
REMARK    3  A    between atoms: O_3  and  C_4
REMARK                            x       y       z     vdW  Elec       q    Type
REMARK                         _______ _______ _______ _____ _____    ______ ____
ROOT
ATOM      1  O   UNL     1     -10.307  14.993  67.444  0.00  0.00    -0.449 OA
ENDROOT
BRANCH   1   2
ATOM      2  C   UNL     1      -9.932  16.296  66.712  0.00  0.00    +0.172 C 
ATOM      3  C   UNL     1      -8.344  15.959  66.814  0.00  0.00    +0.060 C 
ATOM      4  C   UNL     1      -7.603  17.356  66.438  0.00  0.00    +0.062 C 
ATOM      5  N   UNL     1      -8.831  18.309  66.232  0.00  0.00    -0.269 NA
ATOM      6  C   UNL     1      -9.852  18.579  67.375  0.00  0.00    +0.062 C 
ATOM      7  C   UNL     1      -8.935  19.285  68.615  0.00  0.00    +0.024 C 
ATOM      8  C   UNL     1      -8.108  18.742  67.368  0.00  0.00    +0.062 C 
ATOM      9  C   UNL     1      -7.171  19.981  66.966  0.00  0.00    +0.166 C 
ATOM     10  O   UNL     1      -7.346  21.017  67.548  0.00  0.00    -0.295 OA
ATOM     11  C   UNL     1      -8.201  19.615  65.829  0.00  0.00    +0.137 C 
ATOM     12  C   UNL     1      -7.093  17.692  68.018  0.00  0.00    +0.024 C 
ATOM     13  C   UNL     1      -9.794  17.120  68.125  0.00  0.00    +0.060 C 
ENDBRANCH   1   2
BRANCH   1  15
ATOM     14  O   UNL     1     -12.073  14.391  67.595  0.00  0.00    -0.245 OA
ATOM     15  C   UNL     1     -11.606  14.661  67.041  0.00  0.00    +0.343 C 
BRANCH  15  16
ATOM     16  C   UNL     1     -11.913  14.117  65.714  0.00  0.00    +0.096 A 
ATOM     17  C   UNL     1     -11.589  12.816  65.348  0.00  0.00    +0.025 A 
ATOM     18  C   UNL     1     -11.820  12.613  64.004  0.00  0.00    +0.082 A 
ATOM     19  C   UNL     1     -11.246  11.498  63.454  0.00  0.00    +0.019 A 
ATOM     20  C   UNL     1     -10.350  10.695  64.147  0.00  0.00    +0.002 A 
ATOM     21  C   UNL     1     -10.169  10.865  65.497  0.00  0.00    +0.000 A 
ATOM     22  N   UNL     1     -12.414  13.743  63.586  0.00  0.00    -0.244 NA
ATOM     23  C   UNL     1     -10.813  11.929  66.078  0.00  0.00    +0.002 A 
ATOM     24  C   UNL     1     -12.439  14.669  64.577  0.00  0.00    +0.105 A 
ENDBRANCH  15  16
ENDBRANCH   1  15
TORSDOF 3
ENDMDL
MODEL 3
REMARK VINA RESULT:      -7.0      3.100      7.009
REMARK  Name = 
REMARK  3 active torsions:
REMARK  status: ('A' for Active; 'I' for Inactive)
REMARK    1  A    between atoms: C_2  and  O_3
REMARK    2  A    between atoms: C_2  and  C_16
REMARK    3  A    between atoms: O_3  and  C_4
REMARK                            x       y       z     vdW  Elec       q    Type
REMARK                         _______ _______ _______ _____ _____    ______ ____
ROOT
ATOM      1  O   UNL     1      -9.965  15.830  68.433  0.00  0.00    -0.449 OA
ENDROOT
BRANCH   1   2
ATOM      2  C   UNL     1     -10.675  15.619  67.081  0.00  0.00    +0.172 C 
ATOM      3  C   UNL     1     -11.759  14.606  67.749  0.00  0.00    +0.060 C 
ATOM      4  C   UNL     1     -12.479  13.883  66.483  0.00  0.00    +0.062 C 
ATOM      5  N   UNL     1     -11.692  14.514  65.282  0.00  0.00    -0.269 NA
ATOM      6  C   UNL     1     -10.152  14.347  65.141  0.00  0.00    +0.062 C 
ATOM      7  C   UNL     1      -9.908  12.674  65.011  0.00  0.00    +0.024 C 
ATOM      8  C   UNL     1     -11.397  13.131  65.340  0.00  0.00    +0.062 C 
ATOM      9  C   UNL     1     -12.284  12.350  64.255  0.00  0.00    +0.166 C 
ATOM     10  O   UNL     1     -11.699  11.727  63.411  0.00  0.00    -0.295 OA
ATOM     11  C   UNL     1     -12.356  13.914  64.071  0.00  0.00    +0.137 C 
ATOM     12  C   UNL     1     -11.727  12.383  66.713  0.00  0.00    +0.024 C 
ATOM     13  C   UNL     1      -9.747  14.310  66.731  0.00  0.00    +0.060 C 
ENDBRANCH   1   2
BRANCH   1  15
ATOM     14  O   UNL     1     -10.878  17.247  69.247  0.00  0.00    -0.245 OA
ATOM     15  C   UNL     1     -10.234  17.144  68.831  0.00  0.00    +0.343 C 
BRANCH  15  16
ATOM     16  C   UNL     1      -9.886  18.311  68.014  0.00  0.00    +0.096 A 
ATOM     17  C   UNL     1      -8.585  18.788  67.911  0.00  0.00    +0.025 A 
ATOM     18  C   UNL     1      -8.555  19.989  67.234  0.00  0.00    +0.082 A 
ATOM     19  C   UNL     1      -7.400  20.717  67.346  0.00  0.00    +0.019 A 
ATOM     20  C   UNL     1      -6.373  20.366  68.212  0.00  0.00    +0.002 A 
ATOM     21  C   UNL     1      -6.380  19.145  68.837  0.00  0.00    +0.000 A 
ATOM     22  N   UNL     1      -9.815  20.169  66.805  0.00  0.00    -0.244 NA
ATOM     23  C   UNL     1      -7.497  18.366  68.658  0.00  0.00    +0.002 A 
ATOM     24  C   UNL     1     -10.633  19.206  67.296  0.00  0.00    +0.105 A 
ENDBRANCH  15  16
ENDBRANCH   1  15
TORSDOF 3
ENDMDL
MODEL 4
REMARK VINA RESULT:      -6.8      4.589      8.762
REMARK  Name = 
REMARK  3 active torsions:
REMARK  status: ('A' for Active; 'I' for Inactive)
REMARK    1  A    between atoms: C_2  and  O_3
REMARK    2  A    between atoms: C_2  and  C_16
REMARK    3  A    between atoms: O_3  and  C_4
REMARK                            x       y       z     vdW  Elec       q    Type
REMARK                         _______ _______ _______ _____ _____    ______ ____
ROOT
ATOM      1  O   UNL     1     -10.510  11.398  69.111  0.00  0.00    -0.449 OA
ENDROOT
BRANCH   1   2
ATOM      2  C   UNL     1     -10.927   9.914  69.116  0.00  0.00    +0.172 C 
ATOM      3  C   UNL     1     -11.323   9.976  70.693  0.00  0.00    +0.060 C 
ATOM      4  C   UNL     1     -11.477   8.420  71.138  0.00  0.00    +0.062 C 
ATOM      5  N   UNL     1     -11.098   7.682  69.807  0.00  0.00    -0.269 NA
ATOM      6  C   UNL     1      -9.707   7.873  69.138  0.00  0.00    +0.062 C 
ATOM      7  C   UNL     1      -8.593   7.323  70.292  0.00  0.00    +0.024 C 
ATOM      8  C   UNL     1     -10.107   7.403  70.777  0.00  0.00    +0.062 C 
ATOM      9  C   UNL     1     -10.377   5.957  71.418  0.00  0.00    +0.166 C 
ATOM     10  O   UNL     1      -9.509   5.134  71.309  0.00  0.00    -0.295 OA
ATOM     11  C   UNL     1     -11.274   6.226  70.149  0.00  0.00    +0.137 C 
ATOM     12  C   UNL     1     -10.045   8.376  72.044  0.00  0.00    +0.024 C 
ATOM     13  C   UNL     1      -9.424   9.432  69.567  0.00  0.00    +0.060 C 
ENDBRANCH   1   2
BRANCH   1  15
ATOM     14  O   UNL     1     -11.978  11.972  68.103  0.00  0.00    -0.245 OA
ATOM     15  C   UNL     1     -11.650  12.139  68.783  0.00  0.00    +0.343 C 
BRANCH  15  16
ATOM     16  C   UNL     1     -11.831  13.540  69.179  0.00  0.00    +0.096 A 
ATOM     17  C   UNL     1     -12.311  13.905  70.430  0.00  0.00    +0.025 A 
ATOM     18  C   UNL     1     -12.555  15.261  70.485  0.00  0.00    +0.082 A 
ATOM     19  C   UNL     1     -13.326  15.694  71.531  0.00  0.00    +0.019 A 
ATOM     20  C   UNL     1     -13.967  14.824  72.403  0.00  0.00    +0.002 A 
ATOM     21  C   UNL     1     -13.675  13.483  72.381  0.00  0.00    +0.000 A 
ATOM     22  N   UNL     1     -12.092  15.738  69.318  0.00  0.00    -0.244 NA
ATOM     23  C   UNL     1     -12.830  13.050  71.389  0.00  0.00    +0.002 A 
ATOM     24  C   UNL     1     -11.697  14.725  68.507  0.00  0.00    +0.105 A 
ENDBRANCH  15  16
ENDBRANCH   1  15
TORSDOF 3
ENDMDL
MODEL 5
REMARK VINA RESULT:      -6.8      4.868      7.118
REMARK  Name = 
REMARK  3 active torsions:
REMARK  status: ('A' for Active; 'I' for Inactive)
REMARK    1  A    between atoms: C_2  and  O_3
REMARK    2  A    between atoms: C_2  and  C_16
REMARK    3  A    between atoms: O_3  and  C_4
REMARK                            x       y       z     vdW  Elec       q    Type
REMARK                         _______ _______ _______ _____ _____    ______ ____
ROOT
ATOM      1  O   UNL     1     -11.660  11.208  70.519  0.00  0.00    -0.449 OA
ENDROOT
BRANCH   1   2
ATOM      2  C   UNL     1     -12.084  11.472  69.061  0.00  0.00    +0.172 C 
ATOM      3  C   UNL     1     -10.824  10.618  68.485  0.00  0.00    +0.060 C 
ATOM      4  C   UNL     1     -10.756  10.999  66.906  0.00  0.00    +0.062 C 
ATOM      5  N   UNL     1     -11.918  12.046  66.795  0.00  0.00    -0.269 NA
ATOM      6  C   UNL     1     -11.913  13.361  67.625  0.00  0.00    +0.062 C 
ATOM      7  C   UNL     1     -10.516  14.182  67.125  0.00  0.00    +0.024 C 
ATOM      8  C   UNL     1     -10.691  12.707  66.555  0.00  0.00    +0.062 C 
ATOM      9  C   UNL     1     -10.476  12.882  64.975  0.00  0.00    +0.166 C 
ATOM     10  O   UNL     1     -10.359  14.001  64.555  0.00  0.00    -0.295 OA
ATOM     11  C   UNL     1     -11.935  12.399  65.331  0.00  0.00    +0.137 C 
ATOM     12  C   UNL     1      -9.364  11.957  67.039  0.00  0.00    +0.024 C 
ATOM     13  C   UNL     1     -11.145  12.816  68.969  0.00  0.00    +0.060 C 
ENDBRANCH   1   2
BRANCH   1  15
ATOM     14  O   UNL     1     -13.076  11.214  71.744  0.00  0.00    -0.245 OA
ATOM     15  C   UNL     1     -12.797  10.747  71.194  0.00  0.00    +0.343 C 
BRANCH  15  16
ATOM     16  C   UNL     1     -13.039   9.327  71.467  0.00  0.00    +0.096 A 
ATOM     17  C   UNL     1     -12.018   8.449  71.811  0.00  0.00    +0.025 A 
ATOM     18  C   UNL     1     -12.478   7.150  71.839  0.00  0.00    +0.082 A 
ATOM     19  C   UNL     1     -11.521   6.170  71.841  0.00  0.00    +0.019 A 
ATOM     20  C   UNL     1     -10.170   6.440  71.663  0.00  0.00    +0.002 A 
ATOM     21  C   UNL     1      -9.712   7.733  71.695  0.00  0.00    +0.000 A 
ATOM     22  N   UNL     1     -13.804   7.253  71.650  0.00  0.00    -0.244 NA
ATOM     23  C   UNL     1     -10.660   8.723  71.784  0.00  0.00    +0.002 A 
ATOM     24  C   UNL     1     -14.153   8.536  71.382  0.00  0.00    +0.105 A 
ENDBRANCH  15  16
ENDBRANCH   1  15
TORSDOF 3
ENDMDL
MODEL 6
REMARK VINA RESULT:      -6.7      1.482      2.693
REMARK  Name = 
REMARK  3 active torsions:
REMARK  status: ('A' for Active; 'I' for Inactive)
REMARK    1  A    between atoms: C_2  and  O_3
REMARK    2  A    between atoms: C_2  and  C_16
REMARK    3  A    between atoms: O_3  and  C_4
REMARK                            x       y       z     vdW  Elec       q    Type
REMARK                         _______ _______ _______ _____ _____    ______ ____
ROOT
ATOM      1  O   UNL     1     -10.165  14.632  67.730  0.00  0.00    -0.449 OA
ENDROOT
BRANCH   1   2
ATOM      2  C   UNL     1     -10.151  16.036  67.094  0.00  0.00    +0.172 C 
ATOM      3  C   UNL     1      -8.660  15.803  66.485  0.00  0.00    +0.060 C 
ATOM      4  C   UNL     1      -8.165  17.284  66.032  0.00  0.00    +0.062 C 
ATOM      5  N   UNL     1      -9.381  18.164  66.484  0.00  0.00    -0.269 NA
ATOM      6  C   UNL     1      -9.834  18.224  67.971  0.00  0.00    +0.062 C 
ATOM      7  C   UNL     1      -8.494  18.841  68.807  0.00  0.00    +0.024 C 
ATOM      8  C   UNL     1      -8.255  18.510  67.268  0.00  0.00    +0.062 C 
ATOM      9  C   UNL     1      -7.592  19.851  66.689  0.00  0.00    +0.166 C 
ATOM     10  O   UNL     1      -7.522  20.795  67.428  0.00  0.00    -0.295 OA
ATOM     11  C   UNL     1      -8.997  19.550  66.040  0.00  0.00    +0.137 C 
ATOM     12  C   UNL     1      -7.046  17.465  67.291  0.00  0.00    +0.024 C 
ATOM     13  C   UNL     1      -9.446  16.695  68.423  0.00  0.00    +0.060 C 
ENDBRANCH   1   2
BRANCH   1  15
ATOM     14  O   UNL     1     -12.018  14.503  67.498  0.00  0.00    -0.245 OA
ATOM     15  C   UNL     1     -11.497  14.344  68.047  0.00  0.00    +0.343 C 
BRANCH  15  16
ATOM     16  C   UNL     1     -12.037  14.472  69.405  0.00  0.00    +0.096 A 
ATOM     17  C   UNL     1     -12.145  13.389  70.269  0.00  0.00    +0.025 A 
ATOM     18  C   UNL     1     -12.842  13.737  71.406  0.00  0.00    +0.082 A 
ATOM     19  C   UNL     1     -13.297  12.701  72.177  0.00  0.00    +0.019 A 
ATOM     20  C   UNL     1     -13.213  11.374  71.776  0.00  0.00    +0.002 A 
ATOM     21  C   UNL     1     -12.469  11.028  70.676  0.00  0.00    +0.000 A 
ATOM     22  N   UNL     1     -13.035  15.062  71.296  0.00  0.00    -0.244 NA
ATOM     23  C   UNL     1     -11.931  12.058  69.945  0.00  0.00    +0.002 A 
ATOM     24  C   UNL     1     -12.604  15.512  70.091  0.00  0.00    +0.105 A 
ENDBRANCH  15  16
ENDBRANCH   1  15
TORSDOF 3
ENDMDL
MODEL 7
REMARK VINA RESULT:      -6.7      2.315      3.417
REMARK  Name = 
REMARK  3 active torsions:
REMARK  status: ('A' for Active; 'I' for Inactive)
REMARK    1  A    between atoms: C_2  and  O_3
REMARK    2  A    between atoms: C_2  and  C_16
REMARK    3  A    between atoms: O_3  and  C_4
REMARK                            x       y       z     vdW  Elec       q    Type
REMARK                         _______ _______ _______ _____ _____    ______ ____
ROOT
ATOM      1  O   UNL     1     -10.825  15.743  66.768  0.00  0.00    -0.449 OA
ENDROOT
BRANCH   1   2
ATOM      2  C   UNL     1      -9.854  16.756  66.129  0.00  0.00    +0.172 C 
ATOM      3  C   UNL     1      -8.669  16.357  67.172  0.00  0.00    +0.060 C 
ATOM      4  C   UNL     1      -7.563  17.537  67.006  0.00  0.00    +0.062 C 
ATOM      5  N   UNL     1      -8.265  18.470  65.960  0.00  0.00    -0.269 NA
ATOM      6  C   UNL     1      -9.647  19.122  66.249  0.00  0.00    +0.062 C 
ATOM      7  C   UNL     1      -9.391  20.090  67.618  0.00  0.00    +0.024 C 
ATOM      8  C   UNL     1      -8.171  19.161  67.191  0.00  0.00    +0.062 C 
ATOM      9  C   UNL     1      -6.924  20.168  67.146  0.00  0.00    +0.166 C 
ATOM     10  O   UNL     1      -7.151  21.336  67.308  0.00  0.00    -0.295 OA
ATOM     11  C   UNL     1      -7.255  19.563  65.729  0.00  0.00    +0.137 C 
ATOM     12  C   UNL     1      -7.899  18.275  68.494  0.00  0.00    +0.024 C 
ATOM     13  C   UNL     1     -10.305  17.938  67.176  0.00  0.00    +0.060 C 
ENDBRANCH   1   2
BRANCH   1  15
ATOM     14  O   UNL     1     -11.645  15.002  65.257  0.00  0.00    -0.245 OA
ATOM     15  C   UNL     1     -11.121  14.791  65.785  0.00  0.00    +0.343 C 
BRANCH  15  16
ATOM     16  C   UNL     1     -11.119  13.349  66.049  0.00  0.00    +0.096 A 
ATOM     17  C   UNL     1     -11.581  12.808  67.243  0.00  0.00    +0.025 A 
ATOM     18  C   UNL     1     -11.306  11.458  67.308  0.00  0.00    +0.082 A 
ATOM     19  C   UNL     1     -11.410  10.880  68.545  0.00  0.00    +0.019 A 
ATOM     20  C   UNL     1     -11.619  11.617  69.703  0.00  0.00    +0.002 A 
ATOM     21  C   UNL     1     -11.949  12.946  69.628  0.00  0.00    +0.000 A 
ATOM     22  N   UNL     1     -10.806  11.153  66.099  0.00  0.00    -0.244 NA
ATOM     23  C   UNL     1     -11.936  13.517  68.379  0.00  0.00    +0.002 A 
ATOM     24  C   UNL     1     -10.644  12.272  65.349  0.00  0.00    +0.105 A 
ENDBRANCH  15  16
ENDBRANCH   1  15
TORSDOF 3
ENDMDL
MODEL 8
REMARK VINA RESULT:      -6.6      1.970      3.332
REMARK  Name = 
REMARK  3 active torsions:
REMARK  status: ('A' for Active; 'I' for Inactive)
REMARK    1  A    between atoms: C_2  and  O_3
REMARK    2  A    between atoms: C_2  and  C_16
REMARK    3  A    between atoms: O_3  and  C_4
REMARK                            x       y       z     vdW  Elec       q    Type
REMARK                         _______ _______ _______ _____ _____    ______ ____
ROOT
ATOM      1  O   UNL     1     -11.325  17.033  67.970  0.00  0.00    -0.449 OA
ENDROOT
BRANCH   1   2
ATOM      2  C   UNL     1     -10.106  17.754  68.579  0.00  0.00    +0.172 C 
ATOM      3  C   UNL     1     -10.321  19.046  67.613  0.00  0.00    +0.060 C 
ATOM      4  C   UNL     1      -8.939  19.892  67.745  0.00  0.00    +0.062 C 
ATOM      5  N   UNL     1      -8.105  18.968  68.699  0.00  0.00    -0.269 NA
ATOM      6  C   UNL     1      -7.756  17.502  68.312  0.00  0.00    +0.062 C 
ATOM      7  C   UNL     1      -6.836  17.636  66.894  0.00  0.00    +0.024 C 
ATOM      8  C   UNL     1      -7.480  18.989  67.430  0.00  0.00    +0.062 C 
ATOM      9  C   UNL     1      -6.245  20.013  67.458  0.00  0.00    +0.166 C 
ATOM     10  O   UNL     1      -5.156  19.571  67.211  0.00  0.00    -0.295 OA
ATOM     11  C   UNL     1      -6.823  19.733  68.898  0.00  0.00    +0.137 C 
ATOM     12  C   UNL     1      -8.367  19.497  66.200  0.00  0.00    +0.024 C 
ATOM     13  C   UNL     1      -9.097  17.137  67.440  0.00  0.00    +0.060 C 
ENDBRANCH   1   2
BRANCH   1  15
ATOM     14  O   UNL     1     -11.726  16.335  69.660  0.00  0.00    -0.245 OA
ATOM     15  C   UNL     1     -11.765  16.107  68.923  0.00  0.00    +0.343 C 
BRANCH  15  16
ATOM     16  C   UNL     1     -11.601  14.659  68.759  0.00  0.00    +0.096 A 
ATOM     17  C   UNL     1     -11.495  14.056  67.512  0.00  0.00    +0.025 A 
ATOM     18  C   UNL     1     -11.530  12.682  67.627  0.00  0.00    +0.082 A 
ATOM     19  C   UNL     1     -11.761  11.986  66.471  0.00  0.00    +0.019 A 
ATOM     20  C   UNL     1     -12.103  12.605  65.276  0.00  0.00    +0.002 A 
ATOM     21  C   UNL     1     -12.009  13.969  65.151  0.00  0.00    +0.000 A 
ATOM     22  N   UNL     1     -11.515  12.451  68.949  0.00  0.00    -0.244 NA
ATOM     23  C   UNL     1     -11.689  14.673  66.286  0.00  0.00    +0.002 A 
ATOM     24  C   UNL     1     -11.603  13.613  69.643  0.00  0.00    +0.105 A 
ENDBRANCH  15  16
ENDBRANCH   1  15
TORSDOF 3
ENDMDL
MODEL 9
REMARK VINA RESULT:      -6.6      2.731      7.273
REMARK  Name = 
REMARK  3 active torsions:
REMARK  status: ('A' for Active; 'I' for Inactive)
REMARK    1  A    between atoms: C_2  and  O_3
REMARK    2  A    between atoms: C_2  and  C_16
REMARK    3  A    between atoms: O_3  and  C_4
REMARK                            x       y       z     vdW  Elec       q    Type
REMARK                         _______ _______ _______ _____ _____    ______ ____
ROOT
ATOM      1  O   UNL     1      -9.939  16.906  65.736  0.00  0.00    -0.449 OA
ENDROOT
BRANCH   1   2
ATOM      2  C   UNL     1     -10.501  15.997  66.846  0.00  0.00    +0.172 C 
ATOM      3  C   UNL     1      -9.127  15.127  66.902  0.00  0.00    +0.060 C 
ATOM      4  C   UNL     1      -9.516  13.800  67.758  0.00  0.00    +0.062 C 
ATOM      5  N   UNL     1     -11.042  14.044  68.024  0.00  0.00    -0.269 NA
ATOM      6  C   UNL     1     -12.057  14.198  66.856  0.00  0.00    +0.062 C 
ATOM      7  C   UNL     1     -11.974  12.728  66.014  0.00  0.00    +0.024 C 
ATOM      8  C   UNL     1     -10.904  12.919  67.177  0.00  0.00    +0.062 C 
ATOM      9  C   UNL     1     -11.040  11.576  68.044  0.00  0.00    +0.166 C 
ATOM     10  O   UNL     1     -11.922  10.816  67.748  0.00  0.00    -0.295 OA
ATOM     11  C   UNL     1     -11.446  12.861  68.863  0.00  0.00    +0.137 C 
ATOM     12  C   UNL     1      -9.501  12.750  66.429  0.00  0.00    +0.024 C 
ATOM     13  C   UNL     1     -11.077  14.916  65.752  0.00  0.00    +0.060 C 
ENDBRANCH   1   2
BRANCH   1  15
ATOM     14  O   UNL     1     -10.223  18.756  65.732  0.00  0.00    -0.245 OA
ATOM     15  C   UNL     1      -9.976  18.216  66.227  0.00  0.00    +0.343 C 
BRANCH  15  16
ATOM     16  C   UNL     1      -9.006  18.729  67.199  0.00  0.00    +0.096 A 
ATOM     17  C   UNL     1      -7.635  18.687  66.978  0.00  0.00    +0.025 A 
ATOM     18  C   UNL     1      -6.943  19.063  68.110  0.00  0.00    +0.082 A 
ATOM     19  C   UNL     1      -5.609  18.756  68.133  0.00  0.00    +0.019 A 
ATOM     20  C   UNL     1      -5.002  17.973  67.160  0.00  0.00    +0.002 A 
ATOM     21  C   UNL     1      -5.676  17.652  66.009  0.00  0.00    +0.000 A 
ATOM     22  N   UNL     1      -7.893  19.466  68.971  0.00  0.00    -0.244 NA
ATOM     23  C   UNL     1      -6.993  18.034  65.937  0.00  0.00    +0.002 A 
ATOM     24  C   UNL     1      -9.130  19.234  68.466  0.00  0.00    +0.105 A 
ENDBRANCH  15  16
ENDBRANCH   1  15
TORSDOF 3
ENDMDL
