MODEL 1
REMARK VINA RESULT:      -7.0      0.000      0.000
REMARK  Name = 
REMARK  3 active torsions:
REMARK  status: ('A' for Active; 'I' for Inactive)
REMARK    1  A    between atoms: N_8  and  C_9
REMARK    2  A    between atoms: C_12  and  C_13
REMARK    3  A    between atoms: N_17  and  C_18
REMARK                            x       y       z     vdW  Elec       q    Type
REMARK                         _______ _______ _______ _____ _____    ______ ____
ROOT
ATOM      1  N   UNL     1     -13.523  15.673  71.510  0.00  0.00    -0.086 NA
ATOM      2  C   UNL     1     -13.147  14.902  71.071  0.00  0.00    +0.259 A 
ATOM      3  N   UNL     1     -13.285  13.680  71.640  0.00  0.00    -0.193 NA
ATOM      4  C   UNL     1     -12.772  12.557  71.112  0.00  0.00    +0.171 A 
ATOM      5  N   UNL     1     -12.700  11.321  71.806  0.00  0.00    -0.221 NA
ATOM      6  C   UNL     1     -12.114  12.634  69.901  0.00  0.00    +0.150 A 
ATOM      7  N   UNL     1     -11.734  11.696  69.040  0.00  0.00    -0.219 NA
ATOM      8  C   UNL     1     -11.637  12.312  67.854  0.00  0.00    +0.180 A 
ATOM      9  N   UNL     1     -11.364  13.626  68.087  0.00  0.00    -0.292 N 
ATOM     10  C   UNL     1     -11.968  13.869  69.278  0.00  0.00    +0.169 A 
ATOM     11  N   UNL     1     -12.464  14.933  69.905  0.00  0.00    -0.192 NA
ENDROOT
BRANCH   9  12
ATOM     12  C   UNL     1     -11.534  14.667  66.912  0.00  0.00    +0.111 C 
ATOM     13  C   UNL     1     -12.382  13.612  65.974  0.00  0.00    +0.034 C 
ATOM     14  C   UNL     1     -11.817  14.334  64.623  0.00  0.00    +0.057 C 
ATOM     15  C   UNL     1     -10.331  13.904  65.031  0.00  0.00    -0.026 C 
ATOM     16  C   UNL     1     -10.135  14.224  66.245  0.00  0.00    -0.008 C 
BRANCH  14  17
ATOM     17  C   UNL     1     -12.052  12.985  63.727  0.00  0.00    +0.186 C 
ATOM     18  O   UNL     1     -13.202  12.394  64.218  0.00  0.00    -0.220 OA
ENDBRANCH  14  17
ENDBRANCH   9  12
BRANCH   5  19
ATOM     19  C   UNL     1     -13.130  10.092  71.181  0.00  0.00    +0.094 C 
ATOM     20  C   UNL     1     -13.711   9.084  72.110  0.00  0.00    +0.023 C 
ATOM     21  C   UNL     1     -12.280   8.887  71.674  0.00  0.00    +0.023 C 
ENDBRANCH   5  19
TORSDOF 3
ENDMDL
MODEL 2
REMARK VINA RESULT:      -6.9      2.357      3.478
REMARK  Name = 
REMARK  3 active torsions:
REMARK  status: ('A' for Active; 'I' for Inactive)
REMARK    1  A    between atoms: N_8  and  C_9
REMARK    2  A    between atoms: C_12  and  C_13
REMARK    3  A    between atoms: N_17  and  C_18
REMARK                            x       y       z     vdW  Elec       q    Type
REMARK                         _______ _______ _______ _____ _____    ______ ____
ROOT
ATOM      1  N   UNL     1      -9.800  18.135  68.182  0.00  0.00    -0.086 NA
ATOM      2  C   UNL     1     -10.182  17.262  68.326  0.00  0.00    +0.259 A 
ATOM      3  N   UNL     1     -11.020  17.068  69.373  0.00  0.00    -0.193 NA
ATOM      4  C   UNL     1     -11.578  15.881  69.663  0.00  0.00    +0.171 A 
ATOM      5  N   UNL     1     -12.257  15.605  70.878  0.00  0.00    -0.221 NA
ATOM      6  C   UNL     1     -11.331  14.810  68.827  0.00  0.00    +0.150 A 
ATOM      7  N   UNL     1     -11.917  13.624  68.715  0.00  0.00    -0.219 NA
ATOM      8  C   UNL     1     -11.664  13.213  67.465  0.00  0.00    +0.180 A 
ATOM      9  N   UNL     1     -10.502  13.797  67.061  0.00  0.00    -0.292 N 
ATOM     10  C   UNL     1     -10.490  14.976  67.732  0.00  0.00    +0.169 A 
ATOM     11  N   UNL     1      -9.942  16.177  67.558  0.00  0.00    -0.192 NA
ENDROOT
BRANCH   9  12
ATOM     12  C   UNL     1     -10.126  13.781  65.526  0.00  0.00    +0.111 C 
ATOM     13  C   UNL     1     -11.680  13.507  65.053  0.00  0.00    +0.034 C 
ATOM     14  C   UNL     1     -11.152  12.713  63.728  0.00  0.00    +0.057 C 
ATOM     15  C   UNL     1     -10.480  11.611  64.673  0.00  0.00    -0.026 C 
ATOM     16  C   UNL     1      -9.800  12.203  65.567  0.00  0.00    -0.008 C 
BRANCH  14  17
ATOM     17  C   UNL     1     -12.550  11.872  63.597  0.00  0.00    +0.186 C 
ATOM     18  O   UNL     1     -13.402  12.395  64.553  0.00  0.00    -0.220 OA
ENDBRANCH  14  17
ENDBRANCH   9  12
BRANCH   5  19
ATOM     19  C   UNL     1     -13.547  14.956  70.877  0.00  0.00    +0.094 C 
ATOM     20  C   UNL     1     -14.430  15.308  72.023  0.00  0.00    +0.023 C 
ATOM     21  C   UNL     1     -13.689  13.995  72.090  0.00  0.00    +0.023 C 
ENDBRANCH   5  19
TORSDOF 3
ENDMDL
MODEL 3
REMARK VINA RESULT:      -6.8      2.367      2.782
REMARK  Name = 
REMARK  3 active torsions:
REMARK  status: ('A' for Active; 'I' for Inactive)
REMARK    1  A    between atoms: N_8  and  C_9
REMARK    2  A    between atoms: C_12  and  C_13
REMARK    3  A    between atoms: N_17  and  C_18
REMARK                            x       y       z     vdW  Elec       q    Type
REMARK                         _______ _______ _______ _____ _____    ______ ____
ROOT
ATOM      1  N   UNL     1     -14.436  15.858  72.499  0.00  0.00    -0.086 NA
ATOM      2  C   UNL     1     -13.886  15.236  72.010  0.00  0.00    +0.259 A 
ATOM      3  N   UNL     1     -13.953  13.915  72.305  0.00  0.00    -0.193 NA
ATOM      4  C   UNL     1     -13.206  12.982  71.694  0.00  0.00    +0.171 A 
ATOM      5  N   UNL     1     -13.087  11.643  72.149  0.00  0.00    -0.221 NA
ATOM      6  C   UNL     1     -12.361  13.373  70.673  0.00  0.00    +0.150 A 
ATOM      7  N   UNL     1     -11.711  12.676  69.748  0.00  0.00    -0.219 NA
ATOM      8  C   UNL     1     -11.493  13.530  68.739  0.00  0.00    +0.180 A 
ATOM      9  N   UNL     1     -11.448  14.789  69.260  0.00  0.00    -0.292 N 
ATOM     10  C   UNL     1     -12.280  14.718  70.330  0.00  0.00    +0.169 A 
ATOM     11  N   UNL     1     -13.020  15.575  71.030  0.00  0.00    -0.192 NA
ENDROOT
BRANCH   9  12
ATOM     12  C   UNL     1     -11.550  16.027  68.285  0.00  0.00    +0.111 C 
ATOM     13  C   UNL     1     -10.530  15.360  67.179  0.00  0.00    +0.034 C 
ATOM     14  C   UNL     1     -10.039  16.845  66.713  0.00  0.00    +0.057 C 
ATOM     15  C   UNL     1      -9.449  17.095  68.180  0.00  0.00    -0.026 C 
ATOM     16  C   UNL     1     -10.338  16.783  69.032  0.00  0.00    -0.008 C 
BRANCH  14  17
ATOM     17  C   UNL     1      -8.615  16.267  66.148  0.00  0.00    +0.186 C 
ATOM     18  O   UNL     1      -7.877  17.373  65.768  0.00  0.00    -0.220 OA
ENDBRANCH  14  17
ENDBRANCH   9  12
BRANCH   5  19
ATOM     19  C   UNL     1     -13.227  10.533  71.236  0.00  0.00    +0.094 C 
ATOM     20  C   UNL     1     -13.511   9.221  71.880  0.00  0.00    +0.023 C 
ATOM     21  C   UNL     1     -12.092   9.492  71.444  0.00  0.00    +0.023 C 
ENDBRANCH   5  19
TORSDOF 3
ENDMDL
MODEL 4
REMARK VINA RESULT:      -6.8      2.980      6.192
REMARK  Name = 
REMARK  3 active torsions:
REMARK  status: ('A' for Active; 'I' for Inactive)
REMARK    1  A    between atoms: N_8  and  C_9
REMARK    2  A    between atoms: C_12  and  C_13
REMARK    3  A    between atoms: N_17  and  C_18
REMARK                            x       y       z     vdW  Elec       q    Type
REMARK                         _______ _______ _______ _____ _____    ______ ____
ROOT
ATOM      1  N   UNL     1     -10.007  16.856  65.488  0.00  0.00    -0.086 NA
ATOM      2  C   UNL     1     -10.415  16.016  65.727  0.00  0.00    +0.259 A 
ATOM      3  N   UNL     1     -10.545  15.049  64.786  0.00  0.00    -0.193 NA
ATOM      4  C   UNL     1     -11.122  13.860  65.022  0.00  0.00    +0.171 A 
ATOM      5  N   UNL     1     -11.480  12.940  64.003  0.00  0.00    -0.221 NA
ATOM      6  C   UNL     1     -11.561  13.579  66.301  0.00  0.00    +0.150 A 
ATOM      7  N   UNL     1     -11.928  12.441  66.879  0.00  0.00    -0.219 NA
ATOM      8  C   UNL     1     -11.747  12.628  68.193  0.00  0.00    +0.180 A 
ATOM      9  N   UNL     1     -11.863  13.962  68.445  0.00  0.00    -0.292 N 
ATOM     10  C   UNL     1     -11.428  14.540  67.297  0.00  0.00    +0.169 A 
ATOM     11  N   UNL     1     -10.892  15.709  66.953  0.00  0.00    -0.192 NA
ENDROOT
BRANCH   9  12
ATOM     12  C   UNL     1     -11.362  14.529  69.831  0.00  0.00    +0.111 C 
ATOM     13  C   UNL     1     -12.206  13.413  70.700  0.00  0.00    +0.034 C 
ATOM     14  C   UNL     1     -12.349  14.465  71.940  0.00  0.00    +0.057 C 
ATOM     15  C   UNL     1     -13.199  15.440  70.998  0.00  0.00    -0.026 C 
ATOM     16  C   UNL     1     -12.577  15.586  69.900  0.00  0.00    -0.008 C 
BRANCH  14  17
ATOM     17  C   UNL     1     -13.687  13.711  72.508  0.00  0.00    +0.186 C 
ATOM     18  O   UNL     1     -13.533  12.373  72.195  0.00  0.00    -0.220 OA
ENDBRANCH  14  17
ENDBRANCH   9  12
BRANCH   5  19
ATOM     19  C   UNL     1     -11.135  11.542  64.110  0.00  0.00    +0.094 C 
ATOM     20  C   UNL     1      -9.697  11.267  64.377  0.00  0.00    +0.023 C 
ATOM     21  C   UNL     1     -10.184  11.111  62.957  0.00  0.00    +0.023 C 
ENDBRANCH   5  19
TORSDOF 3
ENDMDL
MODEL 5
REMARK VINA RESULT:      -6.7      3.073      5.642
REMARK  Name = 
REMARK  3 active torsions:
REMARK  status: ('A' for Active; 'I' for Inactive)
REMARK    1  A    between atoms: N_8  and  C_9
REMARK    2  A    between atoms: C_12  and  C_13
REMARK    3  A    between atoms: N_17  and  C_18
REMARK                            x       y       z     vdW  Elec       q    Type
REMARK                         _______ _______ _______ _____ _____    ______ ____
ROOT
ATOM      1  N   UNL     1     -12.201  14.760  70.517  0.00  0.00    -0.086 NA
ATOM      2  C   UNL     1     -11.922  15.041  69.639  0.00  0.00    +0.259 A 
ATOM      3  N   UNL     1     -11.355  16.262  69.480  0.00  0.00    -0.193 NA
ATOM      4  C   UNL     1     -10.959  16.745  68.291  0.00  0.00    +0.171 A 
ATOM      5  N   UNL     1     -10.591  18.097  68.072  0.00  0.00    -0.221 NA
ATOM      6  C   UNL     1     -11.084  15.941  67.175  0.00  0.00    +0.150 A 
ATOM      7  N   UNL     1     -10.571  16.039  65.954  0.00  0.00    -0.219 NA
ATOM      8  C   UNL     1     -10.564  14.792  65.464  0.00  0.00    +0.180 A 
ATOM      9  N   UNL     1     -11.563  14.097  66.077  0.00  0.00    -0.292 N 
ATOM     10  C   UNL     1     -11.645  14.675  67.302  0.00  0.00    +0.169 A 
ATOM     11  N   UNL     1     -12.056  14.306  68.513  0.00  0.00    -0.192 NA
ENDROOT
BRANCH   9  12
ATOM     12  C   UNL     1     -11.585  12.522  65.965  0.00  0.00    +0.111 C 
ATOM     13  C   UNL     1     -10.192  12.472  65.088  0.00  0.00    +0.034 C 
ATOM     14  C   UNL     1     -10.691  11.107  64.345  0.00  0.00    +0.057 C 
ATOM     15  C   UNL     1     -11.915  11.917  63.709  0.00  0.00    -0.026 C 
ATOM     16  C   UNL     1     -12.489  12.575  64.631  0.00  0.00    -0.008 C 
BRANCH  14  17
ATOM     17  C   UNL     1      -9.726  11.383  63.051  0.00  0.00    +0.186 C 
ATOM     18  O   UNL     1      -9.489  10.146  62.481  0.00  0.00    -0.220 OA
ENDBRANCH  14  17
ENDBRANCH   9  12
BRANCH   5  19
ATOM     19  C   UNL     1      -9.381  18.431  67.357  0.00  0.00    +0.094 C 
ATOM     20  C   UNL     1      -8.746  19.715  67.760  0.00  0.00    +0.023 C 
ATOM     21  C   UNL     1      -9.575  19.713  66.499  0.00  0.00    +0.023 C 
ENDBRANCH   5  19
TORSDOF 3
ENDMDL
MODEL 6
REMARK VINA RESULT:      -6.5      3.363      5.493
REMARK  Name = 
REMARK  3 active torsions:
REMARK  status: ('A' for Active; 'I' for Inactive)
REMARK    1  A    between atoms: N_8  and  C_9
REMARK    2  A    between atoms: C_12  and  C_13
REMARK    3  A    between atoms: N_17  and  C_18
REMARK                            x       y       z     vdW  Elec       q    Type
REMARK                         _______ _______ _______ _____ _____    ______ ____
ROOT
ATOM      1  N   UNL     1     -12.098  12.767  70.309  0.00  0.00    -0.086 NA
ATOM      2  C   UNL     1     -11.793  13.145  69.477  0.00  0.00    +0.259 A 
ATOM      3  N   UNL     1     -12.098  12.520  68.313  0.00  0.00    -0.193 NA
ATOM      4  C   UNL     1     -11.695  12.959  67.110  0.00  0.00    +0.171 A 
ATOM      5  N   UNL     1     -11.798  12.198  65.917  0.00  0.00    -0.221 NA
ATOM      6  C   UNL     1     -10.977  14.137  67.041  0.00  0.00    +0.150 A 
ATOM      7  N   UNL     1     -10.669  14.926  66.018  0.00  0.00    -0.219 NA
ATOM      8  C   UNL     1     -10.446  16.135  66.548  0.00  0.00    +0.180 A 
ATOM      9  N   UNL     1     -10.034  15.958  67.835  0.00  0.00    -0.292 N 
ATOM     10  C   UNL     1     -10.660  14.816  68.213  0.00  0.00    +0.169 A 
ATOM     11  N   UNL     1     -11.058  14.272  69.362  0.00  0.00    -0.192 NA
ENDROOT
BRANCH   9  12
ATOM     12  C   UNL     1     -10.028  17.195  68.817  0.00  0.00    +0.111 C 
ATOM     13  C   UNL     1     -10.583  18.232  67.665  0.00  0.00    +0.034 C 
ATOM     14  C   UNL     1      -9.801  19.472  68.384  0.00  0.00    +0.057 C 
ATOM     15  C   UNL     1      -8.406  18.746  68.088  0.00  0.00    -0.026 C 
ATOM     16  C   UNL     1      -8.492  17.536  68.465  0.00  0.00    -0.008 C 
BRANCH  14  17
ATOM     17  C   UNL     1      -9.746  20.328  66.989  0.00  0.00    +0.186 C 
ATOM     18  O   UNL     1     -10.569  19.663  66.099  0.00  0.00    -0.220 OA
ENDBRANCH  14  17
ENDBRANCH   9  12
BRANCH   5  19
ATOM     19  C   UNL     1     -12.338  12.779  64.710  0.00  0.00    +0.094 C 
ATOM     20  C   UNL     1     -12.721  11.799  63.657  0.00  0.00    +0.023 C 
ATOM     21  C   UNL     1     -11.403  12.516  63.497  0.00  0.00    +0.023 C 
ENDBRANCH   5  19
TORSDOF 3
ENDMDL
MODEL 7
REMARK VINA RESULT:      -6.5      3.967      5.541
REMARK  Name = 
REMARK  3 active torsions:
REMARK  status: ('A' for Active; 'I' for Inactive)
REMARK    1  A    between atoms: N_8  and  C_9
REMARK    2  A    between atoms: C_12  and  C_13
REMARK    3  A    between atoms: N_17  and  C_18
REMARK                            x       y       z     vdW  Elec       q    Type
REMARK                         _______ _______ _______ _____ _____    ______ ____
ROOT
ATOM      1  N   UNL     1     -11.643  12.755  66.771  0.00  0.00    -0.086 NA
ATOM      2  C   UNL     1     -11.612  13.531  67.341  0.00  0.00    +0.259 A 
ATOM      3  N   UNL     1     -12.073  13.441  68.612  0.00  0.00    -0.193 NA
ATOM      4  C   UNL     1     -12.092  14.476  69.467  0.00  0.00    +0.171 A 
ATOM      5  N   UNL     1     -12.784  14.464  70.706  0.00  0.00    -0.221 NA
ATOM      6  C   UNL     1     -11.568  15.686  69.055  0.00  0.00    +0.150 A 
ATOM      7  N   UNL     1     -11.229  16.778  69.731  0.00  0.00    -0.219 NA
ATOM      8  C   UNL     1     -10.322  17.406  68.971  0.00  0.00    +0.180 A 
ATOM      9  N   UNL     1     -10.556  17.064  67.673  0.00  0.00    -0.292 N 
ATOM     10  C   UNL     1     -11.069  15.811  67.763  0.00  0.00    +0.169 A 
ATOM     11  N   UNL     1     -11.143  14.743  66.972  0.00  0.00    -0.192 NA
ENDROOT
BRANCH   9  12
ATOM     12  C   UNL     1      -9.449  17.366  66.587  0.00  0.00    +0.111 C 
ATOM     13  C   UNL     1      -8.377  17.932  67.701  0.00  0.00    +0.034 C 
ATOM     14  C   UNL     1      -7.716  18.922  66.584  0.00  0.00    +0.057 C 
ATOM     15  C   UNL     1      -9.110  19.698  66.466  0.00  0.00    -0.026 C 
ATOM     16  C   UNL     1     -10.038  18.843  66.320  0.00  0.00    -0.008 C 
BRANCH  14  17
ATOM     17  C   UNL     1      -7.150  19.943  67.732  0.00  0.00    +0.186 C 
ATOM     18  O   UNL     1      -7.175  21.205  67.167  0.00  0.00    -0.220 OA
ENDBRANCH  14  17
ENDBRANCH   9  12
BRANCH   5  19
ATOM     19  C   UNL     1     -12.142  14.912  71.920  0.00  0.00    +0.094 C 
ATOM     20  C   UNL     1     -12.816  14.495  73.179  0.00  0.00    +0.023 C 
ATOM     21  C   UNL     1     -13.049  15.906  72.697  0.00  0.00    +0.023 C 
ENDBRANCH   5  19
TORSDOF 3
ENDMDL
MODEL 8
REMARK VINA RESULT:      -6.4      3.548      5.223
REMARK  Name = 
REMARK  3 active torsions:
REMARK  status: ('A' for Active; 'I' for Inactive)
REMARK    1  A    between atoms: N_8  and  C_9
REMARK    2  A    between atoms: C_12  and  C_13
REMARK    3  A    between atoms: N_17  and  C_18
REMARK                            x       y       z     vdW  Elec       q    Type
REMARK                         _______ _______ _______ _____ _____    ______ ____
ROOT
ATOM      1  N   UNL     1     -12.480  13.435  63.801  0.00  0.00    -0.086 NA
ATOM      2  C   UNL     1     -12.151  13.550  64.699  0.00  0.00    +0.259 A 
ATOM      3  N   UNL     1     -12.146  12.492  65.546  0.00  0.00    -0.193 NA
ATOM      4  C   UNL     1     -11.730  12.566  66.820  0.00  0.00    +0.171 A 
ATOM      5  N   UNL     1     -11.941  11.543  67.781  0.00  0.00    -0.221 NA
ATOM      6  C   UNL     1     -11.230  13.767  67.285  0.00  0.00    +0.150 A 
ATOM      7  N   UNL     1     -10.538  14.072  68.377  0.00  0.00    -0.219 NA
ATOM      8  C   UNL     1      -9.879  15.201  68.083  0.00  0.00    +0.180 A 
ATOM      9  N   UNL     1     -10.594  15.866  67.132  0.00  0.00    -0.292 N 
ATOM     10  C   UNL     1     -11.202  14.870  66.440  0.00  0.00    +0.169 A 
ATOM     11  N   UNL     1     -11.686  14.712  65.210  0.00  0.00    -0.192 NA
ENDROOT
BRANCH   9  12
ATOM     12  C   UNL     1      -9.907  17.047  66.340  0.00  0.00    +0.111 C 
ATOM     13  C   UNL     1      -8.568  17.037  67.299  0.00  0.00    +0.034 C 
ATOM     14  C   UNL     1      -8.349  18.633  67.036  0.00  0.00    +0.057 C 
ATOM     15  C   UNL     1      -9.749  18.929  67.753  0.00  0.00    -0.026 C 
ATOM     16  C   UNL     1     -10.628  18.156  67.261  0.00  0.00    -0.008 C 
BRANCH  14  17
ATOM     17  C   UNL     1      -7.503  18.810  68.426  0.00  0.00    +0.186 C 
ATOM     18  O   UNL     1      -7.365  17.540  68.955  0.00  0.00    -0.220 OA
ENDBRANCH  14  17
ENDBRANCH   9  12
BRANCH   5  19
ATOM     19  C   UNL     1     -10.863  11.082  68.624  0.00  0.00    +0.094 C 
ATOM     20  C   UNL     1     -10.796   9.607  68.810  0.00  0.00    +0.023 C 
ATOM     21  C   UNL     1     -11.411  10.423  69.921  0.00  0.00    +0.023 C 
ENDBRANCH   5  19
TORSDOF 3
ENDMDL
MODEL 9
REMARK VINA RESULT:      -6.2      3.586      6.723
REMARK  Name = 
REMARK  3 active torsions:
REMARK  status: ('A' for Active; 'I' for Inactive)
REMARK    1  A    between atoms: N_8  and  C_9
REMARK    2  A    between atoms: C_12  and  C_13
REMARK    3  A    between atoms: N_17  and  C_18
REMARK                            x       y       z     vdW  Elec       q    Type
REMARK                         _______ _______ _______ _____ _____    ______ ____
ROOT
ATOM      1  N   UNL     1     -11.795  16.312  63.875  0.00  0.00    -0.086 NA
ATOM      2  C   UNL     1     -11.309  16.146  64.690  0.00  0.00    +0.259 A 
ATOM      3  N   UNL     1     -10.562  17.138  65.233  0.00  0.00    -0.193 NA
ATOM      4  C   UNL     1      -9.833  16.988  66.351  0.00  0.00    +0.171 A 
ATOM      5  N   UNL     1      -8.869  17.929  66.796  0.00  0.00    -0.221 NA
ATOM      6  C   UNL     1      -9.882  15.779  67.017  0.00  0.00    +0.150 A 
ATOM      7  N   UNL     1      -9.486  15.424  68.234  0.00  0.00    -0.219 NA
ATOM      8  C   UNL     1     -10.219  14.349  68.553  0.00  0.00    +0.180 A 
ATOM      9  N   UNL     1     -10.572  13.726  67.393  0.00  0.00    -0.292 N 
ATOM     10  C   UNL     1     -10.651  14.743  66.499  0.00  0.00    +0.169 A 
ATOM     11  N   UNL     1     -11.296  14.970  65.357  0.00  0.00    -0.192 NA
ENDROOT
BRANCH   9  12
ATOM     12  C   UNL     1     -11.715  12.636  67.424  0.00  0.00    +0.111 C 
ATOM     13  C   UNL     1     -11.568  12.392  69.046  0.00  0.00    +0.034 C 
ATOM     14  C   UNL     1     -12.062  10.846  68.873  0.00  0.00    +0.057 C 
ATOM     15  C   UNL     1     -10.769  10.547  67.979  0.00  0.00    -0.026 C 
ATOM     16  C   UNL     1     -10.670  11.453  67.094  0.00  0.00    -0.008 C 
BRANCH  14  17
ATOM     17  C   UNL     1     -11.315  10.386  70.256  0.00  0.00    +0.186 C 
ATOM     18  O   UNL     1     -12.111   9.401  70.811  0.00  0.00    -0.220 OA
ENDBRANCH  14  17
ENDBRANCH   9  12
BRANCH   5  19
ATOM     19  C   UNL     1      -8.841  18.372  68.170  0.00  0.00    +0.094 C 
ATOM     20  C   UNL     1      -9.492  19.687  68.420  0.00  0.00    +0.023 C 
ATOM     21  C   UNL     1      -7.986  19.660  68.325  0.00  0.00    +0.023 C 
ENDBRANCH   5  19
TORSDOF 3
ENDMDL
