MODEL 1
REMARK VINA RESULT:      -7.6      0.000      0.000
REMARK  Name = 
REMARK  1 active torsions:
REMARK  status: ('A' for Active; 'I' for Inactive)
REMARK    1  A    between atoms: C_8  and  C_9
REMARK                            x       y       z     vdW  Elec       q    Type
REMARK                         _______ _______ _______ _____ _____    ______ ____
ROOT
ATOM      1  N   UNL     1     -12.459  12.474  63.799  0.00  0.00    -0.086 NA
ATOM      2  C   UNL     1     -12.096  12.866  65.129  0.00  0.00    +0.259 A 
ATOM      3  N   UNL     1     -12.260  14.135  65.569  0.00  0.00    -0.190 NA
ATOM      4  C   UNL     1     -11.987  14.389  66.870  0.00  0.00    +0.187 A 
ATOM      5  C   UNL     1     -11.912  13.322  67.756  0.00  0.00    +0.152 A 
ATOM      6  N   UNL     1     -11.981  13.546  69.090  0.00  0.00    -0.236 NA
ATOM      7  C   UNL     1     -12.025  14.844  69.475  0.00  0.00    +0.116 A 
ATOM      8  C   UNL     1     -11.525  15.811  68.610  0.00  0.00    +0.189 A 
ATOM      9  N   UNL     1     -10.886  16.961  69.179  0.00  0.00    -0.106 NA
ATOM     10  C   UNL     1     -11.663  12.033  67.306  0.00  0.00    +0.193 A 
ATOM     11  N   UNL     1     -11.100  11.031  68.160  0.00  0.00    -0.105 NA
ATOM     12  N   UNL     1     -11.589  15.619  67.273  0.00  0.00    -0.205 NA
ATOM     13  N   UNL     1     -11.782  11.853  65.968  0.00  0.00    -0.191 NA
ENDROOT
BRANCH   7  14
ATOM     14  C   UNL     1     -12.431  15.200  70.840  0.00  0.00    +0.021 A 
ATOM     15  C   UNL     1     -11.548  15.006  71.892  0.00  0.00    +0.002 A 
ATOM     16  C   UNL     1     -11.958  15.505  73.120  0.00  0.00    +0.000 A 
ATOM     17  C   UNL     1     -13.257  15.966  73.291  0.00  0.00    +0.000 A 
ATOM     18  C   UNL     1     -14.194  15.498  72.402  0.00  0.00    +0.000 A 
ATOM     19  C   UNL     1     -13.767  15.156  71.148  0.00  0.00    +0.002 A 
ENDBRANCH   7  14
TORSDOF 1
ENDMDL
MODEL 2
REMARK VINA RESULT:      -7.2      3.192      4.308
REMARK  Name = 
REMARK  1 active torsions:
REMARK  status: ('A' for Active; 'I' for Inactive)
REMARK    1  A    between atoms: C_8  and  C_9
REMARK                            x       y       z     vdW  Elec       q    Type
REMARK                         _______ _______ _______ _____ _____    ______ ____
ROOT
ATOM      1  N   UNL     1     -11.676  16.667  64.008  0.00  0.00    -0.086 NA
ATOM      2  C   UNL     1     -11.488  15.403  64.657  0.00  0.00    +0.259 A 
ATOM      3  N   UNL     1     -10.650  15.259  65.709  0.00  0.00    -0.190 NA
ATOM      4  C   UNL     1     -10.615  14.053  66.323  0.00  0.00    +0.187 A 
ATOM      5  C   UNL     1     -11.657  13.161  66.103  0.00  0.00    +0.152 A 
ATOM      6  N   UNL     1     -11.835  12.110  66.938  0.00  0.00    -0.236 NA
ATOM      7  C   UNL     1     -10.897  11.950  67.902  0.00  0.00    +0.116 A 
ATOM      8  C   UNL     1      -9.637  12.502  67.701  0.00  0.00    +0.189 A 
ATOM      9  N   UNL     1      -8.502  11.802  68.227  0.00  0.00    -0.106 NA
ATOM     10  C   UNL     1     -12.463  13.266  64.978  0.00  0.00    +0.193 A 
ATOM     11  N   UNL     1     -13.186  12.144  64.460  0.00  0.00    -0.105 NA
ATOM     12  N   UNL     1      -9.502  13.630  66.969  0.00  0.00    -0.205 NA
ATOM     13  N   UNL     1     -12.348  14.426  64.287  0.00  0.00    -0.191 NA
ENDROOT
BRANCH   7  14
ATOM     14  C   UNL     1     -11.155  11.071  69.048  0.00  0.00    +0.021 A 
ATOM     15  C   UNL     1     -10.959   9.702  68.922  0.00  0.00    +0.002 A 
ATOM     16  C   UNL     1     -11.083   8.967  70.093  0.00  0.00    +0.000 A 
ATOM     17  C   UNL     1     -11.581   9.563  71.245  0.00  0.00    +0.000 A 
ATOM     18  C   UNL     1     -12.342  10.693  71.070  0.00  0.00    +0.000 A 
ATOM     19  C   UNL     1     -12.083  11.472  69.975  0.00  0.00    +0.002 A 
ENDBRANCH   7  14
TORSDOF 1
ENDMDL
MODEL 3
REMARK VINA RESULT:      -7.0      2.492      6.190
REMARK  Name = 
REMARK  1 active torsions:
REMARK  status: ('A' for Active; 'I' for Inactive)
REMARK    1  A    between atoms: C_8  and  C_9
REMARK                            x       y       z     vdW  Elec       q    Type
REMARK                         _______ _______ _______ _____ _____    ______ ____
ROOT
ATOM      1  N   UNL     1     -12.437  16.653  74.912  0.00  0.00    -0.086 NA
ATOM      2  C   UNL     1     -12.530  16.032  73.625  0.00  0.00    +0.259 A 
ATOM      3  N   UNL     1     -11.789  16.452  72.574  0.00  0.00    -0.190 NA
ATOM      4  C   UNL     1     -11.866  15.740  71.426  0.00  0.00    +0.187 A 
ATOM      5  C   UNL     1     -12.387  14.453  71.472  0.00  0.00    +0.152 A 
ATOM      6  N   UNL     1     -12.174  13.600  70.442  0.00  0.00    -0.236 NA
ATOM      7  C   UNL     1     -11.527  14.113  69.368  0.00  0.00    +0.116 A 
ATOM      8  C   UNL     1     -11.562  15.488  69.166  0.00  0.00    +0.189 A 
ATOM      9  N   UNL     1     -11.583  15.972  67.816  0.00  0.00    -0.106 NA
ATOM     10  C   UNL     1     -13.214  14.052  72.513  0.00  0.00    +0.193 A 
ATOM     11  N   UNL     1     -14.140  12.970  72.367  0.00  0.00    -0.105 NA
ATOM     12  N   UNL     1     -11.643  16.325  70.224  0.00  0.00    -0.205 NA
ATOM     13  N   UNL     1     -13.241  14.882  73.585  0.00  0.00    -0.191 NA
ENDROOT
BRANCH   7  14
ATOM     14  C   UNL     1     -10.952  13.222  68.354  0.00  0.00    +0.021 A 
ATOM     15  C   UNL     1     -11.708  12.170  67.855  0.00  0.00    +0.002 A 
ATOM     16  C   UNL     1     -11.143  11.473  66.797  0.00  0.00    +0.000 A 
ATOM     17  C   UNL     1      -9.822  11.701  66.433  0.00  0.00    +0.000 A 
ATOM     18  C   UNL     1      -9.009  12.252  67.394  0.00  0.00    +0.000 A 
ATOM     19  C   UNL     1      -9.590  13.058  68.335  0.00  0.00    +0.002 A 
ENDBRANCH   7  14
TORSDOF 1
ENDMDL
MODEL 4
REMARK VINA RESULT:      -6.9      2.852      4.638
REMARK  Name = 
REMARK  1 active torsions:
REMARK  status: ('A' for Active; 'I' for Inactive)
REMARK    1  A    between atoms: C_8  and  C_9
REMARK                            x       y       z     vdW  Elec       q    Type
REMARK                         _______ _______ _______ _____ _____    ______ ____
ROOT
ATOM      1  N   UNL     1     -13.167  12.182  64.506  0.00  0.00    -0.086 NA
ATOM      2  C   UNL     1     -12.615  13.334  65.156  0.00  0.00    +0.259 A 
ATOM      3  N   UNL     1     -12.205  13.299  66.444  0.00  0.00    -0.190 NA
ATOM      4  C   UNL     1     -11.602  14.403  66.941  0.00  0.00    +0.187 A 
ATOM      5  C   UNL     1     -11.112  15.353  66.055  0.00  0.00    +0.152 A 
ATOM      6  N   UNL     1     -10.222  16.281  66.481  0.00  0.00    -0.236 NA
ATOM      7  C   UNL     1      -9.939  16.270  67.806  0.00  0.00    +0.116 A 
ATOM      8  C   UNL     1     -10.865  15.709  68.678  0.00  0.00    +0.189 A 
ATOM      9  N   UNL     1     -11.000  16.288  69.983  0.00  0.00    -0.106 NA
ATOM     10  C   UNL     1     -11.595  15.437  64.756  0.00  0.00    +0.193 A 
ATOM     11  N   UNL     1     -11.506  16.645  63.993  0.00  0.00    -0.105 NA
ATOM     12  N   UNL     1     -11.653  14.692  68.265  0.00  0.00    -0.205 NA
ATOM     13  N   UNL     1     -12.341  14.382  64.346  0.00  0.00    -0.191 NA
ENDROOT
BRANCH   7  14
ATOM     14  C   UNL     1      -8.766  16.987  68.319  0.00  0.00    +0.021 A 
ATOM     15  C   UNL     1      -8.606  18.336  68.033  0.00  0.00    +0.002 A 
ATOM     16  C   UNL     1      -7.551  18.965  68.679  0.00  0.00    +0.000 A 
ATOM     17  C   UNL     1      -6.615  18.220  69.384  0.00  0.00    +0.000 A 
ATOM     18  C   UNL     1      -6.507  16.893  69.042  0.00  0.00    +0.000 A 
ATOM     19  C   UNL     1      -7.619  16.270  68.545  0.00  0.00    +0.002 A 
ENDBRANCH   7  14
TORSDOF 1
ENDMDL
MODEL 5
REMARK VINA RESULT:      -6.7      2.386      4.376
REMARK  Name = 
REMARK  1 active torsions:
REMARK  status: ('A' for Active; 'I' for Inactive)
REMARK    1  A    between atoms: C_8  and  C_9
REMARK                            x       y       z     vdW  Elec       q    Type
REMARK                         _______ _______ _______ _____ _____    ______ ____
ROOT
ATOM      1  N   UNL     1      -6.927  17.739  65.643  0.00  0.00    -0.086 NA
ATOM      2  C   UNL     1      -8.142  17.378  66.312  0.00  0.00    +0.259 A 
ATOM      3  N   UNL     1      -8.332  16.143  66.830  0.00  0.00    -0.190 NA
ATOM      4  C   UNL     1      -9.467  15.925  67.534  0.00  0.00    +0.187 A 
ATOM      5  C   UNL     1     -10.186  17.020  67.997  0.00  0.00    +0.152 A 
ATOM      6  N   UNL     1     -11.114  16.857  68.970  0.00  0.00    -0.236 NA
ATOM      7  C   UNL     1     -11.344  15.582  69.366  0.00  0.00    +0.116 A 
ATOM      8  C   UNL     1     -11.033  14.548  68.491  0.00  0.00    +0.189 A 
ATOM      9  N   UNL     1     -11.865  13.381  68.502  0.00  0.00    -0.106 NA
ATOM     10  C   UNL     1     -10.047  18.269  67.407  0.00  0.00    +0.193 A 
ATOM     11  N   UNL     1     -11.072  19.264  67.496  0.00  0.00    -0.105 NA
ATOM     12  N   UNL     1     -10.012  14.688  67.615  0.00  0.00    -0.205 NA
ATOM     13  N   UNL     1      -8.988  18.401  66.572  0.00  0.00    -0.191 NA
ENDROOT
BRANCH   7  14
ATOM     14  C   UNL     1     -12.062  15.313  70.617  0.00  0.00    +0.021 A 
ATOM     15  C   UNL     1     -13.446  15.407  70.649  0.00  0.00    +0.002 A 
ATOM     16  C   UNL     1     -14.050  14.993  71.827  0.00  0.00    +0.000 A 
ATOM     17  C   UNL     1     -13.280  14.715  72.950  0.00  0.00    +0.000 A 
ATOM     18  C   UNL     1     -12.031  15.287  72.991  0.00  0.00    +0.000 A 
ATOM     19  C   UNL     1     -11.407  15.543  71.800  0.00  0.00    +0.002 A 
ENDBRANCH   7  14
TORSDOF 1
ENDMDL
MODEL 6
REMARK VINA RESULT:      -6.7      1.740      6.372
REMARK  Name = 
REMARK  1 active torsions:
REMARK  status: ('A' for Active; 'I' for Inactive)
REMARK    1  A    between atoms: C_8  and  C_9
REMARK                            x       y       z     vdW  Elec       q    Type
REMARK                         _______ _______ _______ _____ _____    ______ ____
ROOT
ATOM      1  N   UNL     1     -13.591  15.930  72.489  0.00  0.00    -0.086 NA
ATOM      2  C   UNL     1     -12.829  15.376  71.409  0.00  0.00    +0.259 A 
ATOM      3  N   UNL     1     -12.999  14.099  70.998  0.00  0.00    -0.190 NA
ATOM      4  C   UNL     1     -12.311  13.695  69.905  0.00  0.00    +0.187 A 
ATOM      5  C   UNL     1     -11.768  14.657  69.064  0.00  0.00    +0.152 A 
ATOM      6  N   UNL     1     -11.378  14.319  67.812  0.00  0.00    -0.236 NA
ATOM      7  C   UNL     1     -11.462  13.004  67.497  0.00  0.00    +0.116 A 
ATOM      8  C   UNL     1     -11.453  12.072  68.528  0.00  0.00    +0.189 A 
ATOM      9  N   UNL     1     -10.820  10.808  68.291  0.00  0.00    -0.106 NA
ATOM     10  C   UNL     1     -11.520  15.946  69.516  0.00  0.00    +0.193 A 
ATOM     11  N   UNL     1     -10.551  16.793  68.890  0.00  0.00    -0.105 NA
ATOM     12  N   UNL     1     -11.971  12.394  69.735  0.00  0.00    -0.205 NA
ATOM     13  N   UNL     1     -12.091  16.264  70.704  0.00  0.00    -0.191 NA
ENDROOT
BRANCH   7  14
ATOM     14  C   UNL     1     -11.390  12.571  66.097  0.00  0.00    +0.021 A 
ATOM     15  C   UNL     1     -10.158  12.501  65.461  0.00  0.00    +0.002 A 
ATOM     16  C   UNL     1     -10.168  11.942  64.191  0.00  0.00    +0.000 A 
ATOM     17  C   UNL     1     -11.372  11.683  63.549  0.00  0.00    +0.000 A 
ATOM     18  C   UNL     1     -12.464  12.392  63.987  0.00  0.00    +0.000 A 
ATOM     19  C   UNL     1     -12.479  12.797  65.294  0.00  0.00    +0.002 A 
ENDBRANCH   7  14
TORSDOF 1
ENDMDL
MODEL 7
REMARK VINA RESULT:      -6.6      1.550      3.064
REMARK  Name = 
REMARK  1 active torsions:
REMARK  status: ('A' for Active; 'I' for Inactive)
REMARK    1  A    between atoms: C_8  and  C_9
REMARK                            x       y       z     vdW  Elec       q    Type
REMARK                         _______ _______ _______ _____ _____    ______ ____
ROOT
ATOM      1  N   UNL     1      -9.142  10.955  65.254  0.00  0.00    -0.086 NA
ATOM      2  C   UNL     1     -10.107  11.467  66.181  0.00  0.00    +0.259 A 
ATOM      3  N   UNL     1     -10.070  11.151  67.496  0.00  0.00    -0.190 NA
ATOM      4  C   UNL     1     -10.958  11.763  68.314  0.00  0.00    +0.187 A 
ATOM      5  C   UNL     1     -11.597  12.912  67.866  0.00  0.00    +0.152 A 
ATOM      6  N   UNL     1     -12.217  13.729  68.750  0.00  0.00    -0.236 NA
ATOM      7  C   UNL     1     -12.249  13.302  70.035  0.00  0.00    +0.116 A 
ATOM      8  C   UNL     1     -12.117  11.941  70.286  0.00  0.00    +0.189 A 
ATOM      9  N   UNL     1     -12.839  11.386  71.394  0.00  0.00    -0.106 NA
ATOM     10  C   UNL     1     -11.703  13.190  66.510  0.00  0.00    +0.193 A 
ATOM     11  N   UNL     1     -12.729  14.043  65.991  0.00  0.00    -0.105 NA
ATOM     12  N   UNL     1     -11.381  11.169  69.456  0.00  0.00    -0.205 NA
ATOM     13  N   UNL     1     -10.917  12.437  65.701  0.00  0.00    -0.191 NA
ENDROOT
BRANCH   7  14
ATOM     14  C   UNL     1     -12.587  14.233  71.117  0.00  0.00    +0.021 A 
ATOM     15  C   UNL     1     -13.880  14.726  71.222  0.00  0.00    +0.002 A 
ATOM     16  C   UNL     1     -14.146  15.480  72.356  0.00  0.00    +0.000 A 
ATOM     17  C   UNL     1     -13.111  15.873  73.195  0.00  0.00    +0.000 A 
ATOM     18  C   UNL     1     -11.853  15.896  72.645  0.00  0.00    +0.000 A 
ATOM     19  C   UNL     1     -11.588  15.027  71.621  0.00  0.00    +0.002 A 
ENDBRANCH   7  14
TORSDOF 1
ENDMDL
MODEL 8
REMARK VINA RESULT:      -6.6      3.116      6.052
REMARK  Name = 
REMARK  1 active torsions:
REMARK  status: ('A' for Active; 'I' for Inactive)
REMARK    1  A    between atoms: C_8  and  C_9
REMARK                            x       y       z     vdW  Elec       q    Type
REMARK                         _______ _______ _______ _____ _____    ______ ____
ROOT
ATOM      1  N   UNL     1      -9.679  19.844  66.829  0.00  0.00    -0.086 NA
ATOM      2  C   UNL     1     -10.209  18.513  66.825  0.00  0.00    +0.259 A 
ATOM      3  N   UNL     1     -10.086  17.699  65.752  0.00  0.00    -0.190 NA
ATOM      4  C   UNL     1     -10.526  16.425  65.876  0.00  0.00    +0.187 A 
ATOM      5  C   UNL     1     -10.734  15.912  67.150  0.00  0.00    +0.152 A 
ATOM      6  N   UNL     1     -10.840  14.575  67.331  0.00  0.00    -0.236 NA
ATOM      7  C   UNL     1     -10.828  13.818  66.207  0.00  0.00    +0.116 A 
ATOM      8  C   UNL     1     -11.193  14.411  65.004  0.00  0.00    +0.189 A 
ATOM      9  N   UNL     1     -11.885  13.608  64.039  0.00  0.00    -0.106 NA
ATOM     10  C   UNL     1     -10.941  16.753  68.236  0.00  0.00    +0.193 A 
ATOM     11  N   UNL     1     -11.627  16.312  69.412  0.00  0.00    -0.105 NA
ATOM     12  N   UNL     1     -10.955  15.726  64.798  0.00  0.00    -0.205 NA
ATOM     13  N   UNL     1     -10.647  18.059  68.022  0.00  0.00    -0.191 NA
ENDROOT
BRANCH   7  14
ATOM     14  C   UNL     1     -10.601  12.371  66.290  0.00  0.00    +0.021 A 
ATOM     15  C   UNL     1     -11.159  11.647  67.335  0.00  0.00    +0.002 A 
ATOM     16  C   UNL     1     -11.018  10.269  67.252  0.00  0.00    +0.000 A 
ATOM     17  C   UNL     1     -10.186   9.705  66.294  0.00  0.00    +0.000 A 
ATOM     18  C   UNL     1      -9.206  10.519  65.779  0.00  0.00    +0.000 A 
ATOM     19  C   UNL     1      -9.449  11.865  65.743  0.00  0.00    +0.002 A 
ENDBRANCH   7  14
TORSDOF 1
ENDMDL
MODEL 9
REMARK VINA RESULT:      -6.6      3.309      5.315
REMARK  Name = 
REMARK  1 active torsions:
REMARK  status: ('A' for Active; 'I' for Inactive)
REMARK    1  A    between atoms: C_8  and  C_9
REMARK                            x       y       z     vdW  Elec       q    Type
REMARK                         _______ _______ _______ _____ _____    ______ ____
ROOT
ATOM      1  N   UNL     1     -10.530  17.525  68.936  0.00  0.00    -0.086 NA
ATOM      2  C   UNL     1     -11.145  16.257  69.196  0.00  0.00    +0.259 A 
ATOM      3  N   UNL     1     -10.624  15.101  68.725  0.00  0.00    -0.190 NA
ATOM      4  C   UNL     1     -11.214  13.945  69.107  0.00  0.00    +0.187 A 
ATOM      5  C   UNL     1     -12.057  13.959  70.210  0.00  0.00    +0.152 A 
ATOM      6  N   UNL     1     -12.390  12.797  70.822  0.00  0.00    -0.236 NA
ATOM      7  C   UNL     1     -11.935  11.663  70.235  0.00  0.00    +0.116 A 
ATOM      8  C   UNL     1     -11.616  11.697  68.882  0.00  0.00    +0.189 A 
ATOM      9  N   UNL     1     -11.856  10.518  68.103  0.00  0.00    -0.106 NA
ATOM     10  C   UNL     1     -12.654  15.136  70.641  0.00  0.00    +0.193 A 
ATOM     11  N   UNL     1     -13.861  15.133  71.411  0.00  0.00    -0.105 NA
ATOM     12  N   UNL     1     -11.160  12.840  68.324  0.00  0.00    -0.205 NA
ATOM     13  N   UNL     1     -12.146  16.273  70.105  0.00  0.00    -0.191 NA
ENDROOT
BRANCH   7  14
ATOM     14  C   UNL     1     -11.943  10.394  70.971  0.00  0.00    +0.021 A 
ATOM     15  C   UNL     1     -10.844   9.550  70.897  0.00  0.00    +0.002 A 
ATOM     16  C   UNL     1     -10.876   8.447  71.739  0.00  0.00    +0.000 A 
ATOM     17  C   UNL     1     -12.037   8.126  72.431  0.00  0.00    +0.000 A 
ATOM     18  C   UNL     1     -13.211   8.624  71.919  0.00  0.00    +0.000 A 
ATOM     19  C   UNL     1     -13.154   9.799  71.219  0.00  0.00    +0.002 A 
ENDBRANCH   7  14
TORSDOF 1
ENDMDL
