MODEL 1
REMARK VINA RESULT:      -6.1      0.000      0.000
REMARK  Name = 
REMARK  5 active torsions:
REMARK  status: ('A' for Active; 'I' for Inactive)
REMARK    1  A    between atoms: C_2  and  C_4
REMARK    2  A    between atoms: C_4  and  S_5
REMARK    3  A    between atoms: S_5  and  C_7
REMARK    4  A    between atoms: C_7  and  C_8
REMARK    5  A    between atoms: C_7  and  C_14
REMARK                            x       y       z     vdW  Elec       q    Type
REMARK                         _______ _______ _______ _____ _____    ______ ____
ROOT
ATOM      1  C   UNL     1     -11.792  15.561  68.793  0.00  0.00    +0.124 C 
ENDROOT
BRANCH   1   2
ATOM      2  C   UNL     1     -11.424  14.321  68.085  0.00  0.00    -0.006 A 
ATOM      3  C   UNL     1     -12.093  13.980  66.924  0.00  0.00    -0.003 A 
ATOM      4  C   UNL     1     -11.908  12.769  66.303  0.00  0.00    -0.000 A 
ATOM      5  C   UNL     1     -11.470  11.716  67.091  0.00  0.00    -0.000 A 
ATOM      6  C   UNL     1     -10.726  12.004  68.206  0.00  0.00    -0.000 A 
ATOM      7  C   UNL     1     -10.768  13.281  68.730  0.00  0.00    -0.003 A 
ENDBRANCH   1   2
BRANCH   1   8
ATOM      8  C   UNL     1     -12.119  15.317  70.234  0.00  0.00    -0.006 A 
ATOM      9  C   UNL     1     -13.212  14.547  70.612  0.00  0.00    -0.003 A 
ATOM     10  C   UNL     1     -13.743  14.606  71.896  0.00  0.00    -0.000 A 
ATOM     11  C   UNL     1     -13.394  15.735  72.627  0.00  0.00    -0.000 A 
ATOM     12  C   UNL     1     -12.077  16.152  72.476  0.00  0.00    -0.000 A 
ATOM     13  C   UNL     1     -11.437  15.935  71.262  0.00  0.00    -0.003 A 
ENDBRANCH   1   8
BRANCH   1  14
ATOM     14  S   UNL     1     -10.375  16.727  68.837  0.00  0.00    +0.059 S 
ATOM     15  O   UNL     1     -11.010  17.977  68.167  0.00  0.00    -0.255 OA
BRANCH  14  16
ATOM     16  C   UNL     1      -9.335  16.111  67.452  0.00  0.00    +0.180 C 
BRANCH  16  18
ATOM     17  N   UNL     1      -8.513  17.906  66.006  0.00  0.00    -0.087 NA
ATOM     18  C   UNL     1      -9.611  17.109  66.367  0.00  0.00    +0.274 C 
ATOM     19  O   UNL     1     -10.255  16.625  65.385  0.00  0.00    -0.271 OA
ENDBRANCH  16  18
ENDBRANCH  14  16
ENDBRANCH   1  14
TORSDOF 5
ENDMDL
MODEL 2
REMARK VINA RESULT:      -6.1      2.523      3.376
REMARK  Name = 
REMARK  5 active torsions:
REMARK  status: ('A' for Active; 'I' for Inactive)
REMARK    1  A    between atoms: C_2  and  C_4
REMARK    2  A    between atoms: C_4  and  S_5
REMARK    3  A    between atoms: S_5  and  C_7
REMARK    4  A    between atoms: C_7  and  C_8
REMARK    5  A    between atoms: C_7  and  C_14
REMARK                            x       y       z     vdW  Elec       q    Type
REMARK                         _______ _______ _______ _____ _____    ______ ____
ROOT
ATOM      1  C   UNL     1     -12.620  13.360  69.837  0.00  0.00    +0.124 C 
ENDROOT
BRANCH   1   2
ATOM      2  C   UNL     1     -12.194  12.094  70.459  0.00  0.00    -0.006 A 
ATOM      3  C   UNL     1     -11.267  11.299  69.809  0.00  0.00    -0.003 A 
ATOM      4  C   UNL     1     -10.944  10.040  70.253  0.00  0.00    -0.000 A 
ATOM      5  C   UNL     1     -11.894   9.377  71.017  0.00  0.00    -0.000 A 
ATOM      6  C   UNL     1     -12.778  10.128  71.749  0.00  0.00    -0.000 A 
ATOM      7  C   UNL     1     -12.970  11.453  71.416  0.00  0.00    -0.003 A 
ENDBRANCH   1   2
BRANCH   1   8
ATOM      8  C   UNL     1     -12.751  14.468  70.837  0.00  0.00    -0.006 A 
ATOM      9  C   UNL     1     -11.659  14.923  71.566  0.00  0.00    -0.003 A 
ATOM     10  C   UNL     1     -11.813  15.669  72.729  0.00  0.00    -0.000 A 
ATOM     11  C   UNL     1     -13.067  15.586  73.322  0.00  0.00    -0.000 A 
ATOM     12  C   UNL     1     -14.138  15.581  72.437  0.00  0.00    -0.000 A 
ATOM     13  C   UNL     1     -13.970  15.015  71.180  0.00  0.00    -0.003 A 
ENDBRANCH   1   8
BRANCH   1  14
ATOM     14  S   UNL     1     -11.352  13.959  68.653  0.00  0.00    +0.059 S 
ATOM     15  O   UNL     1     -11.917  15.367  68.315  0.00  0.00    -0.255 OA
BRANCH  14  16
ATOM     16  C   UNL     1     -11.807  13.052  67.121  0.00  0.00    +0.180 C 
BRANCH  16  18
ATOM     17  N   UNL     1     -10.877  14.455  65.344  0.00  0.00    -0.087 NA
ATOM     18  C   UNL     1     -12.003  14.161  66.130  0.00  0.00    +0.274 C 
ATOM     19  O   UNL     1     -13.089  14.072  65.478  0.00  0.00    -0.271 OA
ENDBRANCH  16  18
ENDBRANCH  14  16
ENDBRANCH   1  14
TORSDOF 5
ENDMDL
MODEL 3
REMARK VINA RESULT:      -6.0      2.548      4.807
REMARK  Name = 
REMARK  5 active torsions:
REMARK  status: ('A' for Active; 'I' for Inactive)
REMARK    1  A    between atoms: C_2  and  C_4
REMARK    2  A    between atoms: C_4  and  S_5
REMARK    3  A    between atoms: S_5  and  C_7
REMARK    4  A    between atoms: C_7  and  C_8
REMARK    5  A    between atoms: C_7  and  C_14
REMARK                            x       y       z     vdW  Elec       q    Type
REMARK                         _______ _______ _______ _____ _____    ______ ____
ROOT
ATOM      1  C   UNL     1     -11.337  15.977  67.851  0.00  0.00    +0.124 C 
ENDROOT
BRANCH   1   2
ATOM      2  C   UNL     1     -11.431  15.396  69.202  0.00  0.00    -0.006 A 
ATOM      3  C   UNL     1     -11.967  14.130  69.359  0.00  0.00    -0.003 A 
ATOM      4  C   UNL     1     -12.226  13.594  70.597  0.00  0.00    -0.000 A 
ATOM      5  C   UNL     1     -12.439  14.485  71.638  0.00  0.00    -0.000 A 
ATOM      6  C   UNL     1     -11.851  15.722  71.566  0.00  0.00    -0.000 A 
ATOM      7  C   UNL     1     -11.421  16.190  70.341  0.00  0.00    -0.003 A 
ENDBRANCH   1   2
BRANCH   1   8
ATOM      8  C   UNL     1     -10.262  17.015  67.753  0.00  0.00    -0.006 A 
ATOM      9  C   UNL     1      -8.949  16.740  68.113  0.00  0.00    -0.003 A 
ATOM     10  C   UNL     1      -8.033  17.752  68.379  0.00  0.00    -0.000 A 
ATOM     11  C   UNL     1      -8.590  18.995  68.655  0.00  0.00    -0.000 A 
ATOM     12  C   UNL     1      -9.688  19.335  67.875  0.00  0.00    -0.000 A 
ATOM     13  C   UNL     1     -10.530  18.327  67.420  0.00  0.00    -0.003 A 
ENDBRANCH   1   8
BRANCH   1  14
ATOM     14  S   UNL     1     -10.850  14.697  66.628  0.00  0.00    +0.059 S 
ATOM     15  O   UNL     1     -10.281  15.589  65.489  0.00  0.00    -0.255 OA
BRANCH  14  16
ATOM     16  C   UNL     1     -12.472  14.235  65.898  0.00  0.00    +0.180 C 
BRANCH  16  18
ATOM     17  N   UNL     1     -11.903  11.925  66.471  0.00  0.00    -0.087 NA
ATOM     18  C   UNL     1     -12.237  12.825  65.446  0.00  0.00    +0.274 C 
ATOM     19  O   UNL     1     -13.120  12.397  64.639  0.00  0.00    -0.271 OA
ENDBRANCH  16  18
ENDBRANCH  14  16
ENDBRANCH   1  14
TORSDOF 5
ENDMDL
MODEL 4
REMARK VINA RESULT:      -5.9      3.233      5.284
REMARK  Name = 
REMARK  5 active torsions:
REMARK  status: ('A' for Active; 'I' for Inactive)
REMARK    1  A    between atoms: C_2  and  C_4
REMARK    2  A    between atoms: C_4  and  S_5
REMARK    3  A    between atoms: S_5  and  C_7
REMARK    4  A    between atoms: C_7  and  C_8
REMARK    5  A    between atoms: C_7  and  C_14
REMARK                            x       y       z     vdW  Elec       q    Type
REMARK                         _______ _______ _______ _____ _____    ______ ____
ROOT
ATOM      1  C   UNL     1     -11.400  13.827  69.889  0.00  0.00    +0.124 C 
ENDROOT
BRANCH   1   2
ATOM      2  C   UNL     1     -11.984  12.511  70.203  0.00  0.00    -0.006 A 
ATOM      3  C   UNL     1     -12.783  12.375  71.324  0.00  0.00    -0.003 A 
ATOM      4  C   UNL     1     -13.230  11.152  71.760  0.00  0.00    -0.000 A 
ATOM      5  C   UNL     1     -12.478  10.042  71.403  0.00  0.00    -0.000 A 
ATOM      6  C   UNL     1     -11.739  10.101  70.250  0.00  0.00    -0.000 A 
ATOM      7  C   UNL     1     -11.441  11.334  69.705  0.00  0.00    -0.003 A 
ENDBRANCH   1   2
BRANCH   1   8
ATOM      8  C   UNL     1     -11.160  14.006  68.422  0.00  0.00    -0.006 A 
ATOM      9  C   UNL     1     -12.177  13.837  67.491  0.00  0.00    -0.003 A 
ATOM     10  C   UNL     1     -11.911  13.637  66.141  0.00  0.00    -0.000 A 
ATOM     11  C   UNL     1     -10.618  13.220  65.849  0.00  0.00    -0.000 A 
ATOM     12  C   UNL     1      -9.619  13.829  66.599  0.00  0.00    -0.000 A 
ATOM     13  C   UNL     1      -9.901  14.226  67.900  0.00  0.00    -0.003 A 
ENDBRANCH   1   8
BRANCH   1  14
ATOM     14  S   UNL     1     -12.567  15.175  70.329  0.00  0.00    +0.059 S 
ATOM     15  O   UNL     1     -12.090  16.295  69.363  0.00  0.00    -0.255 OA
BRANCH  14  16
ATOM     16  C   UNL     1     -11.858  15.787  71.910  0.00  0.00    +0.180 C 
BRANCH  16  18
ATOM     17  N   UNL     1     -12.808  16.235  74.120  0.00  0.00    -0.087 NA
ATOM     18  C   UNL     1     -13.012  15.653  72.859  0.00  0.00    +0.274 C 
ATOM     19  O   UNL     1     -14.136  15.923  72.332  0.00  0.00    -0.271 OA
ENDBRANCH  16  18
ENDBRANCH  14  16
ENDBRANCH   1  14
TORSDOF 5
ENDMDL
MODEL 5
REMARK VINA RESULT:      -5.9      2.906      5.001
REMARK  Name = 
REMARK  5 active torsions:
REMARK  status: ('A' for Active; 'I' for Inactive)
REMARK    1  A    between atoms: C_2  and  C_4
REMARK    2  A    between atoms: C_4  and  S_5
REMARK    3  A    between atoms: S_5  and  C_7
REMARK    4  A    between atoms: C_7  and  C_8
REMARK    5  A    between atoms: C_7  and  C_14
REMARK                            x       y       z     vdW  Elec       q    Type
REMARK                         _______ _______ _______ _____ _____    ______ ____
ROOT
ATOM      1  C   UNL     1     -10.753  14.785  69.082  0.00  0.00    +0.124 C 
ENDROOT
BRANCH   1   2
ATOM      2  C   UNL     1     -11.335  13.838  68.114  0.00  0.00    -0.006 A 
ATOM      3  C   UNL     1     -10.833  12.551  68.039  0.00  0.00    -0.003 A 
ATOM      4  C   UNL     1     -11.222  11.671  67.060  0.00  0.00    -0.000 A 
ATOM      5  C   UNL     1     -11.697  12.214  65.875  0.00  0.00    -0.000 A 
ATOM      6  C   UNL     1     -12.283  13.453  65.918  0.00  0.00    -0.000 A 
ATOM      7  C   UNL     1     -12.038  14.275  66.999  0.00  0.00    -0.003 A 
ENDBRANCH   1   2
BRANCH   1   8
ATOM      8  C   UNL     1     -10.091  15.948  68.412  0.00  0.00    -0.006 A 
ATOM      9  C   UNL     1     -10.661  17.215  68.421  0.00  0.00    -0.003 A 
ATOM     10  C   UNL     1     -10.272  18.202  67.522  0.00  0.00    -0.000 A 
ATOM     11  C   UNL     1      -9.603  17.742  66.393  0.00  0.00    -0.000 A 
ATOM     12  C   UNL     1      -8.697  16.714  66.623  0.00  0.00    -0.000 A 
ATOM     13  C   UNL     1      -8.950  15.810  67.648  0.00  0.00    -0.003 A 
ENDBRANCH   1   8
BRANCH   1  14
ATOM     14  S   UNL     1     -12.067  15.540  70.118  0.00  0.00    +0.059 S 
ATOM     15  O   UNL     1     -11.280  15.802  71.433  0.00  0.00    -0.255 OA
BRANCH  14  16
ATOM     16  C   UNL     1     -13.049  14.069  70.616  0.00  0.00    +0.180 C 
BRANCH  16  18
ATOM     17  N   UNL     1     -14.688  15.522  71.707  0.00  0.00    -0.087 NA
ATOM     18  C   UNL     1     -13.710  14.530  71.881  0.00  0.00    +0.274 C 
ATOM     19  O   UNL     1     -14.058  13.579  72.647  0.00  0.00    -0.271 OA
ENDBRANCH  16  18
ENDBRANCH  14  16
ENDBRANCH   1  14
TORSDOF 5
ENDMDL
MODEL 6
REMARK VINA RESULT:      -5.8      2.211      4.383
REMARK  Name = 
REMARK  5 active torsions:
REMARK  status: ('A' for Active; 'I' for Inactive)
REMARK    1  A    between atoms: C_2  and  C_4
REMARK    2  A    between atoms: C_4  and  S_5
REMARK    3  A    between atoms: S_5  and  C_7
REMARK    4  A    between atoms: C_7  and  C_8
REMARK    5  A    between atoms: C_7  and  C_14
REMARK                            x       y       z     vdW  Elec       q    Type
REMARK                         _______ _______ _______ _____ _____    ______ ____
ROOT
ATOM      1  C   UNL     1     -10.730  16.238  67.293  0.00  0.00    +0.124 C 
ENDROOT
BRANCH   1   2
ATOM      2  C   UNL     1     -11.084  15.441  68.481  0.00  0.00    -0.006 A 
ATOM      3  C   UNL     1     -11.131  14.062  68.382  0.00  0.00    -0.003 A 
ATOM      4  C   UNL     1     -11.601  13.271  69.402  0.00  0.00    -0.000 A 
ATOM      5  C   UNL     1     -12.491  13.854  70.293  0.00  0.00    -0.000 A 
ATOM      6  C   UNL     1     -12.420  15.209  70.489  0.00  0.00    -0.000 A 
ATOM      7  C   UNL     1     -11.783  15.991  69.547  0.00  0.00    -0.003 A 
ENDBRANCH   1   2
BRANCH   1   8
ATOM      8  C   UNL     1     -10.210  17.595  67.654  0.00  0.00    -0.006 A 
ATOM      9  C   UNL     1     -10.740  18.750  67.093  0.00  0.00    -0.003 A 
ATOM     10  C   UNL     1     -10.056  19.961  67.122  0.00  0.00    -0.000 A 
ATOM     11  C   UNL     1      -8.691  19.862  67.367  0.00  0.00    -0.000 A 
ATOM     12  C   UNL     1      -8.330  18.917  68.320  0.00  0.00    -0.000 A 
ATOM     13  C   UNL     1      -9.105  17.773  68.460  0.00  0.00    -0.003 A 
ENDBRANCH   1   8
BRANCH   1  14
ATOM     14  S   UNL     1      -9.352  15.449  66.372  0.00  0.00    +0.059 S 
ATOM     15  O   UNL     1      -8.781  16.674  65.604  0.00  0.00    -0.255 OA
BRANCH  14  16
ATOM     16  C   UNL     1     -10.244  14.601  65.008  0.00  0.00    +0.180 C 
BRANCH  16  18
ATOM     17  N   UNL     1     -11.495  16.451  64.008  0.00  0.00    -0.087 NA
ATOM     18  C   UNL     1     -11.522  15.382  64.917  0.00  0.00    +0.274 C 
ATOM     19  O   UNL     1     -12.558  14.652  64.839  0.00  0.00    -0.271 OA
ENDBRANCH  16  18
ENDBRANCH  14  16
ENDBRANCH   1  14
TORSDOF 5
ENDMDL
MODEL 7
REMARK VINA RESULT:      -5.8      2.991      4.792
REMARK  Name = 
REMARK  5 active torsions:
REMARK  status: ('A' for Active; 'I' for Inactive)
REMARK    1  A    between atoms: C_2  and  C_4
REMARK    2  A    between atoms: C_4  and  S_5
REMARK    3  A    between atoms: S_5  and  C_7
REMARK    4  A    between atoms: C_7  and  C_8
REMARK    5  A    between atoms: C_7  and  C_14
REMARK                            x       y       z     vdW  Elec       q    Type
REMARK                         _______ _______ _______ _____ _____    ______ ____
ROOT
ATOM      1  C   UNL     1     -10.823  15.991  66.781  0.00  0.00    +0.124 C 
ENDROOT
BRANCH   1   2
ATOM      2  C   UNL     1     -10.674  14.812  67.653  0.00  0.00    -0.006 A 
ATOM      3  C   UNL     1      -9.751  13.837  67.322  0.00  0.00    -0.003 A 
ATOM      4  C   UNL     1      -9.671  12.646  68.001  0.00  0.00    -0.000 A 
ATOM      5  C   UNL     1     -10.816  12.212  68.652  0.00  0.00    -0.000 A 
ATOM      6  C   UNL     1     -11.718  13.153  69.077  0.00  0.00    -0.000 A 
ATOM      7  C   UNL     1     -11.682  14.416  68.522  0.00  0.00    -0.003 A 
ENDBRANCH   1   2
BRANCH   1   8
ATOM      8  C   UNL     1      -9.663  16.931  66.893  0.00  0.00    -0.006 A 
ATOM      9  C   UNL     1      -8.450  16.668  66.269  0.00  0.00    -0.003 A 
ATOM     10  C   UNL     1      -7.276  17.311  66.645  0.00  0.00    -0.000 A 
ATOM     11  C   UNL     1      -7.304  17.902  67.903  0.00  0.00    -0.000 A 
ATOM     12  C   UNL     1      -8.496  18.537  68.229  0.00  0.00    -0.000 A 
ATOM     13  C   UNL     1      -9.687  18.040  67.713  0.00  0.00    -0.003 A 
ENDBRANCH   1   8
BRANCH   1  14
ATOM     14  S   UNL     1     -10.839  15.491  65.014  0.00  0.00    +0.059 S 
ATOM     15  O   UNL     1     -11.168  16.849  64.334  0.00  0.00    -0.255 OA
BRANCH  14  16
ATOM     16  C   UNL     1     -12.468  14.654  64.872  0.00  0.00    +0.180 C 
BRANCH  16  18
ATOM     17  N   UNL     1     -12.354  12.275  65.432  0.00  0.00    -0.087 NA
ATOM     18  C   UNL     1     -12.086  13.261  64.470  0.00  0.00    +0.274 C 
ATOM     19  O   UNL     1     -12.450  12.956  63.291  0.00  0.00    -0.271 OA
ENDBRANCH  16  18
ENDBRANCH  14  16
ENDBRANCH   1  14
TORSDOF 5
ENDMDL
MODEL 8
REMARK VINA RESULT:      -5.8      2.625      3.735
REMARK  Name = 
REMARK  5 active torsions:
REMARK  status: ('A' for Active; 'I' for Inactive)
REMARK    1  A    between atoms: C_2  and  C_4
REMARK    2  A    between atoms: C_4  and  S_5
REMARK    3  A    between atoms: S_5  and  C_7
REMARK    4  A    between atoms: C_7  and  C_8
REMARK    5  A    between atoms: C_7  and  C_14
REMARK                            x       y       z     vdW  Elec       q    Type
REMARK                         _______ _______ _______ _____ _____    ______ ____
ROOT
ATOM      1  C   UNL     1     -11.766  12.262  66.560  0.00  0.00    +0.124 C 
ENDROOT
BRANCH   1   2
ATOM      2  C   UNL     1     -10.548  11.788  65.878  0.00  0.00    -0.006 A 
ATOM      3  C   UNL     1     -10.668  10.984  64.759  0.00  0.00    -0.003 A 
ATOM      4  C   UNL     1      -9.582  10.384  64.170  0.00  0.00    -0.000 A 
ATOM      5  C   UNL     1      -8.474  10.158  64.973  0.00  0.00    -0.000 A 
ATOM      6  C   UNL     1      -8.267  10.989  66.044  0.00  0.00    -0.000 A 
ATOM      7  C   UNL     1      -9.322  11.737  66.527  0.00  0.00    -0.003 A 
ENDBRANCH   1   2
BRANCH   1   8
ATOM      8  C   UNL     1     -11.611  12.283  68.049  0.00  0.00    -0.006 A 
ATOM      9  C   UNL     1     -11.664  11.118  68.804  0.00  0.00    -0.003 A 
ATOM     10  C   UNL     1     -11.890  11.141  70.176  0.00  0.00    -0.000 A 
ATOM     11  C   UNL     1     -12.447  12.318  70.663  0.00  0.00    -0.000 A 
ATOM     12  C   UNL     1     -11.954  13.484  70.091  0.00  0.00    -0.000 A 
ATOM     13  C   UNL     1     -11.531  13.459  68.768  0.00  0.00    -0.003 A 
ENDBRANCH   1   8
BRANCH   1  14
ATOM     14  S   UNL     1     -12.121  14.007  66.112  0.00  0.00    +0.059 S 
ATOM     15  O   UNL     1     -13.240  13.809  65.051  0.00  0.00    -0.255 OA
BRANCH  14  16
ATOM     16  C   UNL     1     -10.703  14.413  65.016  0.00  0.00    +0.180 C 
BRANCH  16  18
ATOM     17  N   UNL     1     -11.234  16.708  64.354  0.00  0.00    -0.087 NA
ATOM     18  C   UNL     1     -10.526  15.885  65.243  0.00  0.00    +0.274 C 
ATOM     19  O   UNL     1     -10.622  16.225  66.463  0.00  0.00    -0.271 OA
ENDBRANCH  16  18
ENDBRANCH  14  16
ENDBRANCH   1  14
TORSDOF 5
ENDMDL
MODEL 9
REMARK VINA RESULT:      -5.7      3.277      5.520
REMARK  Name = 
REMARK  5 active torsions:
REMARK  status: ('A' for Active; 'I' for Inactive)
REMARK    1  A    between atoms: C_2  and  C_4
REMARK    2  A    between atoms: C_4  and  S_5
REMARK    3  A    between atoms: S_5  and  C_7
REMARK    4  A    between atoms: C_7  and  C_8
REMARK    5  A    between atoms: C_7  and  C_14
REMARK                            x       y       z     vdW  Elec       q    Type
REMARK                         _______ _______ _______ _____ _____    ______ ____
ROOT
ATOM      1  C   UNL     1     -11.969  15.288  69.458  0.00  0.00    +0.124 C 
ENDROOT
BRANCH   1   2
ATOM      2  C   UNL     1     -10.658  15.957  69.393  0.00  0.00    -0.006 A 
ATOM      3  C   UNL     1     -10.553  17.180  68.754  0.00  0.00    -0.003 A 
ATOM      4  C   UNL     1      -9.340  17.782  68.523  0.00  0.00    -0.000 A 
ATOM      5  C   UNL     1      -8.228  16.955  68.456  0.00  0.00    -0.000 A 
ATOM      6  C   UNL     1      -8.255  15.772  69.148  0.00  0.00    -0.000 A 
ATOM      7  C   UNL     1      -9.471  15.253  69.544  0.00  0.00    -0.003 A 
ENDBRANCH   1   2
BRANCH   1   8
ATOM      8  C   UNL     1     -12.007  14.032  68.643  0.00  0.00    -0.006 A 
ATOM      9  C   UNL     1     -11.900  12.778  69.232  0.00  0.00    -0.003 A 
ATOM     10  C   UNL     1     -11.568  11.647  68.495  0.00  0.00    -0.000 A 
ATOM     11  C   UNL     1     -10.969  11.897  67.266  0.00  0.00    -0.000 A 
ATOM     12  C   UNL     1     -11.501  12.969  66.559  0.00  0.00    -0.000 A 
ATOM     13  C   UNL     1     -12.026  14.046  67.263  0.00  0.00    -0.003 A 
ENDBRANCH   1   8
BRANCH   1  14
ATOM     14  S   UNL     1     -12.329  14.733  71.170  0.00  0.00    +0.059 S 
ATOM     15  O   UNL     1     -13.882  14.798  71.174  0.00  0.00    -0.255 OA
BRANCH  14  16
ATOM     16  C   UNL     1     -11.940  16.240  72.146  0.00  0.00    +0.180 C 
BRANCH  16  18
ATOM     17  N   UNL     1     -12.213  14.666  74.000  0.00  0.00    -0.087 NA
ATOM     18  C   UNL     1     -12.543  15.929  73.483  0.00  0.00    +0.274 C 
ATOM     19  O   UNL     1     -12.442  16.880  74.319  0.00  0.00    -0.271 OA
ENDBRANCH  16  18
ENDBRANCH  14  16
ENDBRANCH   1  14
TORSDOF 5
ENDMDL
