MODEL 1
REMARK VINA RESULT:      -7.4      0.000      0.000
REMARK  Name = 
REMARK  7 active torsions:
REMARK  status: ('A' for Active; 'I' for Inactive)
REMARK    1  A    between atoms: C_2  and  C_4
REMARK    2  A    between atoms: C_2  and  C_15
REMARK    3  A    between atoms: C_4  and  S_5
REMARK    4  A    between atoms: S_5  and  C_8
REMARK    5  A    between atoms: N_17  and  C_18
REMARK    6  A    between atoms: C_21  and  C_22
REMARK    7  A    between atoms: C_24  and  C_25
REMARK                            x       y       z     vdW  Elec       q    Type
REMARK                         _______ _______ _______ _____ _____    ______ ____
ROOT
ATOM      1  C   UNL     1     -11.304  15.779  64.819  0.00  0.00    +0.275 C 
ATOM      2  N   UNL     1     -11.030  16.315  66.119  0.00  0.00    -0.177 NA
ATOM      3  O   UNL     1     -11.500  16.609  63.908  0.00  0.00    -0.270 OA
ENDROOT
BRANCH   2   4
ATOM      4  C   UNL     1     -10.049  17.354  66.219  0.00  0.00    +0.073 A 
ATOM      5  C   UNL     1      -8.717  17.052  66.324  0.00  0.00    +0.021 A 
ATOM      6  C   UNL     1      -7.861  18.043  66.767  0.00  0.00    +0.082 A 
ATOM      7  C   UNL     1      -8.330  19.322  66.943  0.00  0.00    +0.072 A 
ATOM      8  C   UNL     1      -9.681  19.580  67.038  0.00  0.00    +0.012 A 
ATOM      9  C   UNL     1     -10.543  18.598  66.587  0.00  0.00    +0.017 A 
BRANCH   6  10
ATOM     10  C   UNL     1      -6.406  17.718  66.739  0.00  0.00    +0.419 C 
ATOM     11  F   UNL     1      -5.827  18.244  65.608  0.00  0.00    -0.166 F 
ATOM     12  F   UNL     1      -6.277  16.335  66.654  0.00  0.00    -0.166 F 
ATOM     13  F   UNL     1      -5.807  18.150  67.899  0.00  0.00    -0.166 F 
ENDBRANCH   6  10
BRANCH   7  14
ATOM     14  C   UNL     1      -7.386  20.414  66.982  0.00  0.00    +0.100 C 
ATOM     15  N   UNL     1      -6.622  21.271  66.972  0.00  0.00    -0.191 NA
ENDBRANCH   7  14
ENDBRANCH   2   4
BRANCH   1  17
ATOM     16  C   UNL     1     -10.406  13.635  64.538  0.00  0.00    +0.044 C 
ATOM     17  C   UNL     1     -11.655  14.332  64.729  0.00  0.00    +0.218 C 
ATOM     18  O   UNL     1     -12.508  14.208  63.621  0.00  0.00    -0.214 OA
BRANCH  17  19
ATOM     19  C   UNL     1     -12.409  13.846  65.932  0.00  0.00    +0.195 C 
BRANCH  19  20
ATOM     20  S   UNL     1     -11.398  12.854  66.984  0.00  0.00    +0.012 S 
ATOM     21  O   UNL     1     -10.087  12.488  66.363  0.00  0.00    -0.169 OA
ATOM     22  O   UNL     1     -12.090  11.554  67.329  0.00  0.00    -0.169 OA
BRANCH  20  23
ATOM     23  C   UNL     1     -11.043  13.744  68.458  0.00  0.00    +0.106 A 
ATOM     24  C   UNL     1      -9.743  14.209  68.611  0.00  0.00    +0.021 A 
ATOM     25  C   UNL     1      -9.479  15.364  69.339  0.00  0.00    +0.031 A 
ATOM     26  C   UNL     1     -10.522  16.190  69.741  0.00  0.00    +0.140 A 
ATOM     27  F   UNL     1     -10.440  17.549  69.635  0.00  0.00    -0.204 F 
ATOM     28  C   UNL     1     -11.757  15.565  69.865  0.00  0.00    +0.031 A 
ATOM     29  C   UNL     1     -12.006  14.365  69.209  0.00  0.00    +0.021 A 
ENDBRANCH  20  23
ENDBRANCH  19  20
ENDBRANCH  17  19
ENDBRANCH   1  17
TORSDOF 7
ENDMDL
MODEL 2
REMARK VINA RESULT:      -7.4      1.133      1.401
REMARK  Name = 
REMARK  7 active torsions:
REMARK  status: ('A' for Active; 'I' for Inactive)
REMARK    1  A    between atoms: C_2  and  C_4
REMARK    2  A    between atoms: C_2  and  C_15
REMARK    3  A    between atoms: C_4  and  S_5
REMARK    4  A    between atoms: S_5  and  C_8
REMARK    5  A    between atoms: N_17  and  C_18
REMARK    6  A    between atoms: C_21  and  C_22
REMARK    7  A    between atoms: C_24  and  C_25
REMARK                            x       y       z     vdW  Elec       q    Type
REMARK                         _______ _______ _______ _____ _____    ______ ____
ROOT
ATOM      1  C   UNL     1     -11.213  16.001  64.990  0.00  0.00    +0.275 C 
ATOM      2  N   UNL     1     -10.975  16.623  66.258  0.00  0.00    -0.177 NA
ATOM      3  O   UNL     1     -11.329  16.765  64.011  0.00  0.00    -0.270 OA
ENDROOT
BRANCH   2   4
ATOM      4  C   UNL     1      -9.954  17.625  66.329  0.00  0.00    +0.073 A 
ATOM      5  C   UNL     1      -8.631  17.274  66.388  0.00  0.00    +0.021 A 
ATOM      6  C   UNL     1      -7.726  18.231  66.806  0.00  0.00    +0.082 A 
ATOM      7  C   UNL     1      -8.141  19.525  67.002  0.00  0.00    +0.072 A 
ATOM      8  C   UNL     1      -9.477  19.832  67.142  0.00  0.00    +0.012 A 
ATOM      9  C   UNL     1     -10.389  18.885  66.717  0.00  0.00    +0.017 A 
BRANCH   6  10
ATOM     10  C   UNL     1      -6.285  17.853  66.728  0.00  0.00    +0.419 C 
ATOM     11  F   UNL     1      -5.716  18.392  65.598  0.00  0.00    -0.166 F 
ATOM     12  F   UNL     1      -6.211  16.469  66.597  0.00  0.00    -0.166 F 
ATOM     13  F   UNL     1      -5.640  18.225  67.883  0.00  0.00    -0.166 F 
ENDBRANCH   6  10
BRANCH   7  14
ATOM     14  C   UNL     1      -7.157  20.581  67.013  0.00  0.00    +0.100 C 
ATOM     15  N   UNL     1      -6.402  21.447  67.044  0.00  0.00    -0.191 NA
ENDBRANCH   7  14
ENDBRANCH   2   4
BRANCH   1  17
ATOM     16  C   UNL     1     -10.411  13.809  64.802  0.00  0.00    +0.044 C 
ATOM     17  C   UNL     1     -11.624  14.567  64.990  0.00  0.00    +0.218 C 
ATOM     18  O   UNL     1     -12.516  14.419  63.917  0.00  0.00    -0.214 OA
BRANCH  17  19
ATOM     19  C   UNL     1     -12.359  14.179  66.241  0.00  0.00    +0.195 C 
BRANCH  19  20
ATOM     20  S   UNL     1     -11.366  13.179  67.302  0.00  0.00    +0.012 S 
ATOM     21  O   UNL     1      -9.914  13.205  66.944  0.00  0.00    -0.169 OA
ATOM     22  O   UNL     1     -11.800  11.731  67.242  0.00  0.00    -0.169 OA
BRANCH  20  23
ATOM     23  C   UNL     1     -11.503  13.769  68.953  0.00  0.00    +0.106 A 
ATOM     24  C   UNL     1     -11.543  15.147  69.124  0.00  0.00    +0.021 A 
ATOM     25  C   UNL     1     -12.225  15.713  70.195  0.00  0.00    +0.031 A 
ATOM     26  C   UNL     1     -13.058  14.930  70.986  0.00  0.00    +0.140 A 
ATOM     27  F   UNL     1     -14.288  15.369  71.383  0.00  0.00    -0.204 F 
ATOM     28  C   UNL     1     -12.753  13.574  71.004  0.00  0.00    +0.031 A 
ATOM     29  C   UNL     1     -11.998  13.011  69.981  0.00  0.00    +0.021 A 
ENDBRANCH  20  23
ENDBRANCH  19  20
ENDBRANCH  17  19
ENDBRANCH   1  17
TORSDOF 7
ENDMDL
MODEL 3
REMARK VINA RESULT:      -7.3      2.172      2.583
REMARK  Name = 
REMARK  7 active torsions:
REMARK  status: ('A' for Active; 'I' for Inactive)
REMARK    1  A    between atoms: C_2  and  C_4
REMARK    2  A    between atoms: C_2  and  C_15
REMARK    3  A    between atoms: C_4  and  S_5
REMARK    4  A    between atoms: S_5  and  C_8
REMARK    5  A    between atoms: N_17  and  C_18
REMARK    6  A    between atoms: C_21  and  C_22
REMARK    7  A    between atoms: C_24  and  C_25
REMARK                            x       y       z     vdW  Elec       q    Type
REMARK                         _______ _______ _______ _____ _____    ______ ____
ROOT
ATOM      1  C   UNL     1     -10.694  15.600  66.062  0.00  0.00    +0.275 C 
ATOM      2  N   UNL     1     -10.807  16.665  67.014  0.00  0.00    -0.177 NA
ATOM      3  O   UNL     1     -10.417  15.930  64.892  0.00  0.00    -0.270 OA
ENDROOT
BRANCH   2   4
ATOM      4  C   UNL     1      -9.764  17.647  67.043  0.00  0.00    +0.073 A 
ATOM      5  C   UNL     1      -8.692  17.505  67.885  0.00  0.00    +0.021 A 
ATOM      6  C   UNL     1      -7.913  18.619  68.135  0.00  0.00    +0.082 A 
ATOM      7  C   UNL     1      -8.134  19.779  67.432  0.00  0.00    +0.072 A 
ATOM      8  C   UNL     1      -9.314  19.986  66.751  0.00  0.00    +0.012 A 
ATOM      9  C   UNL     1     -10.094  18.876  66.489  0.00  0.00    +0.017 A 
BRANCH   6  10
ATOM     10  C   UNL     1      -6.682  18.393  68.946  0.00  0.00    +0.419 C 
ATOM     11  F   UNL     1      -5.582  18.323  68.124  0.00  0.00    -0.166 F 
ATOM     12  F   UNL     1      -6.800  17.155  69.569  0.00  0.00    -0.166 F 
ATOM     13  F   UNL     1      -6.571  19.367  69.909  0.00  0.00    -0.166 F 
ENDBRANCH   6  10
BRANCH   7  14
ATOM     14  C   UNL     1      -7.087  20.771  67.374  0.00  0.00    +0.100 C 
ATOM     15  N   UNL     1      -6.278  21.582  67.297  0.00  0.00    -0.191 NA
ENDBRANCH   7  14
ENDBRANCH   2   4
BRANCH   1  17
ATOM     16  C   UNL     1     -10.074  13.443  66.729  0.00  0.00    +0.044 C 
ATOM     17  C   UNL     1     -11.229  14.264  66.456  0.00  0.00    +0.218 C 
ATOM     18  O   UNL     1     -11.963  13.800  65.353  0.00  0.00    -0.214 OA
BRANCH  17  19
ATOM     19  C   UNL     1     -12.172  14.342  67.621  0.00  0.00    +0.195 C 
BRANCH  19  20
ATOM     20  S   UNL     1     -11.364  13.966  69.145  0.00  0.00    +0.012 S 
ATOM     21  O   UNL     1      -9.962  14.482  69.208  0.00  0.00    -0.169 OA
ATOM     22  O   UNL     1     -11.285  12.472  69.361  0.00  0.00    -0.169 OA
BRANCH  20  23
ATOM     23  C   UNL     1     -12.249  14.710  70.470  0.00  0.00    +0.106 A 
ATOM     24  C   UNL     1     -13.072  13.877  71.219  0.00  0.00    +0.021 A 
ATOM     25  C   UNL     1     -13.322  14.139  72.561  0.00  0.00    +0.031 A 
ATOM     26  C   UNL     1     -12.584  15.108  73.232  0.00  0.00    +0.140 A 
ATOM     27  F   UNL     1     -12.101  14.895  74.491  0.00  0.00    -0.204 F 
ATOM     28  C   UNL     1     -12.040  16.101  72.426  0.00  0.00    +0.031 A 
ATOM     29  C   UNL     1     -11.863  15.882  71.065  0.00  0.00    +0.021 A 
ENDBRANCH  20  23
ENDBRANCH  19  20
ENDBRANCH  17  19
ENDBRANCH   1  17
TORSDOF 7
ENDMDL
MODEL 4
REMARK VINA RESULT:      -7.1      3.480      7.205
REMARK  Name = 
REMARK  7 active torsions:
REMARK  status: ('A' for Active; 'I' for Inactive)
REMARK    1  A    between atoms: C_2  and  C_4
REMARK    2  A    between atoms: C_2  and  C_15
REMARK    3  A    between atoms: C_4  and  S_5
REMARK    4  A    between atoms: S_5  and  C_8
REMARK    5  A    between atoms: N_17  and  C_18
REMARK    6  A    between atoms: C_21  and  C_22
REMARK    7  A    between atoms: C_24  and  C_25
REMARK                            x       y       z     vdW  Elec       q    Type
REMARK                         _______ _______ _______ _____ _____    ______ ____
ROOT
ATOM      1  C   UNL     1     -10.294  16.490  67.350  0.00  0.00    +0.275 C 
ATOM      2  N   UNL     1      -9.908  15.953  68.620  0.00  0.00    -0.177 NA
ATOM      3  O   UNL     1     -11.033  15.773  66.646  0.00  0.00    -0.270 OA
ENDROOT
BRANCH   2   4
ATOM      4  C   UNL     1     -10.934  15.391  69.447  0.00  0.00    +0.073 A 
ATOM      5  C   UNL     1     -11.259  15.967  70.647  0.00  0.00    +0.021 A 
ATOM      6  C   UNL     1     -11.982  15.213  71.552  0.00  0.00    +0.082 A 
ATOM      7  C   UNL     1     -12.477  13.987  71.179  0.00  0.00    +0.072 A 
ATOM      8  C   UNL     1     -11.989  13.328  70.071  0.00  0.00    +0.012 A 
ATOM      9  C   UNL     1     -11.274  14.077  69.156  0.00  0.00    +0.017 A 
BRANCH   6  10
ATOM     10  C   UNL     1     -12.431  15.919  72.787  0.00  0.00    +0.419 C 
ATOM     11  F   UNL     1     -11.711  17.078  72.955  0.00  0.00    -0.166 F 
ATOM     12  F   UNL     1     -12.142  15.102  73.876  0.00  0.00    -0.166 F 
ATOM     13  F   UNL     1     -13.788  16.132  72.738  0.00  0.00    -0.166 F 
ENDBRANCH   6  10
BRANCH   7  14
ATOM     14  C   UNL     1     -13.559  13.409  71.940  0.00  0.00    +0.100 C 
ATOM     15  N   UNL     1     -14.397  12.957  72.582  0.00  0.00    -0.191 NA
ENDBRANCH   7  14
ENDBRANCH   2   4
BRANCH   1  17
ATOM     16  C   UNL     1      -9.535  18.631  67.923  0.00  0.00    +0.044 C 
ATOM     17  C   UNL     1      -9.539  17.673  66.843  0.00  0.00    +0.218 C 
ATOM     18  O   UNL     1     -10.250  18.137  65.724  0.00  0.00    -0.214 OA
BRANCH  17  19
ATOM     19  C   UNL     1      -8.156  17.319  66.381  0.00  0.00    +0.195 C 
BRANCH  19  20
ATOM     20  S   UNL     1      -7.196  18.755  66.020  0.00  0.00    +0.012 S 
ATOM     21  O   UNL     1      -8.029  19.975  65.790  0.00  0.00    -0.169 OA
ATOM     22  O   UNL     1      -6.371  18.553  64.769  0.00  0.00    -0.169 OA
BRANCH  20  23
ATOM     23  C   UNL     1      -6.135  19.101  67.379  0.00  0.00    +0.106 A 
ATOM     24  C   UNL     1      -5.936  20.439  67.693  0.00  0.00    +0.021 A 
ATOM     25  C   UNL     1      -5.668  20.834  68.999  0.00  0.00    +0.031 A 
ATOM     26  C   UNL     1      -5.811  19.929  70.045  0.00  0.00    +0.140 A 
ATOM     27  F   UNL     1      -6.410  20.282  71.220  0.00  0.00    -0.204 F 
ATOM     28  C   UNL     1      -5.686  18.591  69.691  0.00  0.00    +0.031 A 
ATOM     29  C   UNL     1      -5.868  18.194  68.371  0.00  0.00    +0.021 A 
ENDBRANCH  20  23
ENDBRANCH  19  20
ENDBRANCH  17  19
ENDBRANCH   1  17
TORSDOF 7
ENDMDL
MODEL 5
REMARK VINA RESULT:      -6.9      4.877      7.906
REMARK  Name = 
REMARK  7 active torsions:
REMARK  status: ('A' for Active; 'I' for Inactive)
REMARK    1  A    between atoms: C_2  and  C_4
REMARK    2  A    between atoms: C_2  and  C_15
REMARK    3  A    between atoms: C_4  and  S_5
REMARK    4  A    between atoms: S_5  and  C_8
REMARK    5  A    between atoms: N_17  and  C_18
REMARK    6  A    between atoms: C_21  and  C_22
REMARK    7  A    between atoms: C_24  and  C_25
REMARK                            x       y       z     vdW  Elec       q    Type
REMARK                         _______ _______ _______ _____ _____    ______ ____
ROOT
ATOM      1  C   UNL     1     -10.049  10.331  66.549  0.00  0.00    +0.275 C 
ATOM      2  N   UNL     1      -9.435  10.667  67.798  0.00  0.00    -0.177 NA
ATOM      3  O   UNL     1     -10.081   9.119  66.255  0.00  0.00    -0.270 OA
ENDROOT
BRANCH   2   4
ATOM      4  C   UNL     1      -9.826   9.919  68.957  0.00  0.00    +0.073 A 
ATOM      5  C   UNL     1     -11.094  10.029  69.465  0.00  0.00    +0.021 A 
ATOM      6  C   UNL     1     -11.315   9.580  70.753  0.00  0.00    +0.082 A 
ATOM      7  C   UNL     1     -10.320   8.913  71.425  0.00  0.00    +0.072 A 
ATOM      8  C   UNL     1      -9.007   8.981  71.008  0.00  0.00    +0.012 A 
ATOM      9  C   UNL     1      -8.779   9.418  69.717  0.00  0.00    +0.017 A 
BRANCH   6  10
ATOM     10  C   UNL     1     -12.731   9.593  71.221  0.00  0.00    +0.419 C 
ATOM     11  F   UNL     1     -13.231   8.311  71.243  0.00  0.00    -0.166 F 
ATOM     12  F   UNL     1     -13.484  10.304  70.292  0.00  0.00    -0.166 F 
ATOM     13  F   UNL     1     -12.816  10.223  72.440  0.00  0.00    -0.166 F 
ENDBRANCH   6  10
BRANCH   7  14
ATOM     14  C   UNL     1     -10.671   8.090  72.558  0.00  0.00    +0.100 C 
ATOM     15  N   UNL     1     -10.926   7.462  73.485  0.00  0.00    -0.191 NA
ENDBRANCH   7  14
ENDBRANCH   2   4
BRANCH   1  17
ATOM     16  C   UNL     1      -9.899  10.923  64.288  0.00  0.00    +0.044 C 
ATOM     17  C   UNL     1     -10.289  11.438  65.578  0.00  0.00    +0.218 C 
ATOM     18  O   UNL     1      -9.473  12.503  65.994  0.00  0.00    -0.214 OA
BRANCH  17  19
ATOM     19  C   UNL     1     -11.708  11.926  65.600  0.00  0.00    +0.195 C 
BRANCH  19  20
ATOM     20  S   UNL     1     -11.798  13.679  65.775  0.00  0.00    +0.012 S 
ATOM     21  O   UNL     1     -13.158  14.229  65.482  0.00  0.00    -0.169 OA
ATOM     22  O   UNL     1     -10.841  14.367  64.828  0.00  0.00    -0.169 OA
BRANCH  20  23
ATOM     23  C   UNL     1     -11.409  14.119  67.433  0.00  0.00    +0.106 A 
ATOM     24  C   UNL     1     -11.163  15.463  67.683  0.00  0.00    +0.021 A 
ATOM     25  C   UNL     1     -11.442  16.021  68.925  0.00  0.00    +0.031 A 
ATOM     26  C   UNL     1     -12.173  15.302  69.865  0.00  0.00    +0.140 A 
ATOM     27  F   UNL     1     -13.167  15.885  70.597  0.00  0.00    -0.204 F 
ATOM     28  C   UNL     1     -12.115  13.921  69.728  0.00  0.00    +0.031 A 
ATOM     29  C   UNL     1     -11.753  13.350  68.513  0.00  0.00    +0.021 A 
ENDBRANCH  20  23
ENDBRANCH  19  20
ENDBRANCH  17  19
ENDBRANCH   1  17
TORSDOF 7
ENDMDL
MODEL 6
REMARK VINA RESULT:      -6.9      5.416      8.106
REMARK  Name = 
REMARK  7 active torsions:
REMARK  status: ('A' for Active; 'I' for Inactive)
REMARK    1  A    between atoms: C_2  and  C_4
REMARK    2  A    between atoms: C_2  and  C_15
REMARK    3  A    between atoms: C_4  and  S_5
REMARK    4  A    between atoms: S_5  and  C_8
REMARK    5  A    between atoms: N_17  and  C_18
REMARK    6  A    between atoms: C_21  and  C_22
REMARK    7  A    between atoms: C_24  and  C_25
REMARK                            x       y       z     vdW  Elec       q    Type
REMARK                         _______ _______ _______ _____ _____    ______ ____
ROOT
ATOM      1  C   UNL     1     -10.950  12.160  67.135  0.00  0.00    +0.275 C 
ATOM      2  N   UNL     1     -10.340  11.858  68.395  0.00  0.00    -0.177 NA
ATOM      3  O   UNL     1     -11.018  11.224  66.313  0.00  0.00    -0.270 OA
ENDROOT
BRANCH   2   4
ATOM      4  C   UNL     1     -10.768  10.672  69.077  0.00  0.00    +0.073 A 
ATOM      5  C   UNL     1     -11.784  10.721  69.994  0.00  0.00    +0.021 A 
ATOM      6  C   UNL     1     -11.921   9.657  70.865  0.00  0.00    +0.082 A 
ATOM      7  C   UNL     1     -11.149   8.533  70.698  0.00  0.00    +0.072 A 
ATOM      8  C   UNL     1     -10.007   8.560  69.924  0.00  0.00    +0.012 A 
ATOM      9  C   UNL     1      -9.869   9.616  69.043  0.00  0.00    +0.017 A 
BRANCH   6  10
ATOM     10  C   UNL     1     -13.116   9.684  71.756  0.00  0.00    +0.419 C 
ATOM     11  F   UNL     1     -14.196   9.124  71.113  0.00  0.00    -0.166 F 
ATOM     12  F   UNL     1     -13.439  11.015  72.001  0.00  0.00    -0.166 F 
ATOM     13  F   UNL     1     -12.825   9.070  72.950  0.00  0.00    -0.166 F 
ENDBRANCH   6  10
BRANCH   7  14
ATOM     14  C   UNL     1     -11.573   7.295  71.308  0.00  0.00    +0.100 C 
ATOM     15  N   UNL     1     -11.909   6.292  71.753  0.00  0.00    -0.191 NA
ENDBRANCH   7  14
ENDBRANCH   2   4
BRANCH   1  17
ATOM     16  C   UNL     1     -11.614  13.616  65.424  0.00  0.00    +0.044 C 
ATOM     17  C   UNL     1     -11.144  13.599  66.789  0.00  0.00    +0.218 C 
ATOM     18  O   UNL     1      -9.884  14.203  66.926  0.00  0.00    -0.214 OA
BRANCH  17  19
ATOM     19  C   UNL     1     -12.081  14.296  67.731  0.00  0.00    +0.195 C 
BRANCH  19  20
ATOM     20  S   UNL     1     -11.216  15.299  68.897  0.00  0.00    +0.012 S 
ATOM     21  O   UNL     1     -11.395  16.764  68.657  0.00  0.00    -0.169 OA
ATOM     22  O   UNL     1      -9.729  15.030  68.842  0.00  0.00    -0.169 OA
BRANCH  20  23
ATOM     23  C   UNL     1     -11.819  14.962  70.514  0.00  0.00    +0.106 A 
ATOM     24  C   UNL     1     -11.442  15.844  71.519  0.00  0.00    +0.021 A 
ATOM     25  C   UNL     1     -12.266  16.069  72.617  0.00  0.00    +0.031 A 
ATOM     26  C   UNL     1     -13.570  15.588  72.622  0.00  0.00    +0.140 A 
ATOM     27  F   UNL     1     -14.613  16.351  73.061  0.00  0.00    -0.204 F 
ATOM     28  C   UNL     1     -13.796  14.486  71.806  0.00  0.00    +0.031 A 
ATOM     29  C   UNL     1     -12.931  14.200  70.756  0.00  0.00    +0.021 A 
ENDBRANCH  20  23
ENDBRANCH  19  20
ENDBRANCH  17  19
ENDBRANCH   1  17
TORSDOF 7
ENDMDL
MODEL 7
REMARK VINA RESULT:      -6.8      2.599      3.695
REMARK  Name = 
REMARK  7 active torsions:
REMARK  status: ('A' for Active; 'I' for Inactive)
REMARK    1  A    between atoms: C_2  and  C_4
REMARK    2  A    between atoms: C_2  and  C_15
REMARK    3  A    between atoms: C_4  and  S_5
REMARK    4  A    between atoms: S_5  and  C_8
REMARK    5  A    between atoms: N_17  and  C_18
REMARK    6  A    between atoms: C_21  and  C_22
REMARK    7  A    between atoms: C_24  and  C_25
REMARK                            x       y       z     vdW  Elec       q    Type
REMARK                         _______ _______ _______ _____ _____    ______ ____
ROOT
ATOM      1  C   UNL     1      -8.960  14.305  67.252  0.00  0.00    +0.275 C 
ATOM      2  N   UNL     1      -9.109  15.341  66.274  0.00  0.00    -0.177 NA
ATOM      3  O   UNL     1      -7.830  14.186  67.766  0.00  0.00    -0.270 OA
ENDROOT
BRANCH   2   4
ATOM      4  C   UNL     1      -8.609  16.643  66.600  0.00  0.00    +0.073 A 
ATOM      5  C   UNL     1      -9.445  17.613  67.086  0.00  0.00    +0.021 A 
ATOM      6  C   UNL     1      -9.007  18.923  67.049  0.00  0.00    +0.082 A 
ATOM      7  C   UNL     1      -7.715  19.202  66.675  0.00  0.00    +0.072 A 
ATOM      8  C   UNL     1      -6.951  18.273  66.002  0.00  0.00    +0.012 A 
ATOM      9  C   UNL     1      -7.377  16.958  66.043  0.00  0.00    +0.017 A 
BRANCH   6  10
ATOM     10  C   UNL     1      -9.887  19.931  67.708  0.00  0.00    +0.419 C 
ATOM     11  F   UNL     1      -9.637  19.962  69.061  0.00  0.00    -0.166 F 
ATOM     12  F   UNL     1     -11.206  19.518  67.551  0.00  0.00    -0.166 F 
ATOM     13  F   UNL     1      -9.730  21.156  67.106  0.00  0.00    -0.166 F 
ENDBRANCH   6  10
BRANCH   7  14
ATOM     14  C   UNL     1      -7.140  20.475  67.040  0.00  0.00    +0.100 C 
ATOM     15  N   UNL     1      -6.654  21.483  67.297  0.00  0.00    -0.191 NA
ENDBRANCH   7  14
ENDBRANCH   2   4
BRANCH   1  17
ATOM     16  C   UNL     1      -9.429  12.042  66.875  0.00  0.00    +0.044 C 
ATOM     17  C   UNL     1     -10.033  13.271  67.331  0.00  0.00    +0.218 C 
ATOM     18  O   UNL     1     -11.058  13.709  66.478  0.00  0.00    -0.214 OA
BRANCH  17  19
ATOM     19  C   UNL     1     -10.616  13.151  68.709  0.00  0.00    +0.195 C 
BRANCH  19  20
ATOM     20  S   UNL     1     -10.997  14.729  69.401  0.00  0.00    +0.012 S 
ATOM     21  O   UNL     1     -11.824  15.584  68.495  0.00  0.00    -0.169 OA
ATOM     22  O   UNL     1      -9.735  15.507  69.697  0.00  0.00    -0.169 OA
BRANCH  20  23
ATOM     23  C   UNL     1     -11.915  14.507  70.884  0.00  0.00    +0.106 A 
ATOM     24  C   UNL     1     -11.504  15.238  71.991  0.00  0.00    +0.021 A 
ATOM     25  C   UNL     1     -12.415  15.630  72.966  0.00  0.00    +0.031 A 
ATOM     26  C   UNL     1     -13.780  15.488  72.744  0.00  0.00    +0.140 A 
ATOM     27  F   UNL     1     -14.664  16.475  73.073  0.00  0.00    -0.204 F 
ATOM     28  C   UNL     1     -14.131  14.501  71.831  0.00  0.00    +0.031 A 
ATOM     29  C   UNL     1     -13.203  14.039  70.905  0.00  0.00    +0.021 A 
ENDBRANCH  20  23
ENDBRANCH  19  20
ENDBRANCH  17  19
ENDBRANCH   1  17
TORSDOF 7
ENDMDL
MODEL 8
REMARK VINA RESULT:      -6.8      2.602      3.149
REMARK  Name = 
REMARK  7 active torsions:
REMARK  status: ('A' for Active; 'I' for Inactive)
REMARK    1  A    between atoms: C_2  and  C_4
REMARK    2  A    between atoms: C_2  and  C_15
REMARK    3  A    between atoms: C_4  and  S_5
REMARK    4  A    between atoms: S_5  and  C_8
REMARK    5  A    between atoms: N_17  and  C_18
REMARK    6  A    between atoms: C_21  and  C_22
REMARK    7  A    between atoms: C_24  and  C_25
REMARK                            x       y       z     vdW  Elec       q    Type
REMARK                         _______ _______ _______ _____ _____    ______ ____
ROOT
ATOM      1  C   UNL     1     -10.679  15.596  65.900  0.00  0.00    +0.275 C 
ATOM      2  N   UNL     1     -10.650  16.472  67.033  0.00  0.00    -0.177 NA
ATOM      3  O   UNL     1     -10.651  16.140  64.778  0.00  0.00    -0.270 OA
ENDROOT
BRANCH   2   4
ATOM      4  C   UNL     1      -9.666  17.513  67.046  0.00  0.00    +0.073 A 
ATOM      5  C   UNL     1      -8.569  17.429  67.862  0.00  0.00    +0.021 A 
ATOM      6  C   UNL     1      -7.851  18.585  68.102  0.00  0.00    +0.082 A 
ATOM      7  C   UNL     1      -8.156  19.735  67.415  0.00  0.00    +0.072 A 
ATOM      8  C   UNL     1      -9.362  19.877  66.763  0.00  0.00    +0.012 A 
ATOM      9  C   UNL     1     -10.081  18.724  66.509  0.00  0.00    +0.017 A 
BRANCH   6  10
ATOM     10  C   UNL     1      -6.590  18.427  68.883  0.00  0.00    +0.419 C 
ATOM     11  F   UNL     1      -6.620  17.250  69.594  0.00  0.00    -0.166 F 
ATOM     12  F   UNL     1      -6.529  19.460  69.814  0.00  0.00    -0.166 F 
ATOM     13  F   UNL     1      -5.505  18.520  68.045  0.00  0.00    -0.166 F 
ENDBRANCH   6  10
BRANCH   7  14
ATOM     14  C   UNL     1      -7.171  20.787  67.340  0.00  0.00    +0.100 C 
ATOM     15  N   UNL     1      -6.358  21.595  67.267  0.00  0.00    -0.191 NA
ENDBRANCH   7  14
ENDBRANCH   2   4
BRANCH   1  17
ATOM     16  C   UNL     1     -10.485  13.422  65.051  0.00  0.00    +0.044 C 
ATOM     17  C   UNL     1     -11.066  14.175  66.137  0.00  0.00    +0.218 C 
ATOM     18  O   UNL     1     -12.469  14.145  66.113  0.00  0.00    -0.214 OA
BRANCH  17  19
ATOM     19  C   UNL     1     -10.629  13.675  67.483  0.00  0.00    +0.195 C 
BRANCH  19  20
ATOM     20  S   UNL     1     -10.859  11.933  67.644  0.00  0.00    +0.012 S 
ATOM     21  O   UNL     1      -9.694  11.139  67.145  0.00  0.00    -0.169 OA
ATOM     22  O   UNL     1     -12.065  11.472  66.858  0.00  0.00    -0.169 OA
BRANCH  20  23
ATOM     23  C   UNL     1     -11.071  11.529  69.343  0.00  0.00    +0.106 A 
ATOM     24  C   UNL     1     -11.985  12.293  70.059  0.00  0.00    +0.021 A 
ATOM     25  C   UNL     1     -12.677  11.752  71.136  0.00  0.00    +0.031 A 
ATOM     26  C   UNL     1     -12.633  10.384  71.380  0.00  0.00    +0.140 A 
ATOM     27  F   UNL     1     -13.754   9.680  71.710  0.00  0.00    -0.204 F 
ATOM     28  C   UNL     1     -11.509   9.732  70.887  0.00  0.00    +0.031 A 
ATOM     29  C   UNL     1     -10.757  10.303  69.866  0.00  0.00    +0.021 A 
ENDBRANCH  20  23
ENDBRANCH  19  20
ENDBRANCH  17  19
ENDBRANCH   1  17
TORSDOF 7
ENDMDL
MODEL 9
REMARK VINA RESULT:      -6.8      3.427      6.487
REMARK  Name = 
REMARK  7 active torsions:
REMARK  status: ('A' for Active; 'I' for Inactive)
REMARK    1  A    between atoms: C_2  and  C_4
REMARK    2  A    between atoms: C_2  and  C_15
REMARK    3  A    between atoms: C_4  and  S_5
REMARK    4  A    between atoms: S_5  and  C_8
REMARK    5  A    between atoms: N_17  and  C_18
REMARK    6  A    between atoms: C_21  and  C_22
REMARK    7  A    between atoms: C_24  and  C_25
REMARK                            x       y       z     vdW  Elec       q    Type
REMARK                         _______ _______ _______ _____ _____    ______ ____
ROOT
ATOM      1  C   UNL     1     -10.998  14.762  67.102  0.00  0.00    +0.275 C 
ATOM      2  N   UNL     1     -10.441  14.127  68.258  0.00  0.00    -0.177 NA
ATOM      3  O   UNL     1     -12.243  14.819  67.046  0.00  0.00    -0.270 OA
ENDROOT
BRANCH   2   4
ATOM      4  C   UNL     1     -10.946  14.517  69.542  0.00  0.00    +0.073 A 
ATOM      5  C   UNL     1     -11.897  13.763  70.177  0.00  0.00    +0.021 A 
ATOM      6  C   UNL     1     -12.597  14.347  71.216  0.00  0.00    +0.082 A 
ATOM      7  C   UNL     1     -12.229  15.588  71.677  0.00  0.00    +0.072 A 
ATOM      8  C   UNL     1     -11.427  16.419  70.924  0.00  0.00    +0.012 A 
ATOM      9  C   UNL     1     -10.716  15.840  69.890  0.00  0.00    +0.017 A 
BRANCH   6  10
ATOM     10  C   UNL     1     -13.526  13.455  71.969  0.00  0.00    +0.419 C 
ATOM     11  F   UNL     1     -13.123  13.354  73.280  0.00  0.00    -0.166 F 
ATOM     12  F   UNL     1     -13.435  12.179  71.420  0.00  0.00    -0.166 F 
ATOM     13  F   UNL     1     -14.818  13.905  71.837  0.00  0.00    -0.166 F 
ENDBRANCH   6  10
BRANCH   7  14
ATOM     14  C   UNL     1     -12.655  16.000  72.993  0.00  0.00    +0.100 C 
ATOM     15  N   UNL     1     -12.951  16.336  74.050  0.00  0.00    -0.191 NA
ENDBRANCH   7  14
ENDBRANCH   2   4
BRANCH   1  17
ATOM     16  C   UNL     1     -10.849  15.795  65.005  0.00  0.00    +0.044 C 
ATOM     17  C   UNL     1     -10.093  14.996  65.939  0.00  0.00    +0.218 C 
ATOM     18  O   UNL     1      -9.785  13.726  65.426  0.00  0.00    -0.214 OA
BRANCH  17  19
ATOM     19  C   UNL     1      -8.799  15.644  66.338  0.00  0.00    +0.195 C 
BRANCH  19  20
ATOM     20  S   UNL     1      -9.023  17.336  66.787  0.00  0.00    +0.012 S 
ATOM     21  O   UNL     1     -10.451  17.686  67.061  0.00  0.00    -0.169 OA
ATOM     22  O   UNL     1      -8.558  18.255  65.679  0.00  0.00    -0.169 OA
BRANCH  20  23
ATOM     23  C   UNL     1      -8.116  17.673  68.255  0.00  0.00    +0.106 A 
ATOM     24  C   UNL     1      -7.316  16.649  68.746  0.00  0.00    +0.021 A 
ATOM     25  C   UNL     1      -6.157  16.929  69.461  0.00  0.00    +0.031 A 
ATOM     26  C   UNL     1      -5.663  18.228  69.509  0.00  0.00    +0.140 A 
ATOM     27  F   UNL     1      -4.332  18.492  69.363  0.00  0.00    -0.204 F 
ATOM     28  C   UNL     1      -6.607  19.228  69.309  0.00  0.00    +0.031 A 
ATOM     29  C   UNL     1      -7.808  18.942  68.671  0.00  0.00    +0.021 A 
ENDBRANCH  20  23
ENDBRANCH  19  20
ENDBRANCH  17  19
ENDBRANCH   1  17
TORSDOF 7
ENDMDL
