MODEL 1
REMARK VINA RESULT:      -6.4      0.000      0.000
REMARK  Name = 
REMARK  8 active torsions:
REMARK  status: ('A' for Active; 'I' for Inactive)
REMARK    1  A    between atoms: C_2  and  C_3
REMARK    2  A    between atoms: C_2  and  N_11
REMARK    3  A    between atoms: C_3  and  C_4
REMARK    4  A    between atoms: C_4  and  C_5
REMARK    5  A    between atoms: N_11  and  C_12
REMARK    6  A    between atoms: C_12  and  C_13
REMARK    7  A    between atoms: C_13  and  C_15
REMARK    8  A    between atoms: C_20  and  C_21
REMARK                            x       y       z     vdW  Elec       q    Type
REMARK                         _______ _______ _______ _____ _____    ______ ____
ROOT
ATOM      1  C   UNL     1     -11.570  15.341  70.029  0.00  0.00    +0.126 C 
ENDROOT
BRANCH   1   2
ATOM      2  C   UNL     1     -11.341  16.255  68.656  0.00  0.00    +0.192 C 
ATOM      3  O   UNL     1      -9.904  16.588  69.066  0.00  0.00    -0.217 OA
BRANCH   2   4
ATOM      4  C   UNL     1     -10.861  14.994  67.741  0.00  0.00    +0.009 A 
ATOM      5  C   UNL     1     -11.796  14.424  66.940  0.00  0.00    +0.006 A 
ATOM      6  C   UNL     1     -11.516  13.199  66.359  0.00  0.00    +0.095 A 
ATOM      7  C   UNL     1     -10.718  12.330  67.054  0.00  0.00    +0.200 A 
ATOM      8  O   UNL     1     -11.021  10.969  66.959  0.00  0.00    -0.286 OA
ATOM      9  C   UNL     1      -9.851  12.804  68.006  0.00  0.00    +0.042 A 
ATOM     10  C   UNL     1     -10.065  14.102  68.457  0.00  0.00    +0.001 A 
BRANCH   6  11
ATOM     11  C   UNL     1     -12.003  12.856  65.039  0.00  0.00    +0.287 C 
ATOM     12  O   UNL     1     -13.239  13.011  64.811  0.00  0.00    -0.267 OA
ATOM     13  N   UNL     1     -11.151  12.769  63.919  0.00  0.00    -0.084 NA
ENDBRANCH   6  11
ENDBRANCH   2   4
ENDBRANCH   1   2
BRANCH   1  14
ATOM     14  N   UNL     1     -12.807  15.869  70.551  0.00  0.00    -0.216 NA
BRANCH  14  16
ATOM     15  C   UNL     1     -14.558  14.916  71.748  0.00  0.00    +0.019 C 
ATOM     16  C   UNL     1     -12.916  14.991  71.859  0.00  0.00    +0.073 C 
BRANCH  16  17
ATOM     17  C   UNL     1     -12.728  13.594  71.005  0.00  0.00    +0.022 C 
BRANCH  17  18
ATOM     18  C   UNL     1     -13.397  12.571  71.894  0.00  0.00    +0.028 C 
BRANCH  18  19
ATOM     19  C   UNL     1     -12.683  11.277  71.658  0.00  0.00    -0.022 A 
ATOM     20  C   UNL     1     -13.399  10.135  71.997  0.00  0.00    -0.004 A 
ATOM     21  C   UNL     1     -12.827   8.928  71.707  0.00  0.00    -0.000 A 
ATOM     22  C   UNL     1     -11.758   8.858  70.871  0.00  0.00    -0.000 A 
ATOM     23  C   UNL     1     -11.307   9.970  70.230  0.00  0.00    -0.000 A 
ATOM     24  C   UNL     1     -11.913  11.174  70.507  0.00  0.00    -0.004 A 
ENDBRANCH  18  19
ENDBRANCH  17  18
ENDBRANCH  16  17
ENDBRANCH  14  16
ENDBRANCH   1  14
TORSDOF 8
ENDMDL
MODEL 2
REMARK VINA RESULT:      -6.3      3.045      6.119
REMARK  Name = 
REMARK  8 active torsions:
REMARK  status: ('A' for Active; 'I' for Inactive)
REMARK    1  A    between atoms: C_2  and  C_3
REMARK    2  A    between atoms: C_2  and  N_11
REMARK    3  A    between atoms: C_3  and  C_4
REMARK    4  A    between atoms: C_4  and  C_5
REMARK    5  A    between atoms: N_11  and  C_12
REMARK    6  A    between atoms: C_12  and  C_13
REMARK    7  A    between atoms: C_13  and  C_15
REMARK    8  A    between atoms: C_20  and  C_21
REMARK                            x       y       z     vdW  Elec       q    Type
REMARK                         _______ _______ _______ _____ _____    ______ ____
ROOT
ATOM      1  C   UNL     1     -11.087  12.193  68.420  0.00  0.00    +0.126 C 
ENDROOT
BRANCH   1   2
ATOM      2  C   UNL     1     -10.571  10.609  68.443  0.00  0.00    +0.192 C 
ATOM      3  O   UNL     1      -9.173  11.026  68.906  0.00  0.00    -0.217 OA
BRANCH   2   4
ATOM      4  C   UNL     1     -11.070  10.335  69.971  0.00  0.00    +0.009 A 
ATOM      5  C   UNL     1     -11.176   9.039  70.360  0.00  0.00    +0.006 A 
ATOM      6  C   UNL     1     -11.846   8.751  71.537  0.00  0.00    +0.095 A 
ATOM      7  C   UNL     1     -12.884   9.567  71.897  0.00  0.00    +0.200 A 
ATOM      8  O   UNL     1     -13.985   8.968  72.514  0.00  0.00    -0.286 OA
ATOM      9  C   UNL     1     -12.948  10.852  71.418  0.00  0.00    +0.042 A 
ATOM     10  C   UNL     1     -12.140  11.153  70.327  0.00  0.00    +0.001 A 
BRANCH   6  11
ATOM     11  C   UNL     1     -11.439   7.657  72.393  0.00  0.00    +0.287 C 
ATOM     12  O   UNL     1     -11.842   6.495  72.091  0.00  0.00    -0.267 OA
ATOM     13  N   UNL     1     -10.327   7.745  73.256  0.00  0.00    -0.084 NA
ENDBRANCH   6  11
ENDBRANCH   2   4
ENDBRANCH   1   2
BRANCH   1  14
ATOM     14  N   UNL     1      -9.922  12.891  67.930  0.00  0.00    -0.216 NA
BRANCH  14  16
ATOM     15  C   UNL     1     -12.003  13.689  67.266  0.00  0.00    +0.019 C 
ATOM     16  C   UNL     1     -10.559  14.324  67.740  0.00  0.00    +0.073 C 
BRANCH  16  17
ATOM     17  C   UNL     1     -11.027  14.387  69.318  0.00  0.00    +0.022 C 
BRANCH  17  18
ATOM     18  C   UNL     1     -11.978  15.562  69.333  0.00  0.00    +0.028 C 
BRANCH  18  19
ATOM     19  C   UNL     1     -12.540  15.632  70.718  0.00  0.00    -0.022 A 
ATOM     20  C   UNL     1     -13.378  14.581  71.072  0.00  0.00    -0.004 A 
ATOM     21  C   UNL     1     -13.836  14.551  72.359  0.00  0.00    -0.000 A 
ATOM     22  C   UNL     1     -13.265  15.338  73.309  0.00  0.00    -0.000 A 
ATOM     23  C   UNL     1     -12.168  16.088  73.020  0.00  0.00    -0.000 A 
ATOM     24  C   UNL     1     -11.698  16.084  71.727  0.00  0.00    -0.004 A 
ENDBRANCH  18  19
ENDBRANCH  17  18
ENDBRANCH  16  17
ENDBRANCH  14  16
ENDBRANCH   1  14
TORSDOF 8
ENDMDL
MODEL 3
REMARK VINA RESULT:      -6.2      2.374      5.198
REMARK  Name = 
REMARK  8 active torsions:
REMARK  status: ('A' for Active; 'I' for Inactive)
REMARK    1  A    between atoms: C_2  and  C_3
REMARK    2  A    between atoms: C_2  and  N_11
REMARK    3  A    between atoms: C_3  and  C_4
REMARK    4  A    between atoms: C_4  and  C_5
REMARK    5  A    between atoms: N_11  and  C_12
REMARK    6  A    between atoms: C_12  and  C_13
REMARK    7  A    between atoms: C_13  and  C_15
REMARK    8  A    between atoms: C_20  and  C_21
REMARK                            x       y       z     vdW  Elec       q    Type
REMARK                         _______ _______ _______ _____ _____    ______ ____
ROOT
ATOM      1  C   UNL     1     -10.759  12.552  65.772  0.00  0.00    +0.126 C 
ENDROOT
BRANCH   1   2
ATOM      2  C   UNL     1     -11.400  13.868  64.977  0.00  0.00    +0.192 C 
ATOM      3  O   UNL     1     -12.624  13.880  65.896  0.00  0.00    -0.217 OA
BRANCH   2   4
ATOM      4  C   UNL     1     -10.615  14.965  65.894  0.00  0.00    +0.009 A 
ATOM      5  C   UNL     1     -10.746  16.268  65.540  0.00  0.00    +0.006 A 
ATOM      6  C   UNL     1      -9.894  17.200  66.108  0.00  0.00    +0.095 A 
ATOM      7  C   UNL     1      -8.627  16.794  66.428  0.00  0.00    +0.200 A 
ATOM      8  O   UNL     1      -7.595  17.719  66.247  0.00  0.00    -0.286 OA
ATOM      9  C   UNL     1      -8.363  15.465  66.645  0.00  0.00    +0.042 A 
ATOM     10  C   UNL     1      -9.319  14.557  66.201  0.00  0.00    +0.001 A 
BRANCH   6  11
ATOM     11  C   UNL     1     -10.334  18.547  66.406  0.00  0.00    +0.287 C 
ATOM     12  O   UNL     1     -10.594  19.308  65.428  0.00  0.00    -0.267 OA
ATOM     13  N   UNL     1     -10.871  18.907  67.659  0.00  0.00    -0.084 NA
ENDBRANCH   6  11
ENDBRANCH   2   4
ENDBRANCH   1   2
BRANCH   1  14
ATOM     14  N   UNL     1     -11.911  12.010  66.454  0.00  0.00    -0.216 NA
BRANCH  14  16
ATOM     15  C   UNL     1      -9.826  10.985  66.369  0.00  0.00    +0.019 C 
ATOM     16  C   UNL     1     -11.192  10.873  67.282  0.00  0.00    +0.073 C 
BRANCH  16  17
ATOM     17  C   UNL     1     -10.624  11.957  68.385  0.00  0.00    +0.022 C 
BRANCH  17  18
ATOM     18  C   UNL     1     -11.686  11.919  69.461  0.00  0.00    +0.028 C 
BRANCH  18  19
ATOM     19  C   UNL     1     -12.014  13.345  69.778  0.00  0.00    -0.022 A 
ATOM     20  C   UNL     1     -12.568  13.560  71.035  0.00  0.00    -0.004 A 
ATOM     21  C   UNL     1     -12.793  14.855  71.407  0.00  0.00    -0.000 A 
ATOM     22  C   UNL     1     -12.233  15.877  70.707  0.00  0.00    -0.000 A 
ATOM     23  C   UNL     1     -11.361  15.628  69.694  0.00  0.00    -0.000 A 
ATOM     24  C   UNL     1     -11.119  14.317  69.351  0.00  0.00    -0.004 A 
ENDBRANCH  18  19
ENDBRANCH  17  18
ENDBRANCH  16  17
ENDBRANCH  14  16
ENDBRANCH   1  14
TORSDOF 8
ENDMDL
MODEL 4
REMARK VINA RESULT:      -6.1      2.830      4.737
REMARK  Name = 
REMARK  8 active torsions:
REMARK  status: ('A' for Active; 'I' for Inactive)
REMARK    1  A    between atoms: C_2  and  C_3
REMARK    2  A    between atoms: C_2  and  N_11
REMARK    3  A    between atoms: C_3  and  C_4
REMARK    4  A    between atoms: C_4  and  C_5
REMARK    5  A    between atoms: N_11  and  C_12
REMARK    6  A    between atoms: C_12  and  C_13
REMARK    7  A    between atoms: C_13  and  C_15
REMARK    8  A    between atoms: C_20  and  C_21
REMARK                            x       y       z     vdW  Elec       q    Type
REMARK                         _______ _______ _______ _____ _____    ______ ____
ROOT
ATOM      1  C   UNL     1     -10.998  14.680  65.639  0.00  0.00    +0.126 C 
ENDROOT
BRANCH   1   2
ATOM      2  C   UNL     1     -12.534  14.056  65.479  0.00  0.00    +0.192 C 
ATOM      3  O   UNL     1     -12.549  14.366  63.980  0.00  0.00    -0.217 OA
BRANCH   2   4
ATOM      4  C   UNL     1     -12.023  12.527  65.227  0.00  0.00    +0.009 A 
ATOM      5  C   UNL     1     -11.169  12.006  66.142  0.00  0.00    +0.006 A 
ATOM      6  C   UNL     1     -10.501  10.832  65.836  0.00  0.00    +0.095 A 
ATOM      7  C   UNL     1     -10.181  10.603  64.525  0.00  0.00    +0.200 A 
ATOM      8  O   UNL     1      -8.965   9.967  64.266  0.00  0.00    -0.286 OA
ATOM      9  C   UNL     1     -10.891  11.219  63.525  0.00  0.00    +0.042 A 
ATOM     10  C   UNL     1     -11.679  12.304  63.895  0.00  0.00    +0.001 A 
BRANCH   6  11
ATOM     11  C   UNL     1     -10.193   9.847  66.852  0.00  0.00    +0.287 C 
ATOM     12  O   UNL     1     -10.677   8.686  66.709  0.00  0.00    -0.267 OA
ATOM     13  N   UNL     1      -9.092   9.980  67.724  0.00  0.00    -0.084 NA
ENDBRANCH   6  11
ENDBRANCH   2   4
ENDBRANCH   1   2
BRANCH   1  14
ATOM     14  N   UNL     1     -11.222  15.846  66.462  0.00  0.00    -0.216 NA
BRANCH  14  16
ATOM     15  C   UNL     1      -9.848  16.990  67.948  0.00  0.00    +0.019 C 
ATOM     16  C   UNL     1     -10.344  15.437  67.710  0.00  0.00    +0.073 C 
BRANCH  16  17
ATOM     17  C   UNL     1     -11.620  15.616  68.737  0.00  0.00    +0.022 C 
BRANCH  17  18
ATOM     18  C   UNL     1     -11.697  14.263  69.406  0.00  0.00    +0.028 C 
BRANCH  18  19
ATOM     19  C   UNL     1     -11.964  14.523  70.855  0.00  0.00    -0.022 A 
ATOM     20  C   UNL     1     -11.758  15.834  71.269  0.00  0.00    -0.004 A 
ATOM     21  C   UNL     1     -12.083  16.141  72.561  0.00  0.00    -0.000 A 
ATOM     22  C   UNL     1     -12.838  15.286  73.301  0.00  0.00    -0.000 A 
ATOM     23  C   UNL     1     -13.366  14.165  72.739  0.00  0.00    -0.000 A 
ATOM     24  C   UNL     1     -13.057  13.885  71.428  0.00  0.00    -0.004 A 
ENDBRANCH  18  19
ENDBRANCH  17  18
ENDBRANCH  16  17
ENDBRANCH  14  16
ENDBRANCH   1  14
TORSDOF 8
ENDMDL
MODEL 5
REMARK VINA RESULT:      -6.1      2.646      5.592
REMARK  Name = 
REMARK  8 active torsions:
REMARK  status: ('A' for Active; 'I' for Inactive)
REMARK    1  A    between atoms: C_2  and  C_3
REMARK    2  A    between atoms: C_2  and  N_11
REMARK    3  A    between atoms: C_3  and  C_4
REMARK    4  A    between atoms: C_4  and  C_5
REMARK    5  A    between atoms: N_11  and  C_12
REMARK    6  A    between atoms: C_12  and  C_13
REMARK    7  A    between atoms: C_13  and  C_15
REMARK    8  A    between atoms: C_20  and  C_21
REMARK                            x       y       z     vdW  Elec       q    Type
REMARK                         _______ _______ _______ _____ _____    ______ ____
ROOT
ATOM      1  C   UNL     1      -9.437  10.661  65.438  0.00  0.00    +0.126 C 
ENDROOT
BRANCH   1   2
ATOM      2  C   UNL     1      -9.002  11.110  63.895  0.00  0.00    +0.192 C 
ATOM      3  O   UNL     1      -9.880  10.015  63.283  0.00  0.00    -0.217 OA
BRANCH   2   4
ATOM      4  C   UNL     1     -10.179  12.230  63.751  0.00  0.00    +0.009 A 
ATOM      5  C   UNL     1     -10.130  13.286  64.601  0.00  0.00    +0.006 A 
ATOM      6  C   UNL     1     -11.238  14.109  64.703  0.00  0.00    +0.095 A 
ATOM      7  C   UNL     1     -12.472  13.543  64.528  0.00  0.00    +0.200 A 
ATOM      8  O   UNL     1     -13.516  14.028  65.320  0.00  0.00    -0.286 OA
ATOM      9  C   UNL     1     -12.600  12.377  63.815  0.00  0.00    +0.042 A 
ATOM     10  C   UNL     1     -11.436  11.649  63.593  0.00  0.00    +0.001 A 
BRANCH   6  11
ATOM     11  C   UNL     1     -11.107  15.532  64.935  0.00  0.00    +0.287 C 
ATOM     12  O   UNL     1     -10.265  15.910  65.801  0.00  0.00    -0.267 OA
ATOM     13  N   UNL     1     -11.537  16.494  63.997  0.00  0.00    -0.084 NA
ENDBRANCH   6  11
ENDBRANCH   2   4
ENDBRANCH   1   2
BRANCH   1  14
ATOM     14  N   UNL     1      -9.164   9.244  65.438  0.00  0.00    -0.216 NA
BRANCH  14  16
ATOM     15  C   UNL     1      -8.959   8.636  67.673  0.00  0.00    +0.019 C 
ATOM     16  C   UNL     1     -10.172   8.800  66.571  0.00  0.00    +0.073 C 
BRANCH  16  17
ATOM     17  C   UNL     1     -10.451  10.363  67.012  0.00  0.00    +0.022 C 
BRANCH  17  18
ATOM     18  C   UNL     1     -11.256  10.207  68.282  0.00  0.00    +0.028 C 
BRANCH  18  19
ATOM     19  C   UNL     1     -11.383  11.578  68.871  0.00  0.00    -0.022 A 
ATOM     20  C   UNL     1     -11.636  12.594  67.958  0.00  0.00    -0.004 A 
ATOM     21  C   UNL     1     -11.857  13.846  68.460  0.00  0.00    -0.000 A 
ATOM     22  C   UNL     1     -12.107  14.021  69.784  0.00  0.00    -0.000 A 
ATOM     23  C   UNL     1     -12.243  12.949  70.610  0.00  0.00    -0.000 A 
ATOM     24  C   UNL     1     -12.049  11.692  70.085  0.00  0.00    -0.004 A 
ENDBRANCH  18  19
ENDBRANCH  17  18
ENDBRANCH  16  17
ENDBRANCH  14  16
ENDBRANCH   1  14
TORSDOF 8
ENDMDL
MODEL 6
REMARK VINA RESULT:      -6.1      2.994      4.484
REMARK  Name = 
REMARK  8 active torsions:
REMARK  status: ('A' for Active; 'I' for Inactive)
REMARK    1  A    between atoms: C_2  and  C_3
REMARK    2  A    between atoms: C_2  and  N_11
REMARK    3  A    between atoms: C_3  and  C_4
REMARK    4  A    between atoms: C_4  and  C_5
REMARK    5  A    between atoms: N_11  and  C_12
REMARK    6  A    between atoms: C_12  and  C_13
REMARK    7  A    between atoms: C_13  and  C_15
REMARK    8  A    between atoms: C_20  and  C_21
REMARK                            x       y       z     vdW  Elec       q    Type
REMARK                         _______ _______ _______ _____ _____    ______ ____
ROOT
ATOM      1  C   UNL     1      -9.226  17.037  66.838  0.00  0.00    +0.126 C 
ENDROOT
BRANCH   1   2
ATOM      2  C   UNL     1      -8.596  15.698  66.075  0.00  0.00    +0.192 C 
ATOM      3  O   UNL     1      -8.148  15.096  67.409  0.00  0.00    -0.217 OA
BRANCH   2   4
ATOM      4  C   UNL     1     -10.000  14.868  66.093  0.00  0.00    +0.009 A 
ATOM      5  C   UNL     1      -9.913  13.515  66.122  0.00  0.00    +0.006 A 
ATOM      6  C   UNL     1     -11.052  12.770  65.866  0.00  0.00    +0.095 A 
ATOM      7  C   UNL     1     -11.971  13.288  64.994  0.00  0.00    +0.200 A 
ATOM      8  O   UNL     1     -12.632  12.391  64.152  0.00  0.00    -0.286 OA
ATOM      9  C   UNL     1     -12.024  14.642  64.775  0.00  0.00    +0.042 A 
ATOM     10  C   UNL     1     -10.925  15.387  65.190  0.00  0.00    +0.001 A 
BRANCH   6  11
ATOM     11  C   UNL     1     -11.298  11.507  66.530  0.00  0.00    +0.287 C 
ATOM     12  O   UNL     1     -10.539  10.535  66.242  0.00  0.00    -0.267 OA
ATOM     13  N   UNL     1     -12.027  11.416  67.734  0.00  0.00    -0.084 NA
ENDBRANCH   6  11
ENDBRANCH   2   4
ENDBRANCH   1   2
BRANCH   1  14
ATOM     14  N   UNL     1      -8.990  16.740  68.231  0.00  0.00    -0.216 NA
BRANCH  14  16
ATOM     15  C   UNL     1     -10.494  18.307  67.402  0.00  0.00    +0.019 C 
ATOM     16  C   UNL     1     -10.078  17.690  68.872  0.00  0.00    +0.073 C 
BRANCH  16  17
ATOM     17  C   UNL     1     -11.234  16.519  68.783  0.00  0.00    +0.022 C 
BRANCH  17  18
ATOM     18  C   UNL     1     -10.916  15.651  69.978  0.00  0.00    +0.028 C 
BRANCH  18  19
ATOM     19  C   UNL     1     -12.046  15.832  70.943  0.00  0.00    -0.022 A 
ATOM     20  C   UNL     1     -13.181  15.077  70.675  0.00  0.00    -0.004 A 
ATOM     21  C   UNL     1     -14.201  15.135  71.582  0.00  0.00    -0.000 A 
ATOM     22  C   UNL     1     -13.993  15.667  72.816  0.00  0.00    -0.000 A 
ATOM     23  C   UNL     1     -12.748  16.054  73.202  0.00  0.00    -0.000 A 
ATOM     24  C   UNL     1     -11.723  15.959  72.288  0.00  0.00    -0.004 A 
ENDBRANCH  18  19
ENDBRANCH  17  18
ENDBRANCH  16  17
ENDBRANCH  14  16
ENDBRANCH   1  14
TORSDOF 8
ENDMDL
MODEL 7
REMARK VINA RESULT:      -6.1      2.134      4.908
REMARK  Name = 
REMARK  8 active torsions:
REMARK  status: ('A' for Active; 'I' for Inactive)
REMARK    1  A    between atoms: C_2  and  C_3
REMARK    2  A    between atoms: C_2  and  N_11
REMARK    3  A    between atoms: C_3  and  C_4
REMARK    4  A    between atoms: C_4  and  C_5
REMARK    5  A    between atoms: N_11  and  C_12
REMARK    6  A    between atoms: C_12  and  C_13
REMARK    7  A    between atoms: C_13  and  C_15
REMARK    8  A    between atoms: C_20  and  C_21
REMARK                            x       y       z     vdW  Elec       q    Type
REMARK                         _______ _______ _______ _____ _____    ______ ____
ROOT
ATOM      1  C   UNL     1     -10.672  12.302  67.436  0.00  0.00    +0.126 C 
ENDROOT
BRANCH   1   2
ATOM      2  C   UNL     1     -10.840  13.332  66.138  0.00  0.00    +0.192 C 
ATOM      3  O   UNL     1     -12.349  13.445  66.369  0.00  0.00    -0.217 OA
BRANCH   2   4
ATOM      4  C   UNL     1     -10.537  14.680  67.005  0.00  0.00    +0.009 A 
ATOM      5  C   UNL     1     -10.413  15.840  66.314  0.00  0.00    +0.006 A 
ATOM      6  C   UNL     1      -9.893  16.948  66.961  0.00  0.00    +0.095 A 
ATOM      7  C   UNL     1      -8.958  16.735  67.938  0.00  0.00    +0.200 A 
ATOM      8  O   UNL     1      -7.920  17.664  68.043  0.00  0.00    -0.286 OA
ATOM      9  C   UNL     1      -8.900  15.526  68.584  0.00  0.00    +0.042 A 
ATOM     10  C   UNL     1      -9.570  14.464  67.985  0.00  0.00    +0.001 A 
BRANCH   6  11
ATOM     11  C   UNL     1     -10.351  18.288  66.660  0.00  0.00    +0.287 C 
ATOM     12  O   UNL     1     -10.618  18.559  65.453  0.00  0.00    -0.267 OA
ATOM     13  N   UNL     1     -10.898  19.138  67.644  0.00  0.00    -0.084 NA
ENDBRANCH   6  11
ENDBRANCH   2   4
ENDBRANCH   1   2
BRANCH   1  14
ATOM     14  N   UNL     1     -11.903  11.549  67.395  0.00  0.00    -0.216 NA
BRANCH  14  16
ATOM     15  C   UNL     1     -10.043  10.366  68.134  0.00  0.00    +0.019 C 
ATOM     16  C   UNL     1     -11.617  10.548  68.584  0.00  0.00    +0.073 C 
BRANCH  16  17
ATOM     17  C   UNL     1     -11.251  11.784  69.610  0.00  0.00    +0.022 C 
BRANCH  17  18
ATOM     18  C   UNL     1     -12.389  11.736  70.604  0.00  0.00    +0.028 C 
BRANCH  18  19
ATOM     19  C   UNL     1     -12.535  13.124  71.145  0.00  0.00    -0.022 A 
ATOM     20  C   UNL     1     -12.417  14.141  70.206  0.00  0.00    -0.004 A 
ATOM     21  C   UNL     1     -12.641  15.419  70.636  0.00  0.00    -0.000 A 
ATOM     22  C   UNL     1     -13.232  15.645  71.838  0.00  0.00    -0.000 A 
ATOM     23  C   UNL     1     -13.702  14.610  72.584  0.00  0.00    -0.000 A 
ATOM     24  C   UNL     1     -13.499  13.329  72.124  0.00  0.00    -0.004 A 
ENDBRANCH  18  19
ENDBRANCH  17  18
ENDBRANCH  16  17
ENDBRANCH  14  16
ENDBRANCH   1  14
TORSDOF 8
ENDMDL
MODEL 8
REMARK VINA RESULT:      -6.1      4.921      7.074
REMARK  Name = 
REMARK  8 active torsions:
REMARK  status: ('A' for Active; 'I' for Inactive)
REMARK    1  A    between atoms: C_2  and  C_3
REMARK    2  A    between atoms: C_2  and  N_11
REMARK    3  A    between atoms: C_3  and  C_4
REMARK    4  A    between atoms: C_4  and  C_5
REMARK    5  A    between atoms: N_11  and  C_12
REMARK    6  A    between atoms: C_12  and  C_13
REMARK    7  A    between atoms: C_13  and  C_15
REMARK    8  A    between atoms: C_20  and  C_21
REMARK                            x       y       z     vdW  Elec       q    Type
REMARK                         _______ _______ _______ _____ _____    ______ ____
ROOT
ATOM      1  C   UNL     1      -7.233  14.922  67.573  0.00  0.00    +0.126 C 
ENDROOT
BRANCH   1   2
ATOM      2  C   UNL     1      -7.997  13.530  67.073  0.00  0.00    +0.192 C 
ATOM      3  O   UNL     1      -8.498  13.245  68.490  0.00  0.00    -0.217 OA
BRANCH   2   4
ATOM      4  C   UNL     1      -9.382  14.285  66.660  0.00  0.00    +0.009 A 
ATOM      5  C   UNL     1     -10.122  13.717  65.675  0.00  0.00    +0.006 A 
ATOM      6  C   UNL     1     -11.149  14.452  65.107  0.00  0.00    +0.095 A 
ATOM      7  C   UNL     1     -10.994  15.810  65.028  0.00  0.00    +0.200 A 
ATOM      8  O   UNL     1     -11.506  16.446  63.894  0.00  0.00    -0.286 OA
ATOM      9  C   UNL     1     -10.136  16.456  65.882  0.00  0.00    +0.042 A 
ATOM     10  C   UNL     1      -9.215  15.665  66.560  0.00  0.00    +0.001 A 
BRANCH   6  11
ATOM     11  C   UNL     1     -12.372  13.823  64.656  0.00  0.00    +0.287 C 
ATOM     12  O   UNL     1     -13.440  14.108  65.273  0.00  0.00    -0.267 OA
ATOM     13  N   UNL     1     -12.507  13.269  63.366  0.00  0.00    -0.084 NA
ENDBRANCH   6  11
ENDBRANCH   2   4
ENDBRANCH   1   2
BRANCH   1  14
ATOM     14  N   UNL     1      -6.682  14.533  68.849  0.00  0.00    -0.216 NA
BRANCH  14  16
ATOM     15  C   UNL     1      -5.464  16.120  67.664  0.00  0.00    +0.019 C 
ATOM     16  C   UNL     1      -5.947  15.881  69.221  0.00  0.00    +0.073 C 
BRANCH  16  17
ATOM     17  C   UNL     1      -7.325  16.758  68.997  0.00  0.00    +0.022 C 
BRANCH  17  18
ATOM     18  C   UNL     1      -6.825  18.182  69.078  0.00  0.00    +0.028 C 
BRANCH  18  19
ATOM     19  C   UNL     1      -7.809  19.017  68.320  0.00  0.00    -0.022 A 
ATOM     20  C   UNL     1      -7.602  19.078  66.947  0.00  0.00    -0.004 A 
ATOM     21  C   UNL     1      -8.532  19.748  66.202  0.00  0.00    -0.000 A 
ATOM     22  C   UNL     1      -9.735  20.076  66.740  0.00  0.00    -0.000 A 
ATOM     23  C   UNL     1     -10.073  19.656  67.989  0.00  0.00    -0.000 A 
ATOM     24  C   UNL     1      -9.139  18.954  68.716  0.00  0.00    -0.004 A 
ENDBRANCH  18  19
ENDBRANCH  17  18
ENDBRANCH  16  17
ENDBRANCH  14  16
ENDBRANCH   1  14
TORSDOF 8
ENDMDL
MODEL 9
REMARK VINA RESULT:      -6.0      2.220      4.112
REMARK  Name = 
REMARK  8 active torsions:
REMARK  status: ('A' for Active; 'I' for Inactive)
REMARK    1  A    between atoms: C_2  and  C_3
REMARK    2  A    between atoms: C_2  and  N_11
REMARK    3  A    between atoms: C_3  and  C_4
REMARK    4  A    between atoms: C_4  and  C_5
REMARK    5  A    between atoms: N_11  and  C_12
REMARK    6  A    between atoms: C_12  and  C_13
REMARK    7  A    between atoms: C_13  and  C_15
REMARK    8  A    between atoms: C_20  and  C_21
REMARK                            x       y       z     vdW  Elec       q    Type
REMARK                         _______ _______ _______ _____ _____    ______ ____
ROOT
ATOM      1  C   UNL     1      -9.099  12.197  67.452  0.00  0.00    +0.126 C 
ENDROOT
BRANCH   1   2
ATOM      2  C   UNL     1      -8.723  13.657  68.161  0.00  0.00    +0.192 C 
ATOM      3  O   UNL     1      -7.727  13.989  67.047  0.00  0.00    -0.217 OA
BRANCH   2   4
ATOM      4  C   UNL     1      -9.927  14.471  67.421  0.00  0.00    +0.009 A 
ATOM      5  C   UNL     1     -10.474  13.895  66.322  0.00  0.00    +0.006 A 
ATOM      6  C   UNL     1     -11.297  14.658  65.511  0.00  0.00    +0.095 A 
ATOM      7  C   UNL     1     -11.029  15.997  65.409  0.00  0.00    +0.200 A 
ATOM      8  O   UNL     1     -11.235  16.597  64.165  0.00  0.00    -0.286 OA
ATOM      9  C   UNL     1     -10.332  16.636  66.404  0.00  0.00    +0.042 A 
ATOM     10  C   UNL     1      -9.641  15.830  67.302  0.00  0.00    +0.001 A 
BRANCH   6  11
ATOM     11  C   UNL     1     -12.436  14.081  64.828  0.00  0.00    +0.287 C 
ATOM     12  O   UNL     1     -13.567  14.179  65.390  0.00  0.00    -0.267 OA
ATOM     13  N   UNL     1     -12.429  13.807  63.445  0.00  0.00    -0.084 NA
ENDBRANCH   6  11
ENDBRANCH   2   4
ENDBRANCH   1   2
BRANCH   1  14
ATOM     14  N   UNL     1      -9.325  11.346  68.596  0.00  0.00    -0.216 NA
BRANCH  14  16
ATOM     15  C   UNL     1     -10.454   9.451  69.332  0.00  0.00    +0.019 C 
ATOM     16  C   UNL     1     -10.409  10.380  67.972  0.00  0.00    +0.073 C 
BRANCH  16  17
ATOM     17  C   UNL     1     -11.644  11.333  68.502  0.00  0.00    +0.022 C 
BRANCH  17  18
ATOM     18  C   UNL     1     -11.735  10.970  69.966  0.00  0.00    +0.028 C 
BRANCH  18  19
ATOM     19  C   UNL     1     -12.125  12.223  70.687  0.00  0.00    -0.022 A 
ATOM     20  C   UNL     1     -12.133  13.375  69.911  0.00  0.00    -0.004 A 
ATOM     21  C   UNL     1     -12.576  14.525  70.501  0.00  0.00    -0.000 A 
ATOM     22  C   UNL     1     -13.245  14.476  71.683  0.00  0.00    -0.000 A 
ATOM     23  C   UNL     1     -13.574  13.282  72.244  0.00  0.00    -0.000 A 
ATOM     24  C   UNL     1     -13.149  12.130  71.621  0.00  0.00    -0.004 A 
ENDBRANCH  18  19
ENDBRANCH  17  18
ENDBRANCH  16  17
ENDBRANCH  14  16
ENDBRANCH   1  14
TORSDOF 8
ENDMDL
