MODEL 1
REMARK VINA RESULT:      -7.5      0.000      0.000
REMARK  Name = 
REMARK  1 active torsions:
REMARK  status: ('A' for Active; 'I' for Inactive)
REMARK    1  A    between atoms: C_10  and  C_11
REMARK                            x       y       z     vdW  Elec       q    Type
REMARK                         _______ _______ _______ _____ _____    ______ ____
ROOT
ATOM      1  C   UNL     1     -11.944  12.623  65.527  0.00  0.00    +0.120 C 
ATOM      2  N   UNL     1     -11.571  13.316  66.732  0.00  0.00    -0.255 N 
ATOM      3  C   UNL     1     -11.402  14.723  66.572  0.00  0.00    +0.254 C 
ATOM      4  O   UNL     1     -10.903  15.074  65.460  0.00  0.00    -0.272 OA
ATOM      5  C   UNL     1     -11.141  15.755  67.623  0.00  0.00    +0.210 C 
ATOM      6  N   UNL     1     -11.818  15.449  68.862  0.00  0.00    -0.261 NA
ATOM      7  C   UNL     1     -11.720  14.437  69.673  0.00  0.00    +0.078 C 
ATOM      8  C   UNL     1     -11.524  13.054  69.223  0.00  0.00    +0.032 A 
ATOM      9  C   UNL     1     -11.872  12.134  70.202  0.00  0.00    +0.014 A 
ATOM     10  C   UNL     1     -11.934  10.775  69.922  0.00  0.00    +0.058 A 
ATOM     11 CL   UNL     1     -12.787   9.709  71.015  0.00  0.00    -0.082 Cl
ATOM     12  C   UNL     1     -11.621  10.326  68.645  0.00  0.00    +0.013 A 
ATOM     13  C   UNL     1     -11.326  11.216  67.647  0.00  0.00    +0.016 A 
ATOM     14  C   UNL     1     -11.409  12.554  67.933  0.00  0.00    +0.055 A 
ENDROOT
BRANCH   7  15
ATOM     15  C   UNL     1     -12.322  14.629  70.998  0.00  0.00    +0.017 A 
ATOM     16  C   UNL     1     -11.537  15.260  71.956  0.00  0.00    +0.001 A 
ATOM     17  C   UNL     1     -12.087  15.691  73.147  0.00  0.00    +0.000 A 
ATOM     18  C   UNL     1     -13.450  15.919  73.236  0.00  0.00    +0.000 A 
ATOM     19  C   UNL     1     -14.216  15.434  72.189  0.00  0.00    +0.000 A 
ATOM     20  C   UNL     1     -13.667  14.979  71.013  0.00  0.00    +0.001 A 
ENDBRANCH   7  15
TORSDOF 1
ENDMDL
MODEL 2
REMARK VINA RESULT:      -6.8      2.078      4.561
REMARK  Name = 
REMARK  1 active torsions:
REMARK  status: ('A' for Active; 'I' for Inactive)
REMARK    1  A    between atoms: C_10  and  C_11
REMARK                            x       y       z     vdW  Elec       q    Type
REMARK                         _______ _______ _______ _____ _____    ______ ____
ROOT
ATOM      1  C   UNL     1     -10.453  15.573  67.636  0.00  0.00    +0.120 C 
ATOM      2  N   UNL     1     -11.125  14.346  67.971  0.00  0.00    -0.255 N 
ATOM      3  C   UNL     1     -10.911  13.286  67.041  0.00  0.00    +0.254 C 
ATOM      4  O   UNL     1     -10.827  13.652  65.829  0.00  0.00    -0.272 OA
ATOM      5  C   UNL     1     -11.350  11.859  67.139  0.00  0.00    +0.210 C 
ATOM      6  N   UNL     1     -11.316  11.374  68.499  0.00  0.00    -0.261 NA
ATOM      7  C   UNL     1     -11.948  11.758  69.568  0.00  0.00    +0.078 C 
ATOM      8  C   UNL     1     -12.235  13.163  69.881  0.00  0.00    +0.032 A 
ATOM      9  C   UNL     1     -12.519  13.350  71.226  0.00  0.00    +0.014 A 
ATOM     10  C   UNL     1     -12.641  14.624  71.764  0.00  0.00    +0.058 A 
ATOM     11 CL   UNL     1     -12.554  14.837  73.498  0.00  0.00    -0.082 Cl
ATOM     12  C   UNL     1     -12.496  15.732  70.938  0.00  0.00    +0.013 A 
ATOM     13  C   UNL     1     -12.163  15.577  69.619  0.00  0.00    +0.016 A 
ATOM     14  C   UNL     1     -11.920  14.308  69.161  0.00  0.00    +0.055 A 
ENDROOT
BRANCH   7  15
ATOM     15  C   UNL     1     -11.911  10.818  70.696  0.00  0.00    +0.017 A 
ATOM     16  C   UNL     1     -13.128  10.294  71.114  0.00  0.00    +0.001 A 
ATOM     17  C   UNL     1     -13.174   9.238  72.002  0.00  0.00    +0.000 A 
ATOM     18  C   UNL     1     -12.077   8.404  72.143  0.00  0.00    +0.000 A 
ATOM     19  C   UNL     1     -10.897   8.854  71.573  0.00  0.00    +0.000 A 
ATOM     20  C   UNL     1     -10.847   9.923  70.710  0.00  0.00    +0.001 A 
ENDBRANCH   7  15
TORSDOF 1
ENDMDL
MODEL 3
REMARK VINA RESULT:      -6.7      2.733      3.910
REMARK  Name = 
REMARK  1 active torsions:
REMARK  status: ('A' for Active; 'I' for Inactive)
REMARK    1  A    between atoms: C_10  and  C_11
REMARK                            x       y       z     vdW  Elec       q    Type
REMARK                         _______ _______ _______ _____ _____    ______ ____
ROOT
ATOM      1  C   UNL     1      -9.156  11.564  67.305  0.00  0.00    +0.120 C 
ATOM      2  N   UNL     1     -10.344  11.983  68.002  0.00  0.00    -0.255 N 
ATOM      3  C   UNL     1     -10.894  10.995  68.870  0.00  0.00    +0.254 C 
ATOM      4  O   UNL     1     -10.795   9.803  68.449  0.00  0.00    -0.272 OA
ATOM      5  C   UNL     1     -12.036  11.129  69.828  0.00  0.00    +0.210 C 
ATOM      6  N   UNL     1     -12.084  12.439  70.433  0.00  0.00    -0.261 NA
ATOM      7  C   UNL     1     -12.233  13.624  69.916  0.00  0.00    +0.078 C 
ATOM      8  C   UNL     1     -11.638  14.032  68.638  0.00  0.00    +0.032 A 
ATOM      9  C   UNL     1     -11.573  15.412  68.512  0.00  0.00    +0.014 A 
ATOM     10  C   UNL     1     -10.883  16.006  67.462  0.00  0.00    +0.058 A 
ATOM     11 CL   UNL     1     -10.445  17.696  67.568  0.00  0.00    -0.082 Cl
ATOM     12  C   UNL     1     -10.264  15.204  66.511  0.00  0.00    +0.013 A 
ATOM     13  C   UNL     1     -10.267  13.841  66.642  0.00  0.00    +0.016 A 
ATOM     14  C   UNL     1     -10.844  13.303  67.764  0.00  0.00    +0.055 A 
ENDROOT
BRANCH   7  15
ATOM     15  C   UNL     1     -12.566  14.691  70.868  0.00  0.00    +0.017 A 
ATOM     16  C   UNL     1     -13.886  14.756  71.299  0.00  0.00    +0.001 A 
ATOM     17  C   UNL     1     -14.244  15.566  72.358  0.00  0.00    +0.000 A 
ATOM     18  C   UNL     1     -13.288  15.965  73.277  0.00  0.00    +0.000 A 
ATOM     19  C   UNL     1     -11.969  15.743  72.916  0.00  0.00    +0.000 A 
ATOM     20  C   UNL     1     -11.613  14.958  71.844  0.00  0.00    +0.001 A 
ENDBRANCH   7  15
TORSDOF 1
ENDMDL
MODEL 4
REMARK VINA RESULT:      -6.6      3.024      6.243
REMARK  Name = 
REMARK  1 active torsions:
REMARK  status: ('A' for Active; 'I' for Inactive)
REMARK    1  A    between atoms: C_10  and  C_11
REMARK                            x       y       z     vdW  Elec       q    Type
REMARK                         _______ _______ _______ _____ _____    ______ ____
ROOT
ATOM      1  C   UNL     1     -13.184  13.687  71.702  0.00  0.00    +0.120 C 
ATOM      2  N   UNL     1     -12.396  13.125  70.638  0.00  0.00    -0.255 N 
ATOM      3  C   UNL     1     -12.576  11.723  70.451  0.00  0.00    +0.254 C 
ATOM      4  O   UNL     1     -12.759  11.064  71.519  0.00  0.00    -0.272 OA
ATOM      5  C   UNL     1     -12.017  10.847  69.374  0.00  0.00    +0.210 C 
ATOM      6  N   UNL     1     -11.933  11.536  68.107  0.00  0.00    -0.261 NA
ATOM      7  C   UNL     1     -11.273  12.595  67.742  0.00  0.00    +0.078 C 
ATOM      8  C   UNL     1     -11.085  13.769  68.602  0.00  0.00    +0.032 A 
ATOM      9  C   UNL     1     -10.740  14.899  67.873  0.00  0.00    +0.014 A 
ATOM     10  C   UNL     1     -10.691  16.152  68.470  0.00  0.00    +0.058 A 
ATOM     11 CL   UNL     1     -10.695  17.583  67.465  0.00  0.00    -0.082 Cl
ATOM     12  C   UNL     1     -10.974  16.275  69.825  0.00  0.00    +0.013 A 
ATOM     13  C   UNL     1     -11.369  15.185  70.555  0.00  0.00    +0.016 A 
ATOM     14  C   UNL     1     -11.533  13.994  69.896  0.00  0.00    +0.055 A 
ENDROOT
BRANCH   7  15
ATOM     15  C   UNL     1     -11.169  12.807  66.293  0.00  0.00    +0.017 A 
ATOM     16  C   UNL     1     -10.178  12.095  65.626  0.00  0.00    +0.001 A 
ATOM     17  C   UNL     1     -10.150  12.047  64.247  0.00  0.00    +0.000 A 
ATOM     18  C   UNL     1     -11.303  12.299  63.522  0.00  0.00    +0.000 A 
ATOM     19  C   UNL     1     -12.355  12.856  64.232  0.00  0.00    +0.000 A 
ATOM     20  C   UNL     1     -12.371  12.929  65.605  0.00  0.00    +0.001 A 
ENDBRANCH   7  15
TORSDOF 1
ENDMDL
MODEL 5
REMARK VINA RESULT:      -6.6      2.365      5.822
REMARK  Name = 
REMARK  1 active torsions:
REMARK  status: ('A' for Active; 'I' for Inactive)
REMARK    1  A    between atoms: C_10  and  C_11
REMARK                            x       y       z     vdW  Elec       q    Type
REMARK                         _______ _______ _______ _____ _____    ______ ____
ROOT
ATOM      1  C   UNL     1      -9.796  17.704  68.758  0.00  0.00    +0.120 C 
ATOM      2  N   UNL     1     -10.490  16.983  67.724  0.00  0.00    -0.255 N 
ATOM      3  C   UNL     1     -10.298  17.508  66.412  0.00  0.00    +0.254 C 
ATOM      4  O   UNL     1     -10.212  18.773  66.354  0.00  0.00    -0.272 OA
ATOM      5  C   UNL     1     -10.762  16.945  65.106  0.00  0.00    +0.210 C 
ATOM      6  N   UNL     1     -10.732  15.501  65.099  0.00  0.00    -0.261 NA
ATOM      7  C   UNL     1     -11.353  14.620  65.827  0.00  0.00    +0.078 C 
ATOM      8  C   UNL     1     -11.613  14.792  67.261  0.00  0.00    +0.032 A 
ATOM      9  C   UNL     1     -11.889  13.585  67.889  0.00  0.00    +0.014 A 
ATOM     10  C   UNL     1     -11.985  13.500  69.271  0.00  0.00    +0.058 A 
ATOM     11 CL   UNL     1     -11.888  11.934  70.045  0.00  0.00    -0.082 Cl
ATOM     12  C   UNL     1     -11.823  14.646  70.040  0.00  0.00    +0.013 A 
ATOM     13  C   UNL     1     -11.498  15.839  69.450  0.00  0.00    +0.016 A 
ATOM     14  C   UNL     1     -11.280  15.849  68.097  0.00  0.00    +0.055 A 
ENDROOT
BRANCH   7  15
ATOM     15  C   UNL     1     -11.329  13.245  65.314  0.00  0.00    +0.017 A 
ATOM     16  C   UNL     1     -12.100  12.984  64.188  0.00  0.00    +0.001 A 
ATOM     17  C   UNL     1     -11.964  11.795  63.499  0.00  0.00    +0.000 A 
ATOM     18  C   UNL     1     -10.798  11.057  63.616  0.00  0.00    +0.000 A 
ATOM     19  C   UNL     1      -9.944  11.432  64.641  0.00  0.00    +0.000 A 
ATOM     20  C   UNL     1     -10.096  12.603  65.346  0.00  0.00    +0.001 A 
ENDBRANCH   7  15
TORSDOF 1
ENDMDL
MODEL 6
REMARK VINA RESULT:      -6.4      2.224      4.571
REMARK  Name = 
REMARK  1 active torsions:
REMARK  status: ('A' for Active; 'I' for Inactive)
REMARK    1  A    between atoms: C_10  and  C_11
REMARK                            x       y       z     vdW  Elec       q    Type
REMARK                         _______ _______ _______ _____ _____    ______ ____
ROOT
ATOM      1  C   UNL     1      -9.639  14.332  66.473  0.00  0.00    +0.120 C 
ATOM      2  N   UNL     1     -10.476  13.306  67.037  0.00  0.00    -0.255 N 
ATOM      3  C   UNL     1     -10.397  12.050  66.367  0.00  0.00    +0.254 C 
ATOM      4  O   UNL     1     -10.250  12.127  65.110  0.00  0.00    -0.272 OA
ATOM      5  C   UNL     1     -11.026  10.748  66.752  0.00  0.00    +0.210 C 
ATOM      6  N   UNL     1     -11.074  10.573  68.185  0.00  0.00    -0.261 NA
ATOM      7  C   UNL     1     -11.661  11.260  69.120  0.00  0.00    +0.078 C 
ATOM      8  C   UNL     1     -11.758  12.725  69.110  0.00  0.00    +0.032 A 
ATOM      9  C   UNL     1     -12.030  13.237  70.370  0.00  0.00    +0.014 A 
ATOM     10  C   UNL     1     -11.984  14.603  70.616  0.00  0.00    +0.058 A 
ATOM     11 CL   UNL     1     -11.889  15.178  72.265  0.00  0.00    -0.082 Cl
ATOM     12  C   UNL     1     -11.680  15.474  69.577  0.00  0.00    +0.013 A 
ATOM     13  C   UNL     1     -11.356  14.992  68.337  0.00  0.00    +0.016 A 
ATOM     14  C   UNL     1     -11.283  13.633  68.174  0.00  0.00    +0.055 A 
ENDROOT
BRANCH   7  15
ATOM     15  C   UNL     1     -11.765  10.594  70.424  0.00  0.00    +0.017 A 
ATOM     16  C   UNL     1     -13.029  10.161  70.807  0.00  0.00    +0.001 A 
ATOM     17  C   UNL     1     -13.190   9.327  71.895  0.00  0.00    +0.000 A 
ATOM     18  C   UNL     1     -12.128   8.558  72.340  0.00  0.00    +0.000 A 
ATOM     19  C   UNL     1     -10.885   8.884  71.822  0.00  0.00    +0.000 A 
ATOM     20  C   UNL     1     -10.722   9.736  70.756  0.00  0.00    +0.001 A 
ENDBRANCH   7  15
TORSDOF 1
ENDMDL
MODEL 7
REMARK VINA RESULT:      -6.3      3.156      5.140
REMARK  Name = 
REMARK  1 active torsions:
REMARK  status: ('A' for Active; 'I' for Inactive)
REMARK    1  A    between atoms: C_10  and  C_11
REMARK                            x       y       z     vdW  Elec       q    Type
REMARK                         _______ _______ _______ _____ _____    ______ ____
ROOT
ATOM      1  C   UNL     1     -11.964  12.168  70.302  0.00  0.00    +0.120 C 
ATOM      2  N   UNL     1     -12.005  13.554  69.918  0.00  0.00    -0.255 N 
ATOM      3  C   UNL     1     -12.121  14.464  71.009  0.00  0.00    +0.254 C 
ATOM      4  O   UNL     1     -12.841  14.052  71.969  0.00  0.00    -0.272 OA
ATOM      5  C   UNL     1     -12.068  15.959  70.986  0.00  0.00    +0.210 C 
ATOM      6  N   UNL     1     -11.142  16.452  69.993  0.00  0.00    -0.261 NA
ATOM      7  C   UNL     1     -11.112  16.319  68.699  0.00  0.00    +0.078 C 
ATOM      8  C   UNL     1     -11.490  15.085  68.002  0.00  0.00    +0.032 A 
ATOM      9  C   UNL     1     -10.981  15.039  66.712  0.00  0.00    +0.014 A 
ATOM     10  C   UNL     1     -11.070  13.885  65.945  0.00  0.00    +0.058 A 
ATOM     11 CL   UNL     1     -10.053  13.711  64.532  0.00  0.00    -0.082 Cl
ATOM     12  C   UNL     1     -11.696  12.761  66.471  0.00  0.00    +0.013 A 
ATOM     13  C   UNL     1     -12.159  12.762  67.760  0.00  0.00    +0.016 A 
ATOM     14  C   UNL     1     -11.931  13.877  68.524  0.00  0.00    +0.055 A 
ENDROOT
BRANCH   7  15
ATOM     15  C   UNL     1     -10.209  17.236  67.992  0.00  0.00    +0.017 A 
ATOM     16  C   UNL     1     -10.752  18.439  67.559  0.00  0.00    +0.001 A 
ATOM     17  C   UNL     1      -9.940  19.455  67.096  0.00  0.00    +0.000 A 
ATOM     18  C   UNL     1      -8.604  19.491  67.458  0.00  0.00    +0.000 A 
ATOM     19  C   UNL     1      -8.104  18.341  68.049  0.00  0.00    +0.000 A 
ATOM     20  C   UNL     1      -8.911  17.317  68.485  0.00  0.00    +0.001 A 
ENDBRANCH   7  15
TORSDOF 1
ENDMDL
MODEL 8
REMARK VINA RESULT:      -6.2      3.073      4.444
REMARK  Name = 
REMARK  1 active torsions:
REMARK  status: ('A' for Active; 'I' for Inactive)
REMARK    1  A    between atoms: C_10  and  C_11
REMARK                            x       y       z     vdW  Elec       q    Type
REMARK                         _______ _______ _______ _____ _____    ______ ____
ROOT
ATOM      1  C   UNL     1      -9.878  10.040  65.068  0.00  0.00    +0.120 C 
ATOM      2  N   UNL     1     -10.671  10.650  66.103  0.00  0.00    -0.255 N 
ATOM      3  C   UNL     1     -10.629   9.968  67.354  0.00  0.00    +0.254 C 
ATOM      4  O   UNL     1     -10.565   8.704  67.268  0.00  0.00    -0.272 OA
ATOM      5  C   UNL     1     -11.224  10.383  68.663  0.00  0.00    +0.210 C 
ATOM      6  N   UNL     1     -11.177  11.815  68.848  0.00  0.00    -0.261 NA
ATOM      7  C   UNL     1     -11.705  12.791  68.170  0.00  0.00    +0.078 C 
ATOM      8  C   UNL     1     -11.811  12.798  66.707  0.00  0.00    +0.032 A 
ATOM      9  C   UNL     1     -12.002  14.078  66.205  0.00  0.00    +0.014 A 
ATOM     10  C   UNL     1     -11.948  14.329  64.840  0.00  0.00    +0.058 A 
ATOM     11 CL   UNL     1     -11.748  15.973  64.276  0.00  0.00    -0.082 Cl
ATOM     12  C   UNL     1     -11.718  13.279  63.960  0.00  0.00    +0.013 A 
ATOM     13  C   UNL     1     -11.473  12.017  64.431  0.00  0.00    +0.016 A 
ATOM     14  C   UNL     1     -11.403  11.840  65.789  0.00  0.00    +0.055 A 
ENDROOT
BRANCH   7  15
ATOM     15  C   UNL     1     -11.719  14.095  68.846  0.00  0.00    +0.017 A 
ATOM     16  C   UNL     1     -12.636  14.254  69.879  0.00  0.00    +0.001 A 
ATOM     17  C   UNL     1     -12.569  15.347  70.720  0.00  0.00    +0.000 A 
ATOM     18  C   UNL     1     -11.380  16.044  70.855  0.00  0.00    +0.000 A 
ATOM     19  C   UNL     1     -10.399  15.756  69.919  0.00  0.00    +0.000 A 
ATOM     20  C   UNL     1     -10.478  14.684  69.062  0.00  0.00    +0.001 A 
ENDBRANCH   7  15
TORSDOF 1
ENDMDL
MODEL 9
REMARK VINA RESULT:      -6.1      1.935      5.398
REMARK  Name = 
REMARK  1 active torsions:
REMARK  status: ('A' for Active; 'I' for Inactive)
REMARK    1  A    between atoms: C_10  and  C_11
REMARK                            x       y       z     vdW  Elec       q    Type
REMARK                         _______ _______ _______ _____ _____    ______ ____
ROOT
ATOM      1  C   UNL     1     -11.284  15.939  70.647  0.00  0.00    +0.120 C 
ATOM      2  N   UNL     1     -11.393  15.232  69.398  0.00  0.00    -0.255 N 
ATOM      3  C   UNL     1     -11.012  15.995  68.256  0.00  0.00    +0.254 C 
ATOM      4  O   UNL     1     -11.314  17.226  68.314  0.00  0.00    -0.272 OA
ATOM      5  C   UNL     1     -10.885  15.544  66.835  0.00  0.00    +0.210 C 
ATOM      6  N   UNL     1     -10.403  14.186  66.739  0.00  0.00    -0.261 NA
ATOM      7  C   UNL     1     -10.896  13.062  67.168  0.00  0.00    +0.078 C 
ATOM      8  C   UNL     1     -11.593  12.920  68.452  0.00  0.00    +0.032 A 
ATOM      9  C   UNL     1     -11.642  11.599  68.874  0.00  0.00    +0.014 A 
ATOM     10  C   UNL     1     -12.096  11.268  70.144  0.00  0.00    +0.058 A 
ATOM     11 CL   UNL     1     -11.736   9.686  70.800  0.00  0.00    -0.082 Cl
ATOM     12  C   UNL     1     -12.526  12.274  71.001  0.00  0.00    +0.013 A 
ATOM     13  C   UNL     1     -12.438  13.589  70.629  0.00  0.00    +0.016 A 
ATOM     14  C   UNL     1     -11.860  13.878  69.420  0.00  0.00    +0.055 A 
ENDROOT
BRANCH   7  15
ATOM     15  C   UNL     1     -10.297  11.850  66.597  0.00  0.00    +0.017 A 
ATOM     16  C   UNL     1     -10.827  11.396  65.395  0.00  0.00    +0.001 A 
ATOM     17  C   UNL     1     -10.187  10.412  64.668  0.00  0.00    +0.000 A 
ATOM     18  C   UNL     1      -8.835  10.181  64.857  0.00  0.00    +0.000 A 
ATOM     19  C   UNL     1      -8.268  10.778  65.971  0.00  0.00    +0.000 A 
ATOM     20  C   UNL     1      -8.915  11.739  66.712  0.00  0.00    +0.001 A 
ENDBRANCH   7  15
TORSDOF 1
ENDMDL
