MODEL 1
REMARK VINA RESULT:      -3.9      0.000      0.000
REMARK  Name = 
REMARK  1 active torsions:
REMARK  status: ('A' for Active; 'I' for Inactive)
REMARK    1  A    between atoms: C_2  and  P_4
REMARK                            x       y       z     vdW  Elec       q    Type
REMARK                         _______ _______ _______ _____ _____    ______ ____
ROOT
ATOM      1  P   UNL     1     -11.658  14.192  64.717  0.00  0.00    +0.222 P 
ATOM      2  O   UNL     1     -10.372  13.143  64.410  0.00  0.00    -0.350 OA
ATOM      3  O   UNL     1     -12.413  13.781  66.160  0.00  0.00    -0.350 OA
ATOM      4  O   UNL     1     -12.649  14.011  63.590  0.00  0.00    -0.449 OA
ENDROOT
BRANCH   1   6
ATOM      5  O   UNL     1     -11.584  16.676  63.921  0.00  0.00    -0.238 OA
ATOM      6  C   UNL     1     -11.087  15.897  64.765  0.00  0.00    +0.411 C 
ATOM      7  O   UNL     1      -9.868  16.143  65.404  0.00  0.00    -0.238 OA
ENDBRANCH   1   6
TORSDOF 1
ENDMDL
MODEL 2
REMARK VINA RESULT:      -3.9     10.437     11.697
REMARK  Name = 
REMARK  1 active torsions:
REMARK  status: ('A' for Active; 'I' for Inactive)
REMARK    1  A    between atoms: C_2  and  P_4
REMARK                            x       y       z     vdW  Elec       q    Type
REMARK                         _______ _______ _______ _____ _____    ______ ____
ROOT
ATOM      1  P   UNL     1      -3.935  20.959  71.713  0.00  0.00    +0.222 P 
ATOM      2  O   UNL     1      -3.145  21.242  70.248  0.00  0.00    -0.350 OA
ATOM      3  O   UNL     1      -4.422  22.412  72.401  0.00  0.00    -0.350 OA
ATOM      4  O   UNL     1      -2.929  20.306  72.633  0.00  0.00    -0.449 OA
ENDROOT
BRANCH   1   6
ATOM      5  O   UNL     1      -6.442  20.421  71.229  0.00  0.00    -0.238 OA
ATOM      6  C   UNL     1      -5.345  19.870  71.473  0.00  0.00    +0.411 C 
ATOM      7  O   UNL     1      -5.242  18.572  71.983  0.00  0.00    -0.238 OA
ENDBRANCH   1   6
TORSDOF 1
ENDMDL
MODEL 3
REMARK VINA RESULT:      -3.9     10.398     11.777
REMARK  Name = 
REMARK  1 active torsions:
REMARK  status: ('A' for Active; 'I' for Inactive)
REMARK    1  A    between atoms: C_2  and  P_4
REMARK                            x       y       z     vdW  Elec       q    Type
REMARK                         _______ _______ _______ _____ _____    ______ ____
ROOT
ATOM      1  P   UNL     1      -3.915  21.060  71.755  0.00  0.00    +0.222 P 
ATOM      2  O   UNL     1      -4.502  22.462  72.487  0.00  0.00    -0.350 OA
ATOM      3  O   UNL     1      -2.775  20.321  72.743  0.00  0.00    -0.350 OA
ATOM      4  O   UNL     1      -3.234  21.487  70.474  0.00  0.00    -0.449 OA
ENDROOT
BRANCH   1   6
ATOM      5  O   UNL     1      -6.323  20.437  70.967  0.00  0.00    -0.238 OA
ATOM      6  C   UNL     1      -5.261  19.926  71.386  0.00  0.00    +0.411 C 
ATOM      7  O   UNL     1      -5.207  18.659  71.976  0.00  0.00    -0.238 OA
ENDBRANCH   1   6
TORSDOF 1
ENDMDL
MODEL 4
REMARK VINA RESULT:      -3.9      0.638      1.439
REMARK  Name = 
REMARK  1 active torsions:
REMARK  status: ('A' for Active; 'I' for Inactive)
REMARK    1  A    between atoms: C_2  and  P_4
REMARK                            x       y       z     vdW  Elec       q    Type
REMARK                         _______ _______ _______ _____ _____    ______ ____
ROOT
ATOM      1  P   UNL     1     -11.979  14.119  64.697  0.00  0.00    +0.222 P 
ATOM      2  O   UNL     1     -12.473  13.697  63.140  0.00  0.00    -0.350 OA
ATOM      3  O   UNL     1     -10.913  12.969  65.301  0.00  0.00    -0.350 OA
ATOM      4  O   UNL     1     -13.217  14.126  65.563  0.00  0.00    -0.449 OA
ENDROOT
BRANCH   1   6
ATOM      5  O   UNL     1     -11.674  16.580  63.884  0.00  0.00    -0.238 OA
ATOM      6  C   UNL     1     -11.218  15.749  64.701  0.00  0.00    +0.411 C 
ATOM      7  O   UNL     1      -9.943  15.856  65.264  0.00  0.00    -0.238 OA
ENDBRANCH   1   6
TORSDOF 1
ENDMDL
MODEL 5
REMARK VINA RESULT:      -3.9      0.742      1.903
REMARK  Name = 
REMARK  1 active torsions:
REMARK  status: ('A' for Active; 'I' for Inactive)
REMARK    1  A    between atoms: C_2  and  P_4
REMARK                            x       y       z     vdW  Elec       q    Type
REMARK                         _______ _______ _______ _____ _____    ______ ____
ROOT
ATOM      1  P   UNL     1     -12.011  14.010  64.691  0.00  0.00    +0.222 P 
ATOM      2  O   UNL     1     -12.486  13.652  63.112  0.00  0.00    -0.350 OA
ATOM      3  O   UNL     1     -11.039  12.782  65.299  0.00  0.00    -0.350 OA
ATOM      4  O   UNL     1     -13.271  14.080  65.523  0.00  0.00    -0.449 OA
ENDROOT
BRANCH   1   6
ATOM      5  O   UNL     1     -10.470  15.814  65.779  0.00  0.00    -0.238 OA
ATOM      6  C   UNL     1     -11.148  15.587  64.752  0.00  0.00    +0.411 C 
ATOM      7  O   UNL     1     -11.611  16.600  63.905  0.00  0.00    -0.238 OA
ENDBRANCH   1   6
TORSDOF 1
ENDMDL
MODEL 6
REMARK VINA RESULT:      -3.8      7.061      8.033
REMARK  Name = 
REMARK  1 active torsions:
REMARK  status: ('A' for Active; 'I' for Inactive)
REMARK    1  A    between atoms: C_2  and  P_4
REMARK                            x       y       z     vdW  Elec       q    Type
REMARK                         _______ _______ _______ _____ _____    ______ ____
ROOT
ATOM      1  P   UNL     1     -13.686  14.812  71.937  0.00  0.00    +0.222 P 
ATOM      2  O   UNL     1     -12.916  14.552  70.459  0.00  0.00    -0.350 OA
ATOM      3  O   UNL     1     -14.161  13.349  72.612  0.00  0.00    -0.350 OA
ATOM      4  O   UNL     1     -14.924  15.630  71.648  0.00  0.00    -0.449 OA
ENDROOT
BRANCH   1   6
ATOM      5  O   UNL     1     -11.859  16.570  72.555  0.00  0.00    -0.238 OA
ATOM      6  C   UNL     1     -12.609  15.708  73.065  0.00  0.00    +0.411 C 
ATOM      7  O   UNL     1     -12.356  15.119  74.308  0.00  0.00    -0.238 OA
ENDBRANCH   1   6
TORSDOF 1
ENDMDL
MODEL 7
REMARK VINA RESULT:      -3.8      7.031      8.185
REMARK  Name = 
REMARK  1 active torsions:
REMARK  status: ('A' for Active; 'I' for Inactive)
REMARK    1  A    between atoms: C_2  and  P_4
REMARK                            x       y       z     vdW  Elec       q    Type
REMARK                         _______ _______ _______ _____ _____    ______ ____
ROOT
ATOM      1  P   UNL     1     -13.661  14.703  71.926  0.00  0.00    +0.222 P 
ATOM      2  O   UNL     1     -15.051  15.580  71.540  0.00  0.00    -0.350 OA
ATOM      3  O   UNL     1     -12.828  14.287  70.528  0.00  0.00    -0.350 OA
ATOM      4  O   UNL     1     -14.120  13.433  72.606  0.00  0.00    -0.449 OA
ENDROOT
BRANCH   1   6
ATOM      5  O   UNL     1     -11.875  16.515  72.507  0.00  0.00    -0.238 OA
ATOM      6  C   UNL     1     -12.605  15.646  73.035  0.00  0.00    +0.411 C 
ATOM      7  O   UNL     1     -12.339  15.088  74.289  0.00  0.00    -0.238 OA
ENDBRANCH   1   6
TORSDOF 1
ENDMDL
MODEL 8
REMARK VINA RESULT:      -3.7      6.283      7.380
REMARK  Name = 
REMARK  1 active torsions:
REMARK  status: ('A' for Active; 'I' for Inactive)
REMARK    1  A    between atoms: C_2  and  P_4
REMARK                            x       y       z     vdW  Elec       q    Type
REMARK                         _______ _______ _______ _____ _____    ______ ____
ROOT
ATOM      1  P   UNL     1     -13.883  15.010  72.020  0.00  0.00    +0.222 P 
ATOM      2  O   UNL     1     -14.200  13.452  72.584  0.00  0.00    -0.350 OA
ATOM      3  O   UNL     1     -13.465  16.018  73.297  0.00  0.00    -0.350 OA
ATOM      4  O   UNL     1     -15.165  15.522  71.404  0.00  0.00    -0.449 OA
ENDROOT
BRANCH   1   6
ATOM      5  O   UNL     1     -12.473  15.996  70.057  0.00  0.00    -0.238 OA
ATOM      6  C   UNL     1     -12.577  14.983  70.784  0.00  0.00    +0.411 C 
ATOM      7  O   UNL     1     -12.068  13.731  70.421  0.00  0.00    -0.238 OA
ENDBRANCH   1   6
TORSDOF 1
ENDMDL
MODEL 9
REMARK VINA RESULT:      -3.7      7.323      8.623
REMARK  Name = 
REMARK  1 active torsions:
REMARK  status: ('A' for Active; 'I' for Inactive)
REMARK    1  A    between atoms: C_2  and  P_4
REMARK                            x       y       z     vdW  Elec       q    Type
REMARK                         _______ _______ _______ _____ _____    ______ ____
ROOT
ATOM      1  P   UNL     1     -12.919  15.485  72.868  0.00  0.00    +0.222 P 
ATOM      2  O   UNL     1     -12.417  15.412  74.477  0.00  0.00    -0.350 OA
ATOM      3  O   UNL     1     -11.816  16.364  71.954  0.00  0.00    -0.350 OA
ATOM      4  O   UNL     1     -14.242  16.216  72.854  0.00  0.00    -0.449 OA
ENDROOT
BRANCH   1   6
ATOM      5  O   UNL     1     -12.469  13.564  71.159  0.00  0.00    -0.238 OA
ATOM      6  C   UNL     1     -13.124  13.831  72.192  0.00  0.00    +0.411 C 
ATOM      7  O   UNL     1     -14.272  13.127  72.569  0.00  0.00    -0.238 OA
ENDBRANCH   1   6
TORSDOF 1
ENDMDL
