MODEL 1
REMARK VINA RESULT:      -8.8      0.000      0.000
REMARK  Name = 
REMARK  12 active torsions:
REMARK  status: ('A' for Active; 'I' for Inactive)
REMARK    1  A    between atoms: C_2  and  C_4
REMARK    2  A    between atoms: C_4  and  N_5
REMARK    3  A    between atoms: N_5  and  C_6
REMARK    4  A    between atoms: N_5  and  S_29
REMARK    5  A    between atoms: C_6  and  C_7
REMARK    6  A    between atoms: C_7  and  C_9
REMARK    7  A    between atoms: C_9  and  C_10
REMARK    8  A    between atoms: C_9  and  N_17
REMARK    9  A    between atoms: C_10  and  C_11
REMARK   10  A    between atoms: C_18  and  O_20
REMARK   11  A    between atoms: O_20  and  C_21
REMARK   12  A    between atoms: S_29  and  C_32
REMARK                            x       y       z     vdW  Elec       q    Type
REMARK                         _______ _______ _______ _____ _____    ______ ____
ROOT
ATOM      1  C   UNL     1     -10.477  14.980  66.966  0.00  0.00    +0.135 C 
ENDROOT
BRANCH   1   2
ATOM      2  N   UNL     1     -10.992  15.654  68.267  0.00  0.00    -0.167 NA
ATOM      3  C   UNL     1     -10.875  14.762  69.316  0.00  0.00    +0.421 C 
ATOM      4  O   UNL     1      -9.841  15.223  69.867  0.00  0.00    -0.225 OA
BRANCH   3   5
ATOM      5  O   UNL     1     -11.543  14.199  70.311  0.00  0.00    -0.435 OA
BRANCH   5   6
ATOM      6  C   UNL     1     -12.986  14.601  70.609  0.00  0.00    +0.205 C 
ATOM      7  C   UNL     1     -12.647  15.894  71.649  0.00  0.00    +0.102 C 
ATOM      8  C   UNL     1     -14.139  15.489  72.379  0.00  0.00    +0.239 C 
ATOM      9  O   UNL     1     -13.688  16.189  73.653  0.00  0.00    -0.330 OA
ATOM     10  C   UNL     1     -12.512  15.617  73.965  0.00  0.00    +0.145 C 
ATOM     11  O   UNL     1     -13.636  14.137  72.855  0.00  0.00    -0.327 OA
ATOM     12  C   UNL     1     -11.769  15.157  72.761  0.00  0.00    +0.041 C 
ATOM     13  C   UNL     1     -13.130  13.518  71.820  0.00  0.00    +0.188 C 
ENDBRANCH   5   6
ENDBRANCH   3   5
ENDBRANCH   1   2
BRANCH   1  14
ATOM     14  C   UNL     1     -10.482  16.383  65.965  0.00  0.00    +0.190 C 
ATOM     15  O   UNL     1     -10.150  15.685  64.670  0.00  0.00    -0.220 OA
BRANCH  14  16
ATOM     16  C   UNL     1      -8.902  16.666  66.289  0.00  0.00    +0.130 C 
BRANCH  16  17
ATOM     17  N   UNL     1      -8.670  18.037  66.313  0.00  0.00    -0.153 NA
BRANCH  17  18
ATOM     18  S   UNL     1      -7.101  18.601  66.083  0.00  0.00    +0.063 S 
ATOM     19  O   UNL     1      -7.164  19.699  65.044  0.00  0.00    -0.153 OA
ATOM     20  O   UNL     1      -6.298  17.432  65.550  0.00  0.00    -0.153 OA
BRANCH  18  21
ATOM     21  C   UNL     1      -6.357  19.174  67.543  0.00  0.00    +0.122 A 
ATOM     22  C   UNL     1      -5.842  20.431  67.728  0.00  0.00    +0.021 A 
ATOM     23  C   UNL     1      -5.680  20.854  69.043  0.00  0.00    +0.019 A 
ATOM     24  C   UNL     1      -5.931  20.000  70.111  0.00  0.00    +0.089 A 
ATOM     25  N   UNL     1      -6.283  20.470  71.406  0.00  0.00    -0.128 NA
ATOM     26  C   UNL     1      -5.860  18.647  69.833  0.00  0.00    +0.019 A 
ATOM     27  C   UNL     1      -6.063  18.247  68.536  0.00  0.00    +0.021 A 
ENDBRANCH  18  21
ENDBRANCH  17  18
BRANCH  17  28
ATOM     28  C   UNL     1      -9.731  18.948  66.261  0.00  0.00    +0.096 C 
BRANCH  28  30
ATOM     29  C   UNL     1      -9.800  20.578  67.447  0.00  0.00    +0.001 C 
ATOM     30  C   UNL     1      -9.818  19.846  67.481  0.00  0.00    +0.018 C 
ATOM     31  C   UNL     1      -9.769  19.027  68.753  0.00  0.00    +0.001 C 
ENDBRANCH  28  30
ENDBRANCH  17  28
ENDBRANCH  16  17
ENDBRANCH  14  16
ENDBRANCH   1  14
BRANCH   1  32
ATOM     32  C   UNL     1     -11.939  14.409  66.517  0.00  0.00    +0.051 C 
BRANCH  32  33
ATOM     33  C   UNL     1     -11.796  13.138  65.838  0.00  0.00    -0.020 A 
ATOM     34  C   UNL     1     -12.386  12.980  64.589  0.00  0.00    -0.004 A 
ATOM     35  C   UNL     1     -11.957  12.067  63.668  0.00  0.00    -0.000 A 
ATOM     36  C   UNL     1     -10.962  11.186  64.012  0.00  0.00    -0.000 A 
ATOM     37  C   UNL     1     -10.135  11.566  65.058  0.00  0.00    -0.000 A 
ATOM     38  C   UNL     1     -10.640  12.404  66.023  0.00  0.00    -0.004 A 
ENDBRANCH  32  33
ENDBRANCH   1  32
TORSDOF 12
ENDMDL
MODEL 2
REMARK VINA RESULT:      -7.5      1.542      2.271
REMARK  Name = 
REMARK  12 active torsions:
REMARK  status: ('A' for Active; 'I' for Inactive)
REMARK    1  A    between atoms: C_2  and  C_4
REMARK    2  A    between atoms: C_4  and  N_5
REMARK    3  A    between atoms: N_5  and  C_6
REMARK    4  A    between atoms: N_5  and  S_29
REMARK    5  A    between atoms: C_6  and  C_7
REMARK    6  A    between atoms: C_7  and  C_9
REMARK    7  A    between atoms: C_9  and  C_10
REMARK    8  A    between atoms: C_9  and  N_17
REMARK    9  A    between atoms: C_10  and  C_11
REMARK   10  A    between atoms: C_18  and  O_20
REMARK   11  A    between atoms: O_20  and  C_21
REMARK   12  A    between atoms: S_29  and  C_32
REMARK                            x       y       z     vdW  Elec       q    Type
REMARK                         _______ _______ _______ _____ _____    ______ ____
ROOT
ATOM      1  C   UNL     1     -10.551  14.602  67.880  0.00  0.00    +0.135 C 
ENDROOT
BRANCH   1   2
ATOM      2  N   UNL     1     -11.309  15.840  68.432  0.00  0.00    -0.167 NA
ATOM      3  C   UNL     1     -10.954  16.037  69.753  0.00  0.00    +0.421 C 
ATOM      4  O   UNL     1     -10.147  16.993  69.612  0.00  0.00    -0.225 OA
BRANCH   3   5
ATOM      5  O   UNL     1     -11.445  16.211  70.970  0.00  0.00    -0.435 OA
BRANCH   5   6
ATOM      6  C   UNL     1     -11.539  15.042  71.949  0.00  0.00    +0.205 C 
ATOM      7  C   UNL     1     -12.825  14.230  71.205  0.00  0.00    +0.102 C 
ATOM      8  C   UNL     1     -13.193  13.696  72.786  0.00  0.00    +0.239 C 
ATOM      9  O   UNL     1     -14.627  13.435  72.348  0.00  0.00    -0.330 OA
ATOM     10  C   UNL     1     -15.047  14.601  71.826  0.00  0.00    +0.145 C 
ATOM     11  O   UNL     1     -13.518  15.096  73.276  0.00  0.00    -0.327 OA
ATOM     12  C   UNL     1     -13.939  15.376  71.207  0.00  0.00    +0.041 C 
ATOM     13  C   UNL     1     -12.503  15.865  72.975  0.00  0.00    +0.188 C 
ENDBRANCH   5   6
ENDBRANCH   3   5
ENDBRANCH   1   2
BRANCH   1  14
ATOM     14  C   UNL     1     -10.177  15.239  66.323  0.00  0.00    +0.190 C 
ATOM     15  O   UNL     1      -9.504  14.004  65.778  0.00  0.00    -0.220 OA
BRANCH  14  16
ATOM     16  C   UNL     1      -8.758  15.845  66.871  0.00  0.00    +0.130 C 
BRANCH  16  17
ATOM     17  N   UNL     1      -8.632  17.171  66.467  0.00  0.00    -0.153 NA
BRANCH  17  18
ATOM     18  S   UNL     1      -7.095  17.848  66.369  0.00  0.00    +0.063 S 
ATOM     19  O   UNL     1      -6.968  18.480  64.999  0.00  0.00    -0.153 OA
ATOM     20  O   UNL     1      -6.112  16.704  66.502  0.00  0.00    -0.153 OA
BRANCH  18  21
ATOM     21  C   UNL     1      -6.777  19.012  67.617  0.00  0.00    +0.122 A 
ATOM     22  C   UNL     1      -7.035  18.831  68.951  0.00  0.00    +0.021 A 
ATOM     23  C   UNL     1      -6.350  19.653  69.839  0.00  0.00    +0.019 A 
ATOM     24  C   UNL     1      -5.526  20.676  69.384  0.00  0.00    +0.089 A 
ATOM     25  N   UNL     1      -4.444  21.192  70.149  0.00  0.00    -0.128 NA
ATOM     26  C   UNL     1      -5.792  21.146  68.110  0.00  0.00    +0.019 A 
ATOM     27  C   UNL     1      -6.433  20.303  67.237  0.00  0.00    +0.021 A 
ENDBRANCH  18  21
ENDBRANCH  17  18
BRANCH  17  28
ATOM     28  C   UNL     1      -9.712  17.856  65.898  0.00  0.00    +0.096 C 
BRANCH  28  30
ATOM     29  C   UNL     1     -10.469  19.026  67.356  0.00  0.00    +0.001 C 
ATOM     30  C   UNL     1     -10.148  19.069  66.699  0.00  0.00    +0.018 C 
ATOM     31  C   UNL     1      -9.991  20.335  65.884  0.00  0.00    +0.001 C 
ENDBRANCH  28  30
ENDBRANCH  17  28
ENDBRANCH  16  17
ENDBRANCH  14  16
ENDBRANCH   1  14
BRANCH   1  32
ATOM     32  C   UNL     1     -11.902  13.794  67.447  0.00  0.00    +0.051 C 
BRANCH  32  33
ATOM     33  C   UNL     1     -11.776  12.390  67.777  0.00  0.00    -0.020 A 
ATOM     34  C   UNL     1     -11.360  11.507  66.785  0.00  0.00    -0.004 A 
ATOM     35  C   UNL     1     -10.763  10.308  67.051  0.00  0.00    -0.000 A 
ATOM     36  C   UNL     1     -10.649   9.892  68.354  0.00  0.00    -0.000 A 
ATOM     37  C   UNL     1     -10.697  10.881  69.326  0.00  0.00    -0.000 A 
ATOM     38  C   UNL     1     -11.399  12.031  69.057  0.00  0.00    -0.004 A 
ENDBRANCH  32  33
ENDBRANCH   1  32
TORSDOF 12
ENDMDL
MODEL 3
REMARK VINA RESULT:      -7.4      1.604      2.216
REMARK  Name = 
REMARK  12 active torsions:
REMARK  status: ('A' for Active; 'I' for Inactive)
REMARK    1  A    between atoms: C_2  and  C_4
REMARK    2  A    between atoms: C_4  and  N_5
REMARK    3  A    between atoms: N_5  and  C_6
REMARK    4  A    between atoms: N_5  and  S_29
REMARK    5  A    between atoms: C_6  and  C_7
REMARK    6  A    between atoms: C_7  and  C_9
REMARK    7  A    between atoms: C_9  and  C_10
REMARK    8  A    between atoms: C_9  and  N_17
REMARK    9  A    between atoms: C_10  and  C_11
REMARK   10  A    between atoms: C_18  and  O_20
REMARK   11  A    between atoms: O_20  and  C_21
REMARK   12  A    between atoms: S_29  and  C_32
REMARK                            x       y       z     vdW  Elec       q    Type
REMARK                         _______ _______ _______ _____ _____    ______ ____
ROOT
ATOM      1  C   UNL     1     -10.374  15.026  67.058  0.00  0.00    +0.135 C 
ENDROOT
BRANCH   1   2
ATOM      2  N   UNL     1     -10.969  15.674  68.336  0.00  0.00    -0.167 NA
ATOM      3  C   UNL     1     -10.855  14.788  69.390  0.00  0.00    +0.421 C 
ATOM      4  O   UNL     1      -9.866  15.293  69.982  0.00  0.00    -0.225 OA
BRANCH   3   5
ATOM      5  O   UNL     1     -11.537  14.195  70.359  0.00  0.00    -0.435 OA
BRANCH   5   6
ATOM      6  C   UNL     1     -12.987  14.584  70.643  0.00  0.00    +0.205 C 
ATOM      7  C   UNL     1     -12.670  15.884  71.680  0.00  0.00    +0.102 C 
ATOM      8  C   UNL     1     -14.163  15.467  72.399  0.00  0.00    +0.239 C 
ATOM      9  O   UNL     1     -13.730  16.177  73.674  0.00  0.00    -0.330 OA
ATOM     10  C   UNL     1     -12.550  15.619  73.998  0.00  0.00    +0.145 C 
ATOM     11  O   UNL     1     -13.650  14.122  72.885  0.00  0.00    -0.327 OA
ATOM     12  C   UNL     1     -11.793  15.161  72.803  0.00  0.00    +0.041 C 
ATOM     13  C   UNL     1     -13.129  13.504  71.857  0.00  0.00    +0.188 C 
ENDBRANCH   5   6
ENDBRANCH   3   5
ENDBRANCH   1   2
BRANCH   1  14
ATOM     14  C   UNL     1     -10.032  16.481  66.201  0.00  0.00    +0.190 C 
ATOM     15  O   UNL     1      -9.509  15.834  64.943  0.00  0.00    -0.220 OA
BRANCH  14  16
ATOM     16  C   UNL     1      -8.534  16.561  66.857  0.00  0.00    +0.130 C 
BRANCH  16  17
ATOM     17  N   UNL     1      -8.038  17.854  66.727  0.00  0.00    -0.153 NA
BRANCH  17  18
ATOM     18  S   UNL     1      -8.176  18.913  68.028  0.00  0.00    +0.063 S 
ATOM     19  O   UNL     1      -9.500  18.625  68.704  0.00  0.00    -0.153 OA
ATOM     20  O   UNL     1      -8.188  20.311  67.445  0.00  0.00    -0.153 OA
BRANCH  18  21
ATOM     21  C   UNL     1      -6.865  18.785  69.158  0.00  0.00    +0.122 A 
ATOM     22  C   UNL     1      -6.385  17.614  69.684  0.00  0.00    +0.021 A 
ATOM     23  C   UNL     1      -5.101  17.647  70.218  0.00  0.00    +0.019 A 
ATOM     24  C   UNL     1      -4.388  18.836  70.306  0.00  0.00    +0.089 A 
ATOM     25  N   UNL     1      -2.967  18.882  70.343  0.00  0.00    -0.128 NA
ATOM     26  C   UNL     1      -5.144  19.996  70.315  0.00  0.00    +0.019 A 
ATOM     27  C   UNL     1      -6.392  19.952  69.747  0.00  0.00    +0.021 A 
ENDBRANCH  18  21
ENDBRANCH  17  18
BRANCH  17  28
ATOM     28  C   UNL     1      -7.207  18.203  65.656  0.00  0.00    +0.096 C 
BRANCH  28  30
ATOM     29  C   UNL     1      -5.424  17.385  66.123  0.00  0.00    +0.001 C 
ATOM     30  C   UNL     1      -5.730  18.029  65.955  0.00  0.00    +0.018 C 
ATOM     31  C   UNL     1      -5.036  19.372  66.027  0.00  0.00    +0.001 C 
ENDBRANCH  28  30
ENDBRANCH  17  28
ENDBRANCH  16  17
ENDBRANCH  14  16
ENDBRANCH   1  14
BRANCH   1  32
ATOM     32  C   UNL     1     -11.822  14.722  66.369  0.00  0.00    +0.051 C 
BRANCH  32  33
ATOM     33  C   UNL     1     -11.796  13.444  65.687  0.00  0.00    -0.020 A 
ATOM     34  C   UNL     1     -12.110  13.405  64.333  0.00  0.00    -0.004 A 
ATOM     35  C   UNL     1     -11.685  12.415  63.493  0.00  0.00    -0.000 A 
ATOM     36  C   UNL     1     -10.997  11.347  64.013  0.00  0.00    -0.000 A 
ATOM     37  C   UNL     1     -10.365  11.551  65.230  0.00  0.00    -0.000 A 
ATOM     38  C   UNL     1     -10.889  12.484  66.093  0.00  0.00    -0.004 A 
ENDBRANCH  32  33
ENDBRANCH   1  32
TORSDOF 12
ENDMDL
MODEL 4
REMARK VINA RESULT:      -7.3      4.024      9.056
REMARK  Name = 
REMARK  12 active torsions:
REMARK  status: ('A' for Active; 'I' for Inactive)
REMARK    1  A    between atoms: C_2  and  C_4
REMARK    2  A    between atoms: C_4  and  N_5
REMARK    3  A    between atoms: N_5  and  C_6
REMARK    4  A    between atoms: N_5  and  S_29
REMARK    5  A    between atoms: C_6  and  C_7
REMARK    6  A    between atoms: C_7  and  C_9
REMARK    7  A    between atoms: C_9  and  C_10
REMARK    8  A    between atoms: C_9  and  N_17
REMARK    9  A    between atoms: C_10  and  C_11
REMARK   10  A    between atoms: C_18  and  O_20
REMARK   11  A    between atoms: O_20  and  C_21
REMARK   12  A    between atoms: S_29  and  C_32
REMARK                            x       y       z     vdW  Elec       q    Type
REMARK                         _______ _______ _______ _____ _____    ______ ____
ROOT
ATOM      1  C   UNL     1     -11.004  13.699  69.111  0.00  0.00    +0.135 C 
ENDROOT
BRANCH   1   2
ATOM      2  N   UNL     1     -10.610  14.142  67.676  0.00  0.00    -0.167 NA
ATOM      3  C   UNL     1      -9.435  14.866  67.730  0.00  0.00    +0.421 C 
ATOM      4  O   UNL     1      -8.628  13.985  67.335  0.00  0.00    -0.225 OA
BRANCH   3   5
ATOM      5  O   UNL     1      -8.870  16.005  67.358  0.00  0.00    -0.435 OA
BRANCH   5   6
ATOM      6  C   UNL     1      -8.683  17.146  68.357  0.00  0.00    +0.205 C 
ATOM      7  C   UNL     1     -10.186  17.892  68.127  0.00  0.00    +0.102 C 
ATOM      8  C   UNL     1      -9.356  19.328  68.542  0.00  0.00    +0.239 C 
ATOM      9  O   UNL     1     -10.432  20.136  67.830  0.00  0.00    -0.330 OA
ATOM     10  C   UNL     1     -10.486  19.623  66.588  0.00  0.00    +0.145 C 
ATOM     11  O   UNL     1      -8.474  19.275  67.307  0.00  0.00    -0.327 OA
ATOM     12  C   UNL     1     -10.138  18.178  66.556  0.00  0.00    +0.041 C 
ATOM     13  C   UNL     1      -7.921  18.090  67.267  0.00  0.00    +0.188 C 
ENDBRANCH   5   6
ENDBRANCH   3   5
ENDBRANCH   1   2
BRANCH   1  14
ATOM     14  C   UNL     1     -11.691  12.173  68.700  0.00  0.00    +0.190 C 
ATOM     15  O   UNL     1     -12.225  11.839  70.069  0.00  0.00    -0.220 OA
BRANCH  14  16
ATOM     16  C   UNL     1     -10.273  11.411  68.999  0.00  0.00    +0.130 C 
BRANCH  16  17
ATOM     17  N   UNL     1     -10.336  10.106  68.522  0.00  0.00    -0.153 NA
BRANCH  17  18
ATOM     18  S   UNL     1      -9.933   8.841  69.556  0.00  0.00    +0.063 S 
ATOM     19  O   UNL     1      -8.656   9.232  70.269  0.00  0.00    -0.153 OA
ATOM     20  O   UNL     1      -9.684   7.632  68.679  0.00  0.00    -0.153 OA
BRANCH  18  21
ATOM     21  C   UNL     1     -11.185   8.462  70.696  0.00  0.00    +0.122 A 
ATOM     22  C   UNL     1     -11.529   9.229  71.779  0.00  0.00    +0.021 A 
ATOM     23  C   UNL     1     -12.791   9.015  72.324  0.00  0.00    +0.019 A 
ATOM     24  C   UNL     1     -13.615   7.999  71.854  0.00  0.00    +0.089 A 
ATOM     25  N   UNL     1     -15.031   8.038  71.977  0.00  0.00    -0.128 NA
ATOM     26  C   UNL     1     -12.978   6.950  71.215  0.00  0.00    +0.019 A 
ATOM     27  C   UNL     1     -11.752   7.194  70.649  0.00  0.00    +0.021 A 
ENDBRANCH  18  21
ENDBRANCH  17  18
BRANCH  17  28
ATOM     28  C   UNL     1     -10.970   9.813  67.309  0.00  0.00    +0.096 C 
BRANCH  28  30
ATOM     29  C   UNL     1      -9.466   9.699  65.971  0.00  0.00    +0.001 C 
ATOM     30  C   UNL     1     -10.094  10.055  66.094  0.00  0.00    +0.018 C 
ATOM     31  C   UNL     1     -10.603  11.234  65.292  0.00  0.00    +0.001 C 
ENDBRANCH  28  30
ENDBRANCH  17  28
ENDBRANCH  16  17
ENDBRANCH  14  16
ENDBRANCH   1  14
BRANCH   1  32
ATOM     32  C   UNL     1     -12.398  14.546  69.141  0.00  0.00    +0.051 C 
BRANCH  32  33
ATOM     33  C   UNL     1     -12.545  15.229  70.410  0.00  0.00    -0.020 A 
ATOM     34  C   UNL     1     -13.788  15.216  71.033  0.00  0.00    -0.004 A 
ATOM     35  C   UNL     1     -13.953  15.387  72.378  0.00  0.00    -0.000 A 
ATOM     36  C   UNL     1     -12.861  15.688  73.154  0.00  0.00    -0.000 A 
ATOM     37  C   UNL     1     -11.622  15.334  72.640  0.00  0.00    -0.000 A 
ATOM     38  C   UNL     1     -11.469  15.276  71.275  0.00  0.00    -0.004 A 
ENDBRANCH  32  33
ENDBRANCH   1  32
TORSDOF 12
ENDMDL
MODEL 5
REMARK VINA RESULT:      -7.3      4.278      8.872
REMARK  Name = 
REMARK  12 active torsions:
REMARK  status: ('A' for Active; 'I' for Inactive)
REMARK    1  A    between atoms: C_2  and  C_4
REMARK    2  A    between atoms: C_4  and  N_5
REMARK    3  A    between atoms: N_5  and  C_6
REMARK    4  A    between atoms: N_5  and  S_29
REMARK    5  A    between atoms: C_6  and  C_7
REMARK    6  A    between atoms: C_7  and  C_9
REMARK    7  A    between atoms: C_9  and  C_10
REMARK    8  A    between atoms: C_9  and  N_17
REMARK    9  A    between atoms: C_10  and  C_11
REMARK   10  A    between atoms: C_18  and  O_20
REMARK   11  A    between atoms: O_20  and  C_21
REMARK   12  A    between atoms: S_29  and  C_32
REMARK                            x       y       z     vdW  Elec       q    Type
REMARK                         _______ _______ _______ _____ _____    ______ ____
ROOT
ATOM      1  C   UNL     1     -11.018  13.558  69.399  0.00  0.00    +0.135 C 
ENDROOT
BRANCH   1   2
ATOM      2  N   UNL     1     -10.493  13.932  67.986  0.00  0.00    -0.167 NA
ATOM      3  C   UNL     1      -9.392  14.758  68.115  0.00  0.00    +0.421 C 
ATOM      4  O   UNL     1      -8.477  13.924  67.885  0.00  0.00    -0.225 OA
BRANCH   3   5
ATOM      5  O   UNL     1      -8.878  15.912  67.720  0.00  0.00    -0.435 OA
BRANCH   5   6
ATOM      6  C   UNL     1      -9.031  17.169  68.576  0.00  0.00    +0.205 C 
ATOM      7  C   UNL     1     -10.460  17.744  67.874  0.00  0.00    +0.102 C 
ATOM      8  C   UNL     1      -9.858  19.287  68.296  0.00  0.00    +0.239 C 
ATOM      9  O   UNL     1     -10.752  19.910  67.233  0.00  0.00    -0.330 OA
ATOM     10  C   UNL     1     -10.444  19.261  66.097  0.00  0.00    +0.145 C 
ATOM     11  O   UNL     1      -8.678  19.180  67.346  0.00  0.00    -0.327 OA
ATOM     12  C   UNL     1     -10.014  17.859  66.344  0.00  0.00    +0.041 C 
ATOM     13  C   UNL     1      -8.065  18.053  67.604  0.00  0.00    +0.188 C 
ENDBRANCH   5   6
ENDBRANCH   3   5
ENDBRANCH   1   2
BRANCH   1  14
ATOM     14  C   UNL     1     -11.756  12.059  68.978  0.00  0.00    +0.190 C 
ATOM     15  O   UNL     1     -12.250  11.706  70.359  0.00  0.00    -0.220 OA
BRANCH  14  16
ATOM     16  C   UNL     1     -10.348  11.257  69.210  0.00  0.00    +0.130 C 
BRANCH  16  17
ATOM     17  N   UNL     1     -10.282  10.172  68.342  0.00  0.00    -0.153 NA
BRANCH  17  18
ATOM     18  S   UNL     1      -9.846   8.666  68.954  0.00  0.00    +0.063 S 
ATOM     19  O   UNL     1      -8.375   8.467  68.655  0.00  0.00    -0.153 OA
ATOM     20  O   UNL     1     -10.669   7.642  68.200  0.00  0.00    -0.153 OA
BRANCH  18  21
ATOM     21  C   UNL     1     -10.159   8.500  70.653  0.00  0.00    +0.122 A 
ATOM     22  C   UNL     1     -11.402   8.406  71.223  0.00  0.00    +0.021 A 
ATOM     23  C   UNL     1     -11.465   7.862  72.502  0.00  0.00    +0.019 A 
ATOM     24  C   UNL     1     -10.311   7.531  73.201  0.00  0.00    +0.089 A 
ATOM     25  N   UNL     1     -10.288   6.546  74.227  0.00  0.00    -0.128 NA
ATOM     26  C   UNL     1      -9.158   8.191  72.814  0.00  0.00    +0.019 A 
ATOM     27  C   UNL     1      -9.101   8.684  71.535  0.00  0.00    +0.021 A 
ENDBRANCH  18  21
ENDBRANCH  17  18
BRANCH  17  28
ATOM     28  C   UNL     1     -10.817  10.249  67.050  0.00  0.00    +0.096 C 
BRANCH  28  30
ATOM     29  C   UNL     1      -9.559  11.228  65.814  0.00  0.00    +0.001 C 
ATOM     30  C   UNL     1      -9.780  10.551  65.984  0.00  0.00    +0.018 C 
ATOM     31  C   UNL     1      -9.414   9.295  65.222  0.00  0.00    +0.001 C 
ENDBRANCH  28  30
ENDBRANCH  17  28
ENDBRANCH  16  17
ENDBRANCH  14  16
ENDBRANCH   1  14
BRANCH   1  32
ATOM     32  C   UNL     1     -12.362  14.480  69.295  0.00  0.00    +0.051 C 
BRANCH  32  33
ATOM     33  C   UNL     1     -12.570  15.206  70.531  0.00  0.00    -0.020 A 
ATOM     34  C   UNL     1     -13.843  15.212  71.093  0.00  0.00    -0.004 A 
ATOM     35  C   UNL     1     -14.074  15.429  72.421  0.00  0.00    -0.000 A 
ATOM     36  C   UNL     1     -13.021  15.757  73.239  0.00  0.00    -0.000 A 
ATOM     37  C   UNL     1     -11.758  15.388  72.799  0.00  0.00    -0.000 A 
ATOM     38  C   UNL     1     -11.539  15.284  71.446  0.00  0.00    -0.004 A 
ENDBRANCH  32  33
ENDBRANCH   1  32
TORSDOF 12
ENDMDL
MODEL 6
REMARK VINA RESULT:      -7.2      3.170      8.205
REMARK  Name = 
REMARK  12 active torsions:
REMARK  status: ('A' for Active; 'I' for Inactive)
REMARK    1  A    between atoms: C_2  and  C_4
REMARK    2  A    between atoms: C_4  and  N_5
REMARK    3  A    between atoms: N_5  and  C_6
REMARK    4  A    between atoms: N_5  and  S_29
REMARK    5  A    between atoms: C_6  and  C_7
REMARK    6  A    between atoms: C_7  and  C_9
REMARK    7  A    between atoms: C_9  and  C_10
REMARK    8  A    between atoms: C_9  and  N_17
REMARK    9  A    between atoms: C_10  and  C_11
REMARK   10  A    between atoms: C_18  and  O_20
REMARK   11  A    between atoms: O_20  and  C_21
REMARK   12  A    between atoms: S_29  and  C_32
REMARK                            x       y       z     vdW  Elec       q    Type
REMARK                         _______ _______ _______ _____ _____    ______ ____
ROOT
ATOM      1  C   UNL     1     -10.867  13.352  69.301  0.00  0.00    +0.135 C 
ENDROOT
BRANCH   1   2
ATOM      2  N   UNL     1     -10.248  14.218  68.170  0.00  0.00    -0.167 NA
ATOM      3  C   UNL     1      -9.510  15.241  68.734  0.00  0.00    +0.421 C 
ATOM      4  O   UNL     1      -8.352  14.775  68.574  0.00  0.00    -0.225 OA
BRANCH   3   5
ATOM      5  O   UNL     1      -9.330  16.553  68.723  0.00  0.00    -0.435 OA
BRANCH   5   6
ATOM      6  C   UNL     1     -10.410  17.484  68.174  0.00  0.00    +0.205 C 
ATOM      7  C   UNL     1      -9.752  17.704  66.630  0.00  0.00    +0.102 C 
ATOM      8  C   UNL     1     -10.513  19.233  66.698  0.00  0.00    +0.239 C 
ATOM      9  O   UNL     1      -9.544  19.744  65.641  0.00  0.00    -0.330 OA
ATOM     10  C   UNL     1      -8.322  19.483  66.136  0.00  0.00    +0.145 C 
ATOM     11  O   UNL     1      -9.635  19.713  67.841  0.00  0.00    -0.327 OA
ATOM     12  C   UNL     1      -8.307  18.275  67.002  0.00  0.00    +0.041 C 
ATOM     13  C   UNL     1      -9.698  18.815  68.790  0.00  0.00    +0.188 C 
ENDBRANCH   5   6
ENDBRANCH   3   5
ENDBRANCH   1   2
BRANCH   1  14
ATOM     14  C   UNL     1     -11.565  12.135  68.300  0.00  0.00    +0.190 C 
ATOM     15  O   UNL     1     -12.209  11.338  69.406  0.00  0.00    -0.220 OA
BRANCH  14  16
ATOM     16  C   UNL     1     -10.195  11.240  68.369  0.00  0.00    +0.130 C 
BRANCH  16  17
ATOM     17  N   UNL     1     -10.240  10.245  67.398  0.00  0.00    -0.153 NA
BRANCH  17  18
ATOM     18  S   UNL     1      -9.448  10.501  65.935  0.00  0.00    +0.063 S 
ATOM     19  O   UNL     1      -9.397   9.172  65.212  0.00  0.00    -0.153 OA
ATOM     20  O   UNL     1      -8.045  10.955  66.280  0.00  0.00    -0.153 OA
BRANCH  18  21
ATOM     21  C   UNL     1     -10.205  11.712  64.948  0.00  0.00    +0.122 A 
ATOM     22  C   UNL     1     -11.045  11.463  63.895  0.00  0.00    +0.021 A 
ATOM     23  C   UNL     1     -11.878  12.504  63.497  0.00  0.00    +0.019 A 
ATOM     24  C   UNL     1     -11.782  13.764  64.075  0.00  0.00    +0.089 A 
ATOM     25  N   UNL     1     -12.868  14.680  64.110  0.00  0.00    -0.128 NA
ATOM     26  C   UNL     1     -10.566  14.069  64.662  0.00  0.00    +0.019 A 
ATOM     27  C   UNL     1      -9.778  13.028  65.084  0.00  0.00    +0.021 A 
ENDBRANCH  18  21
ENDBRANCH  17  18
BRANCH  17  28
ATOM     28  C   UNL     1     -10.695   8.958  67.705  0.00  0.00    +0.096 C 
BRANCH  28  30
ATOM     29  C   UNL     1     -10.236   8.261  69.541  0.00  0.00    +0.001 C 
ATOM     30  C   UNL     1      -9.958   8.317  68.866  0.00  0.00    +0.018 C 
ATOM     31  C   UNL     1      -8.534   7.980  68.476  0.00  0.00    +0.001 C 
ENDBRANCH  28  30
ENDBRANCH  17  28
ENDBRANCH  16  17
ENDBRANCH  14  16
ENDBRANCH   1  14
BRANCH   1  32
ATOM     32  C   UNL     1     -12.206  14.272  69.462  0.00  0.00    +0.051 C 
BRANCH  32  33
ATOM     33  C   UNL     1     -12.458  14.552  70.861  0.00  0.00    -0.020 A 
ATOM     34  C   UNL     1     -11.626  15.451  71.519  0.00  0.00    -0.004 A 
ATOM     35  C   UNL     1     -12.005  16.145  72.633  0.00  0.00    -0.000 A 
ATOM     36  C   UNL     1     -13.226  15.881  73.202  0.00  0.00    -0.000 A 
ATOM     37  C   UNL     1     -14.181  15.305  72.378  0.00  0.00    -0.000 A 
ATOM     38  C   UNL     1     -13.758  14.525  71.328  0.00  0.00    -0.004 A 
ENDBRANCH  32  33
ENDBRANCH   1  32
TORSDOF 12
ENDMDL
MODEL 7
REMARK VINA RESULT:      -7.1      5.784     10.788
REMARK  Name = 
REMARK  12 active torsions:
REMARK  status: ('A' for Active; 'I' for Inactive)
REMARK    1  A    between atoms: C_2  and  C_4
REMARK    2  A    between atoms: C_4  and  N_5
REMARK    3  A    between atoms: N_5  and  C_6
REMARK    4  A    between atoms: N_5  and  S_29
REMARK    5  A    between atoms: C_6  and  C_7
REMARK    6  A    between atoms: C_7  and  C_9
REMARK    7  A    between atoms: C_9  and  C_10
REMARK    8  A    between atoms: C_9  and  N_17
REMARK    9  A    between atoms: C_10  and  C_11
REMARK   10  A    between atoms: C_18  and  O_20
REMARK   11  A    between atoms: O_20  and  C_21
REMARK   12  A    between atoms: S_29  and  C_32
REMARK                            x       y       z     vdW  Elec       q    Type
REMARK                         _______ _______ _______ _____ _____    ______ ____
ROOT
ATOM      1  C   UNL     1     -11.176  10.700  70.221  0.00  0.00    +0.135 C 
ENDROOT
BRANCH   1   2
ATOM      2  N   UNL     1     -11.381  10.515  68.693  0.00  0.00    -0.167 NA
ATOM      3  C   UNL     1     -10.366  11.166  68.017  0.00  0.00    +0.421 C 
ATOM      4  O   UNL     1      -9.647  10.178  67.717  0.00  0.00    -0.225 OA
BRANCH   3   5
ATOM      5  O   UNL     1     -10.123  12.041  67.053  0.00  0.00    -0.435 OA
BRANCH   5   6
ATOM      6  C   UNL     1     -11.058  13.228  66.822  0.00  0.00    +0.205 C 
ATOM      7  C   UNL     1     -12.091  12.484  65.706  0.00  0.00    +0.102 C 
ATOM      8  C   UNL     1     -12.295  14.063  65.084  0.00  0.00    +0.239 C 
ATOM      9  O   UNL     1     -12.735  13.465  63.755  0.00  0.00    -0.330 OA
ATOM     10  C   UNL     1     -11.738  12.635  63.402  0.00  0.00    +0.145 C 
ATOM     11  O   UNL     1     -10.845  14.168  64.643  0.00  0.00    -0.327 OA
ATOM     12  C   UNL     1     -11.045  12.048  64.579  0.00  0.00    +0.041 C 
ATOM     13  C   UNL     1     -10.096  13.872  65.674  0.00  0.00    +0.188 C 
ENDBRANCH   5   6
ENDBRANCH   3   5
ENDBRANCH   1   2
BRANCH   1  14
ATOM     14  C   UNL     1     -11.503   9.076  70.694  0.00  0.00    +0.190 C 
ATOM     15  O   UNL     1     -12.097   9.396  72.043  0.00  0.00    -0.220 OA
BRANCH  14  16
ATOM     16  C   UNL     1     -10.000   8.917  71.325  0.00  0.00    +0.130 C 
BRANCH  16  17
ATOM     17  N   UNL     1      -9.651   7.571  71.360  0.00  0.00    -0.153 NA
BRANCH  17  18
ATOM     18  S   UNL     1      -8.668   6.954  70.141  0.00  0.00    +0.063 S 
ATOM     19  O   UNL     1      -7.652   6.044  70.799  0.00  0.00    -0.153 OA
ATOM     20  O   UNL     1      -7.967   8.140  69.513  0.00  0.00    -0.153 OA
BRANCH  18  21
ATOM     21  C   UNL     1      -9.552   6.106  68.911  0.00  0.00    +0.122 A 
ATOM     22  C   UNL     1     -10.554   6.643  68.145  0.00  0.00    +0.021 A 
ATOM     23  C   UNL     1     -10.852   5.987  66.955  0.00  0.00    +0.019 A 
ATOM     24  C   UNL     1     -10.232   4.790  66.617  0.00  0.00    +0.089 A 
ATOM     25  N   UNL     1     -10.087   4.350  65.273  0.00  0.00    -0.128 NA
ATOM     26  C   UNL     1      -9.719   4.056  67.672  0.00  0.00    +0.019 A 
ATOM     27  C   UNL     1      -9.394   4.728  68.823  0.00  0.00    +0.021 A 
ENDBRANCH  18  21
ENDBRANCH  17  18
BRANCH  17  28
ATOM     28  C   UNL     1      -9.876   6.798  72.505  0.00  0.00    +0.096 C 
BRANCH  28  30
ATOM     29  C   UNL     1     -11.626   5.835  72.229  0.00  0.00    +0.001 C 
ATOM     30  C   UNL     1     -10.909   5.705  72.303  0.00  0.00    +0.018 C 
ATOM     31  C   UNL     1     -10.279   4.337  72.453  0.00  0.00    +0.001 C 
ENDBRANCH  28  30
ENDBRANCH  17  28
ENDBRANCH  16  17
ENDBRANCH  14  16
ENDBRANCH   1  14
BRANCH   1  32
ATOM     32  C   UNL     1     -12.673  11.294  70.490  0.00  0.00    +0.051 C 
BRANCH  32  33
ATOM     33  C   UNL     1     -12.592  12.616  71.075  0.00  0.00    -0.020 A 
ATOM     34  C   UNL     1     -12.208  13.680  70.265  0.00  0.00    -0.004 A 
ATOM     35  C   UNL     1     -12.534  14.980  70.531  0.00  0.00    -0.000 A 
ATOM     36  C   UNL     1     -13.185  15.280  71.701  0.00  0.00    -0.000 A 
ATOM     37  C   UNL     1     -13.888  14.246  72.301  0.00  0.00    -0.000 A 
ATOM     38  C   UNL     1     -13.462  12.955  72.093  0.00  0.00    -0.004 A 
ENDBRANCH  32  33
ENDBRANCH   1  32
TORSDOF 12
ENDMDL
MODEL 8
REMARK VINA RESULT:      -7.1      2.871      7.881
REMARK  Name = 
REMARK  12 active torsions:
REMARK  status: ('A' for Active; 'I' for Inactive)
REMARK    1  A    between atoms: C_2  and  C_4
REMARK    2  A    between atoms: C_4  and  N_5
REMARK    3  A    between atoms: N_5  and  C_6
REMARK    4  A    between atoms: N_5  and  S_29
REMARK    5  A    between atoms: C_6  and  C_7
REMARK    6  A    between atoms: C_7  and  C_9
REMARK    7  A    between atoms: C_9  and  C_10
REMARK    8  A    between atoms: C_9  and  N_17
REMARK    9  A    between atoms: C_10  and  C_11
REMARK   10  A    between atoms: C_18  and  O_20
REMARK   11  A    between atoms: O_20  and  C_21
REMARK   12  A    between atoms: S_29  and  C_32
REMARK                            x       y       z     vdW  Elec       q    Type
REMARK                         _______ _______ _______ _____ _____    ______ ____
ROOT
ATOM      1  C   UNL     1      -9.417  15.966  67.093  0.00  0.00    +0.135 C 
ENDROOT
BRANCH   1   2
ATOM      2  N   UNL     1      -8.184  15.210  67.658  0.00  0.00    -0.167 NA
ATOM      3  C   UNL     1      -7.799  15.796  68.849  0.00  0.00    +0.421 C 
ATOM      4  O   UNL     1      -8.280  14.960  69.657  0.00  0.00    -0.225 OA
BRANCH   3   5
ATOM      5  O   UNL     1      -6.761  16.305  69.495  0.00  0.00    -0.435 OA
BRANCH   5   6
ATOM      6  C   UNL     1      -6.345  17.760  69.283  0.00  0.00    +0.205 C 
ATOM      7  C   UNL     1      -5.196  17.488  68.069  0.00  0.00    +0.102 C 
ATOM      8  C   UNL     1      -4.433  18.881  68.703  0.00  0.00    +0.239 C 
ATOM      9  O   UNL     1      -3.119  18.422  68.087  0.00  0.00    -0.330 OA
ATOM     10  C   UNL     1      -2.933  17.176  68.557  0.00  0.00    +0.145 C 
ATOM     11  O   UNL     1      -4.129  18.213  70.033  0.00  0.00    -0.327 OA
ATOM     12  C   UNL     1      -4.216  16.469  68.813  0.00  0.00    +0.041 C 
ATOM     13  C   UNL     1      -5.249  17.714  70.489  0.00  0.00    +0.188 C 
ENDBRANCH   5   6
ENDBRANCH   3   5
ENDBRANCH   1   2
BRANCH   1  14
ATOM     14  C   UNL     1      -9.858  14.816  65.888  0.00  0.00    +0.190 C 
ATOM     15  O   UNL     1     -10.455  15.796  64.910  0.00  0.00    -0.220 OA
BRANCH  14  16
ATOM     16  C   UNL     1     -11.306  14.559  66.609  0.00  0.00    +0.130 C 
BRANCH  16  17
ATOM     17  N   UNL     1     -11.507  13.192  66.773  0.00  0.00    -0.153 NA
BRANCH  17  18
ATOM     18  S   UNL     1     -11.302  12.517  68.301  0.00  0.00    +0.063 S 
ATOM     19  O   UNL     1      -9.826  12.224  68.469  0.00  0.00    -0.153 OA
ATOM     20  O   UNL     1     -12.088  11.223  68.308  0.00  0.00    -0.153 OA
BRANCH  18  21
ATOM     21  C   UNL     1     -11.879  13.534  69.583  0.00  0.00    +0.122 A 
ATOM     22  C   UNL     1     -11.699  14.891  69.659  0.00  0.00    +0.021 A 
ATOM     23  C   UNL     1     -12.563  15.592  70.494  0.00  0.00    +0.019 A 
ATOM     24  C   UNL     1     -13.491  14.931  71.289  0.00  0.00    +0.089 A 
ATOM     25  N   UNL     1     -14.692  15.543  71.743  0.00  0.00    -0.128 NA
ATOM     26  C   UNL     1     -13.202  13.610  71.586  0.00  0.00    +0.019 A 
ATOM     27  C   UNL     1     -12.380  12.925  70.728  0.00  0.00    +0.021 A 
ENDBRANCH  18  21
ENDBRANCH  17  18
BRANCH  17  28
ATOM     28  C   UNL     1     -12.122  12.429  65.773  0.00  0.00    +0.096 C 
BRANCH  28  30
ATOM     29  C   UNL     1     -10.630  11.270  65.069  0.00  0.00    +0.001 C 
ATOM     30  C   UNL     1     -11.137  11.746  64.842  0.00  0.00    +0.018 C 
ATOM     31  C   UNL     1     -11.240  12.315  63.443  0.00  0.00    +0.001 C 
ENDBRANCH  28  30
ENDBRANCH  17  28
ENDBRANCH  16  17
ENDBRANCH  14  16
ENDBRANCH   1  14
BRANCH   1  32
ATOM     32  C   UNL     1      -8.546  16.949  66.124  0.00  0.00    +0.051 C 
BRANCH  32  33
ATOM     33  C   UNL     1      -8.944  18.328  66.319  0.00  0.00    -0.020 A 
ATOM     34  C   UNL     1     -10.115  18.590  67.022  0.00  0.00    -0.004 A 
ATOM     35  C   UNL     1     -10.353  19.771  67.667  0.00  0.00    -0.000 A 
ATOM     36  C   UNL     1      -9.448  20.795  67.543  0.00  0.00    -0.000 A 
ATOM     37  C   UNL     1      -8.155  20.439  67.191  0.00  0.00    -0.000 A 
ATOM     38  C   UNL     1      -7.967  19.297  66.449  0.00  0.00    -0.004 A 
ENDBRANCH  32  33
ENDBRANCH   1  32
TORSDOF 12
ENDMDL
MODEL 9
REMARK VINA RESULT:      -7.1      3.680      8.619
REMARK  Name = 
REMARK  12 active torsions:
REMARK  status: ('A' for Active; 'I' for Inactive)
REMARK    1  A    between atoms: C_2  and  C_4
REMARK    2  A    between atoms: C_4  and  N_5
REMARK    3  A    between atoms: N_5  and  C_6
REMARK    4  A    between atoms: N_5  and  S_29
REMARK    5  A    between atoms: C_6  and  C_7
REMARK    6  A    between atoms: C_7  and  C_9
REMARK    7  A    between atoms: C_9  and  C_10
REMARK    8  A    between atoms: C_9  and  N_17
REMARK    9  A    between atoms: C_10  and  C_11
REMARK   10  A    between atoms: C_18  and  O_20
REMARK   11  A    between atoms: O_20  and  C_21
REMARK   12  A    between atoms: S_29  and  C_32
REMARK                            x       y       z     vdW  Elec       q    Type
REMARK                         _______ _______ _______ _____ _____    ______ ____
ROOT
ATOM      1  C   UNL     1     -10.920  13.556  69.276  0.00  0.00    +0.135 C 
ENDROOT
BRANCH   1   2
ATOM      2  N   UNL     1     -10.253  14.431  68.180  0.00  0.00    -0.167 NA
ATOM      3  C   UNL     1      -9.530  15.442  68.786  0.00  0.00    +0.421 C 
ATOM      4  O   UNL     1      -8.370  14.970  68.663  0.00  0.00    -0.225 OA
BRANCH   3   5
ATOM      5  O   UNL     1      -9.342  16.753  68.798  0.00  0.00    -0.435 OA
BRANCH   5   6
ATOM      6  C   UNL     1     -10.402  17.699  68.237  0.00  0.00    +0.205 C 
ATOM      7  C   UNL     1      -9.769  17.841  66.673  0.00  0.00    +0.102 C 
ATOM      8  C   UNL     1     -10.477  19.397  66.700  0.00  0.00    +0.239 C 
ATOM      9  O   UNL     1      -9.514  19.837  65.607  0.00  0.00    -0.330 OA
ATOM     10  C   UNL     1      -8.291  19.553  66.088  0.00  0.00    +0.145 C 
ATOM     11  O   UNL     1      -9.562  19.887  67.808  0.00  0.00    -0.327 OA
ATOM     12  C   UNL     1      -8.299  18.377  66.997  0.00  0.00    +0.041 C 
ATOM     13  C   UNL     1      -9.635  19.027  68.791  0.00  0.00    +0.188 C 
ENDBRANCH   5   6
ENDBRANCH   3   5
ENDBRANCH   1   2
BRANCH   1  14
ATOM     14  C   UNL     1     -11.687  12.423  68.227  0.00  0.00    +0.190 C 
ATOM     15  O   UNL     1     -12.075  11.425  69.289  0.00  0.00    -0.220 OA
BRANCH  14  16
ATOM     16  C   UNL     1     -10.264  11.664  67.945  0.00  0.00    +0.130 C 
BRANCH  16  17
ATOM     17  N   UNL     1     -10.234  11.205  66.632  0.00  0.00    -0.153 NA
BRANCH  17  18
ATOM     18  S   UNL     1      -9.308   9.848  66.266  0.00  0.00    +0.063 S 
ATOM     19  O   UNL     1      -7.855  10.272  66.296  0.00  0.00    -0.153 OA
ATOM     20  O   UNL     1      -9.694   9.431  64.862  0.00  0.00    -0.153 OA
BRANCH  18  21
ATOM     21  C   UNL     1      -9.586   8.517  67.345  0.00  0.00    +0.122 A 
ATOM     22  C   UNL     1      -8.940   8.318  68.538  0.00  0.00    +0.021 A 
ATOM     23  C   UNL     1      -9.561   7.473  69.452  0.00  0.00    +0.019 A 
ATOM     24  C   UNL     1     -10.724   6.787  69.125  0.00  0.00    +0.089 A 
ATOM     25  N   UNL     1     -11.660   6.347  70.101  0.00  0.00    -0.128 NA
ATOM     26  C   UNL     1     -10.949   6.587  67.774  0.00  0.00    +0.019 A 
ATOM     27  C   UNL     1     -10.360   7.456  66.890  0.00  0.00    +0.021 A 
ENDBRANCH  18  21
ENDBRANCH  17  18
BRANCH  17  28
ATOM     28  C   UNL     1     -11.148  11.677  65.683  0.00  0.00    +0.096 C 
BRANCH  28  30
ATOM     29  C   UNL     1     -10.349  13.338  64.863  0.00  0.00    +0.001 C 
ATOM     30  C   UNL     1     -10.540  12.652  64.691  0.00  0.00    +0.018 C 
ATOM     31  C   UNL     1     -10.550  12.071  63.293  0.00  0.00    +0.001 C 
ENDBRANCH  28  30
ENDBRANCH  17  28
ENDBRANCH  16  17
ENDBRANCH  14  16
ENDBRANCH   1  14
BRANCH   1  32
ATOM     32  C   UNL     1     -12.204  14.542  69.480  0.00  0.00    +0.051 C 
BRANCH  32  33
ATOM     33  C   UNL     1     -12.486  14.715  70.890  0.00  0.00    -0.020 A 
ATOM     34  C   UNL     1     -11.624  15.499  71.650  0.00  0.00    -0.004 A 
ATOM     35  C   UNL     1     -11.999  16.115  72.810  0.00  0.00    -0.000 A 
ATOM     36  C   UNL     1     -13.252  15.881  73.318  0.00  0.00    -0.000 A 
ATOM     37  C   UNL     1     -14.212  15.441  72.418  0.00  0.00    -0.000 A 
ATOM     38  C   UNL     1     -13.801  14.731  71.315  0.00  0.00    -0.004 A 
ENDBRANCH  32  33
ENDBRANCH   1  32
TORSDOF 12
ENDMDL
