MODEL 1
REMARK VINA RESULT:      -4.0      0.000      0.000
REMARK  Name = 
REMARK  5 active torsions:
REMARK  status: ('A' for Active; 'I' for Inactive)
REMARK    1  A    between atoms: C_2  and  C_3
REMARK    2  A    between atoms: C_3  and  C_4
REMARK    3  A    between atoms: C_4  and  C_5
REMARK    4  A    between atoms: C_4  and  C_8
REMARK    5  A    between atoms: C_5  and  C_6
REMARK                            x       y       z     vdW  Elec       q    Type
REMARK                         _______ _______ _______ _____ _____    ______ ____
ROOT
ATOM      1  C   UNL     1     -11.373  14.750  65.686  0.00  0.00    +0.103 C 
ENDROOT
BRANCH   1   2
ATOM      2  C   UNL     1     -10.829  15.847  64.909  0.00  0.00    +0.364 C 
ATOM      3  O   UNL     1     -11.682  16.436  63.968  0.00  0.00    -0.246 OA
ATOM      4  O   UNL     1     -10.068  16.656  65.524  0.00  0.00    -0.246 OA
ENDBRANCH   1   2
BRANCH   1   5
ATOM      5  C   UNL     1     -12.624  14.135  65.253  0.00  0.00    +0.011 C 
BRANCH   5   7
ATOM      6  C   UNL     1     -12.082  12.612  63.442  0.00  0.00    +0.000 C 
ATOM      7  C   UNL     1     -12.380  12.664  64.937  0.00  0.00    +0.001 C 
ENDBRANCH   5   7
ENDBRANCH   1   5
BRANCH   1   8
ATOM      8  C   UNL     1     -10.767  14.410  66.961  0.00  0.00    +0.011 C 
BRANCH   8   9
ATOM      9  C   UNL     1     -11.743  14.490  68.102  0.00  0.00    +0.001 C 
ATOM     10  C   UNL     1     -11.658  15.849  68.788  0.00  0.00    +0.000 C 
ENDBRANCH   8   9
ENDBRANCH   1   8
TORSDOF 5
ENDMDL
MODEL 2
REMARK VINA RESULT:      -4.0      0.074      3.451
REMARK  Name = 
REMARK  5 active torsions:
REMARK  status: ('A' for Active; 'I' for Inactive)
REMARK    1  A    between atoms: C_2  and  C_3
REMARK    2  A    between atoms: C_3  and  C_4
REMARK    3  A    between atoms: C_4  and  C_5
REMARK    4  A    between atoms: C_4  and  C_8
REMARK    5  A    between atoms: C_5  and  C_6
REMARK                            x       y       z     vdW  Elec       q    Type
REMARK                         _______ _______ _______ _____ _____    ______ ____
ROOT
ATOM      1  C   UNL     1     -11.449  14.818  65.785  0.00  0.00    +0.103 C 
ENDROOT
BRANCH   1   2
ATOM      2  C   UNL     1     -10.831  15.815  64.934  0.00  0.00    +0.364 C 
ATOM      3  O   UNL     1     -11.649  16.415  63.969  0.00  0.00    -0.246 OA
ATOM      4  O   UNL     1      -9.994  16.593  65.487  0.00  0.00    -0.246 OA
ENDBRANCH   1   2
BRANCH   1   5
ATOM      5  C   UNL     1     -10.764  14.415  67.010  0.00  0.00    +0.011 C 
BRANCH   5   7
ATOM      6  C   UNL     1     -11.646  15.826  68.777  0.00  0.00    +0.000 C 
ATOM      7  C   UNL     1     -11.753  14.431  68.170  0.00  0.00    +0.001 C 
ENDBRANCH   5   7
ENDBRANCH   1   5
BRANCH   1   8
ATOM      8  C   UNL     1     -12.632  14.115  65.319  0.00  0.00    +0.011 C 
BRANCH   8   9
ATOM      9  C   UNL     1     -12.343  12.690  64.937  0.00  0.00    +0.001 C 
ATOM     10  C   UNL     1     -12.101  12.573  63.437  0.00  0.00    +0.000 C 
ENDBRANCH   8   9
ENDBRANCH   1   8
TORSDOF 5
ENDMDL
MODEL 3
REMARK VINA RESULT:      -3.8      5.130      6.539
REMARK  Name = 
REMARK  5 active torsions:
REMARK  status: ('A' for Active; 'I' for Inactive)
REMARK    1  A    between atoms: C_2  and  C_3
REMARK    2  A    between atoms: C_3  and  C_4
REMARK    3  A    between atoms: C_4  and  C_5
REMARK    4  A    between atoms: C_4  and  C_8
REMARK    5  A    between atoms: C_5  and  C_6
REMARK                            x       y       z     vdW  Elec       q    Type
REMARK                         _______ _______ _______ _____ _____    ______ ____
ROOT
ATOM      1  C   UNL     1     -12.657  14.764  71.233  0.00  0.00    +0.103 C 
ENDROOT
BRANCH   1   2
ATOM      2  C   UNL     1     -14.049  14.487  71.527  0.00  0.00    +0.364 C 
ATOM      3  O   UNL     1     -14.306  13.571  72.554  0.00  0.00    -0.246 OA
ATOM      4  O   UNL     1     -14.848  15.472  71.475  0.00  0.00    -0.246 OA
ENDBRANCH   1   2
BRANCH   1   5
ATOM      5  C   UNL     1     -12.176  14.576  69.868  0.00  0.00    +0.011 C 
BRANCH   5   7
ATOM      6  C   UNL     1     -10.329  15.967  69.129  0.00  0.00    +0.000 C 
ATOM      7  C   UNL     1     -11.848  15.934  69.258  0.00  0.00    +0.001 C 
ENDBRANCH   5   7
ENDBRANCH   1   5
BRANCH   1   8
ATOM      8  C   UNL     1     -11.739  15.044  72.324  0.00  0.00    +0.011 C 
BRANCH   8   9
ATOM      9  C   UNL     1     -12.145  16.250  73.124  0.00  0.00    +0.001 C 
ATOM     10  C   UNL     1     -12.455  15.862  74.565  0.00  0.00    +0.000 C 
ENDBRANCH   8   9
ENDBRANCH   1   8
TORSDOF 5
ENDMDL
MODEL 4
REMARK VINA RESULT:      -3.8      1.745      2.255
REMARK  Name = 
REMARK  5 active torsions:
REMARK  status: ('A' for Active; 'I' for Inactive)
REMARK    1  A    between atoms: C_2  and  C_3
REMARK    2  A    between atoms: C_3  and  C_4
REMARK    3  A    between atoms: C_4  and  C_5
REMARK    4  A    between atoms: C_4  and  C_8
REMARK    5  A    between atoms: C_5  and  C_6
REMARK                            x       y       z     vdW  Elec       q    Type
REMARK                         _______ _______ _______ _____ _____    ______ ____
ROOT
ATOM      1  C   UNL     1     -10.585  14.725  64.987  0.00  0.00    +0.103 C 
ENDROOT
BRANCH   1   2
ATOM      2  C   UNL     1     -11.769  15.408  64.503  0.00  0.00    +0.364 C 
ATOM      3  O   UNL     1     -11.574  16.663  63.912  0.00  0.00    -0.246 OA
ATOM      4  O   UNL     1     -12.655  14.687  63.951  0.00  0.00    -0.246 OA
ENDBRANCH   1   2
BRANCH   1   5
ATOM      5  C   UNL     1     -10.382  13.326  64.622  0.00  0.00    +0.011 C 
BRANCH   5   7
ATOM      6  C   UNL     1     -11.581  12.181  66.396  0.00  0.00    +0.000 C 
ATOM      7  C   UNL     1     -10.179  12.499  65.887  0.00  0.00    +0.001 C 
ENDBRANCH   5   7
ENDBRANCH   1   5
BRANCH   1   8
ATOM      8  C   UNL     1      -9.731  15.381  65.961  0.00  0.00    +0.011 C 
BRANCH   8   9
ATOM      9  C   UNL     1     -10.503  15.938  67.125  0.00  0.00    +0.001 C 
ATOM     10  C   UNL     1     -10.241  17.431  67.281  0.00  0.00    +0.000 C 
ENDBRANCH   8   9
ENDBRANCH   1   8
TORSDOF 5
ENDMDL
MODEL 5
REMARK VINA RESULT:      -3.7      1.708      3.180
REMARK  Name = 
REMARK  5 active torsions:
REMARK  status: ('A' for Active; 'I' for Inactive)
REMARK    1  A    between atoms: C_2  and  C_3
REMARK    2  A    between atoms: C_3  and  C_4
REMARK    3  A    between atoms: C_4  and  C_5
REMARK    4  A    between atoms: C_4  and  C_8
REMARK    5  A    between atoms: C_5  and  C_6
REMARK                            x       y       z     vdW  Elec       q    Type
REMARK                         _______ _______ _______ _____ _____    ______ ____
ROOT
ATOM      1  C   UNL     1     -11.062  14.974  65.748  0.00  0.00    +0.103 C 
ENDROOT
BRANCH   1   2
ATOM      2  C   UNL     1     -11.476  15.507  64.465  0.00  0.00    +0.364 C 
ATOM      3  O   UNL     1     -12.656  14.988  63.919  0.00  0.00    -0.246 OA
ATOM      4  O   UNL     1     -11.302  16.751  64.283  0.00  0.00    -0.246 OA
ENDBRANCH   1   2
BRANCH   1   5
ATOM      5  C   UNL     1      -9.650  15.040  66.114  0.00  0.00    +0.011 C 
BRANCH   5   7
ATOM      6  C   UNL     1      -8.692  14.543  68.288  0.00  0.00    +0.000 C 
ATOM      7  C   UNL     1      -9.521  15.577  67.535  0.00  0.00    +0.001 C 
ENDBRANCH   5   7
ENDBRANCH   1   5
BRANCH   1   8
ATOM      8  C   UNL     1     -12.015  14.233  66.555  0.00  0.00    +0.011 C 
BRANCH   8   9
ATOM      9  C   UNL     1     -11.783  12.748  66.503  0.00  0.00    +0.001 C 
ATOM     10  C   UNL     1     -11.644  12.175  67.908  0.00  0.00    +0.000 C 
ENDBRANCH   8   9
ENDBRANCH   1   8
TORSDOF 5
ENDMDL
MODEL 6
REMARK VINA RESULT:      -3.6      4.903      6.490
REMARK  Name = 
REMARK  5 active torsions:
REMARK  status: ('A' for Active; 'I' for Inactive)
REMARK    1  A    between atoms: C_2  and  C_3
REMARK    2  A    between atoms: C_3  and  C_4
REMARK    3  A    between atoms: C_4  and  C_5
REMARK    4  A    between atoms: C_4  and  C_8
REMARK    5  A    between atoms: C_5  and  C_6
REMARK                            x       y       z     vdW  Elec       q    Type
REMARK                         _______ _______ _______ _____ _____    ______ ____
ROOT
ATOM      1  C   UNL     1     -12.812  14.870  71.286  0.00  0.00    +0.103 C 
ENDROOT
BRANCH   1   2
ATOM      2  C   UNL     1     -13.925  15.267  72.125  0.00  0.00    +0.364 C 
ATOM      3  O   UNL     1     -13.620  16.032  73.257  0.00  0.00    -0.246 OA
ATOM      4  O   UNL     1     -14.997  15.594  71.529  0.00  0.00    -0.246 OA
ENDBRANCH   1   2
BRANCH   1   5
ATOM      5  C   UNL     1     -12.071  15.902  70.565  0.00  0.00    +0.011 C 
BRANCH   5   7
ATOM      6  C   UNL     1     -11.095  16.180  68.361  0.00  0.00    +0.000 C 
ATOM      7  C   UNL     1     -11.133  15.242  69.562  0.00  0.00    +0.001 C 
ENDBRANCH   5   7
ENDBRANCH   1   5
BRANCH   1   8
ATOM      8  C   UNL     1     -12.572  13.460  71.038  0.00  0.00    +0.011 C 
BRANCH   8   9
ATOM      9  C   UNL     1     -13.299  12.572  72.010  0.00  0.00    +0.001 C 
ATOM     10  C   UNL     1     -13.085  11.103  71.661  0.00  0.00    +0.000 C 
ENDBRANCH   8   9
ENDBRANCH   1   8
TORSDOF 5
ENDMDL
MODEL 7
REMARK VINA RESULT:      -3.6      2.127      3.435
REMARK  Name = 
REMARK  5 active torsions:
REMARK  status: ('A' for Active; 'I' for Inactive)
REMARK    1  A    between atoms: C_2  and  C_3
REMARK    2  A    between atoms: C_3  and  C_4
REMARK    3  A    between atoms: C_4  and  C_5
REMARK    4  A    between atoms: C_4  and  C_8
REMARK    5  A    between atoms: C_5  and  C_6
REMARK                            x       y       z     vdW  Elec       q    Type
REMARK                         _______ _______ _______ _____ _____    ______ ____
ROOT
ATOM      1  C   UNL     1     -11.452  14.117  65.755  0.00  0.00    +0.103 C 
ENDROOT
BRANCH   1   2
ATOM      2  C   UNL     1     -12.214  13.659  64.611  0.00  0.00    +0.364 C 
ATOM      3  O   UNL     1     -13.101  12.597  64.829  0.00  0.00    -0.246 OA
ATOM      4  O   UNL     1     -12.633  14.552  63.813  0.00  0.00    -0.246 OA
ENDBRANCH   1   2
BRANCH   1   5
ATOM      5  C   UNL     1     -10.037  14.432  65.577  0.00  0.00    +0.011 C 
BRANCH   5   7
ATOM      6  C   UNL     1      -8.422  16.056  66.380  0.00  0.00    +0.000 C 
ATOM      7  C   UNL     1      -9.822  15.926  65.791  0.00  0.00    +0.001 C 
ENDBRANCH   5   7
ENDBRANCH   1   5
BRANCH   1   8
ATOM      8  C   UNL     1     -12.054  14.080  67.076  0.00  0.00    +0.011 C 
BRANCH   8   9
ATOM      9  C   UNL     1     -11.240  13.286  68.060  0.00  0.00    +0.001 C 
ATOM     10  C   UNL     1     -11.545  11.798  67.933  0.00  0.00    +0.000 C 
ENDBRANCH   8   9
ENDBRANCH   1   8
TORSDOF 5
ENDMDL
MODEL 8
REMARK VINA RESULT:      -3.6      2.323      3.041
REMARK  Name = 
REMARK  5 active torsions:
REMARK  status: ('A' for Active; 'I' for Inactive)
REMARK    1  A    between atoms: C_2  and  C_3
REMARK    2  A    between atoms: C_3  and  C_4
REMARK    3  A    between atoms: C_4  and  C_5
REMARK    4  A    between atoms: C_4  and  C_8
REMARK    5  A    between atoms: C_5  and  C_6
REMARK                            x       y       z     vdW  Elec       q    Type
REMARK                         _______ _______ _______ _____ _____    ______ ____
ROOT
ATOM      1  C   UNL     1     -11.892  13.016  65.440  0.00  0.00    +0.103 C 
ENDROOT
BRANCH   1   2
ATOM      2  C   UNL     1     -12.262  13.084  64.040  0.00  0.00    +0.364 C 
ATOM      3  O   UNL     1     -13.022  12.022  63.536  0.00  0.00    -0.246 OA
ATOM      4  O   UNL     1     -12.576  14.229  63.591  0.00  0.00    -0.246 OA
ENDBRANCH   1   2
BRANCH   1   5
ATOM      5  C   UNL     1     -11.314  11.778  65.955  0.00  0.00    +0.011 C 
BRANCH   5   7
ATOM      6  C   UNL     1      -9.961  10.168  64.744  0.00  0.00    +0.000 C 
ATOM      7  C   UNL     1      -9.935  11.571  65.339  0.00  0.00    +0.001 C 
ENDBRANCH   5   7
ENDBRANCH   1   5
BRANCH   1   8
ATOM      8  C   UNL     1     -12.267  14.100  66.331  0.00  0.00    +0.011 C 
BRANCH   8   9
ATOM      9  C   UNL     1     -11.079  14.736  66.998  0.00  0.00    +0.001 C 
ATOM     10  C   UNL     1     -10.311  15.608  66.011  0.00  0.00    +0.000 C 
ENDBRANCH   8   9
ENDBRANCH   1   8
TORSDOF 5
ENDMDL
MODEL 9
REMARK VINA RESULT:      -3.6      2.031      3.425
REMARK  Name = 
REMARK  5 active torsions:
REMARK  status: ('A' for Active; 'I' for Inactive)
REMARK    1  A    between atoms: C_2  and  C_3
REMARK    2  A    between atoms: C_3  and  C_4
REMARK    3  A    between atoms: C_4  and  C_5
REMARK    4  A    between atoms: C_4  and  C_8
REMARK    5  A    between atoms: C_5  and  C_6
REMARK                            x       y       z     vdW  Elec       q    Type
REMARK                         _______ _______ _______ _____ _____    ______ ____
ROOT
ATOM      1  C   UNL     1     -11.415  13.880  65.719  0.00  0.00    +0.103 C 
ENDROOT
BRANCH   1   2
ATOM      2  C   UNL     1     -12.236  13.566  64.566  0.00  0.00    +0.364 C 
ATOM      3  O   UNL     1     -13.179  12.543  64.724  0.00  0.00    -0.246 OA
ATOM      4  O   UNL     1     -12.621  14.546  63.858  0.00  0.00    -0.246 OA
ENDBRANCH   1   2
BRANCH   1   5
ATOM      5  C   UNL     1     -12.072  14.170  66.991  0.00  0.00    +0.011 C 
BRANCH   5   7
ATOM      6  C   UNL     1     -11.531  13.841  69.334  0.00  0.00    +0.000 C 
ATOM      7  C   UNL     1     -11.690  13.103  68.010  0.00  0.00    +0.001 C 
ENDBRANCH   5   7
ENDBRANCH   1   5
BRANCH   1   8
ATOM      8  C   UNL     1      -9.987  14.077  65.547  0.00  0.00    +0.011 C 
BRANCH   8   9
ATOM      9  C   UNL     1      -9.551  15.473  65.897  0.00  0.00    +0.001 C 
ATOM     10  C   UNL     1      -8.413  15.444  66.911  0.00  0.00    +0.000 C 
ENDBRANCH   8   9
ENDBRANCH   1   8
TORSDOF 5
ENDMDL
