MODEL 1
REMARK VINA RESULT:      -6.6      0.000      0.000
REMARK  Name = 
REMARK  20 active torsions:
REMARK  status: ('A' for Active; 'I' for Inactive)
REMARK    1  A    between atoms: C_2  and  C_3
REMARK    2  A    between atoms: C_2  and  O_12
REMARK    3  A    between atoms: C_3  and  C_4
REMARK    4  A    between atoms: C_4  and  C_5
REMARK    5  A    between atoms: C_5  and  C_6
REMARK    6  A    between atoms: O_12  and  C_13
REMARK    7  A    between atoms: C_13  and  C_14
REMARK    8  A    between atoms: C_14  and  C_15
REMARK    9  A    between atoms: C_14  and  O_28
REMARK   10  A    between atoms: C_15  and  O_16
REMARK   11  A    between atoms: O_16  and  C_17
REMARK   12  A    between atoms: C_17  and  C_19
REMARK   13  A    between atoms: C_19  and  C_20
REMARK   14  A    between atoms: C_20  and  C_21
REMARK   15  A    between atoms: C_21  and  C_22
REMARK   16  A    between atoms: O_28  and  C_29
REMARK   17  A    between atoms: C_29  and  C_31
REMARK   18  A    between atoms: C_31  and  C_32
REMARK   19  A    between atoms: C_32  and  C_33
REMARK   20  A    between atoms: C_33  and  C_34
REMARK                            x       y       z     vdW  Elec       q    Type
REMARK                         _______ _______ _______ _____ _____    ______ ____
ROOT
ATOM      1  C   UNL     1     -11.233  14.852  65.798  0.00  0.00    +0.256 C 
ENDROOT
BRANCH   1   2
ATOM      2  C   UNL     1     -12.459  14.294  65.129  0.00  0.00    +0.256 C 
BRANCH   2   3
ATOM      3  O   UNL     1     -12.224  13.883  63.799  0.00  0.00    -0.444 OA
BRANCH   3   5
ATOM      4  O   UNL     1     -13.171  11.840  63.662  0.00  0.00    -0.250 OA
ATOM      5  C   UNL     1     -12.162  12.536  63.425  0.00  0.00    +0.317 C 
BRANCH   5   6
ATOM      6  C   UNL     1     -10.808  11.976  63.166  0.00  0.00    +0.110 C 
BRANCH   6   7
ATOM      7  C   UNL     1     -10.633  10.795  64.095  0.00  0.00    +0.016 C 
BRANCH   7   8
ATOM      8  C   UNL     1      -9.191  10.532  64.430  0.00  0.00    +0.027 C 
BRANCH   8   9
ATOM      9  C   UNL     1      -9.065   9.759  65.694  0.00  0.00    -0.022 A 
ATOM     10  C   UNL     1      -7.961   9.995  66.499  0.00  0.00    -0.004 A 
ATOM     11  C   UNL     1      -8.017   9.530  67.803  0.00  0.00    -0.000 A 
ATOM     12  C   UNL     1      -8.820   8.434  68.062  0.00  0.00    -0.000 A 
ATOM     13  C   UNL     1      -9.928   8.192  67.291  0.00  0.00    -0.000 A 
ATOM     14  C   UNL     1     -10.102   8.995  66.178  0.00  0.00    -0.004 A 
ENDBRANCH   8   9
ENDBRANCH   7   8
ENDBRANCH   6   7
ENDBRANCH   5   6
ENDBRANCH   3   5
ENDBRANCH   2   3
ENDBRANCH   1   2
BRANCH   1  15
ATOM     15  O   UNL     1     -10.243  13.830  65.878  0.00  0.00    -0.444 OA
BRANCH  15  16
ATOM     16  C   UNL     1     -10.092  13.060  67.032  0.00  0.00    +0.317 C 
ATOM     17  O   UNL     1      -9.013  13.231  67.673  0.00  0.00    -0.250 OA
BRANCH  16  18
ATOM     18  C   UNL     1     -11.186  12.180  67.527  0.00  0.00    +0.110 C 
BRANCH  18  19
ATOM     19  C   UNL     1     -10.790  11.577  68.869  0.00  0.00    +0.016 C 
BRANCH  19  20
ATOM     20  C   UNL     1     -12.005  11.645  69.785  0.00  0.00    +0.027 C 
BRANCH  20  21
ATOM     21  C   UNL     1     -11.945  10.607  70.849  0.00  0.00    -0.022 A 
ATOM     22  C   UNL     1     -10.998   9.598  70.753  0.00  0.00    -0.004 A 
ATOM     23  C   UNL     1     -11.266   8.297  71.154  0.00  0.00    -0.000 A 
ATOM     24  C   UNL     1     -12.456   8.006  71.794  0.00  0.00    -0.000 A 
ATOM     25  C   UNL     1     -13.247   9.080  72.169  0.00  0.00    -0.000 A 
ATOM     26  C   UNL     1     -13.011  10.365  71.708  0.00  0.00    -0.004 A 
ENDBRANCH  20  21
ENDBRANCH  19  20
ENDBRANCH  18  19
ENDBRANCH  16  18
ENDBRANCH  15  16
ENDBRANCH   1  15
BRANCH   1  27
ATOM     27  C   UNL     1     -10.696  16.085  65.130  0.00  0.00    +0.256 C 
BRANCH  27  28
ATOM     28  O   UNL     1      -9.694  16.734  65.910  0.00  0.00    -0.444 OA
BRANCH  28  29
ATOM     29  C   UNL     1     -10.007  17.292  67.140  0.00  0.00    +0.317 C 
ATOM     30  O   UNL     1     -10.409  18.488  67.121  0.00  0.00    -0.250 OA
BRANCH  29  31
ATOM     31  C   UNL     1      -9.788  16.584  68.435  0.00  0.00    +0.110 C 
BRANCH  31  32
ATOM     32  C   UNL     1     -11.063  16.649  69.241  0.00  0.00    +0.016 C 
BRANCH  32  33
ATOM     33  C   UNL     1     -11.620  15.257  69.445  0.00  0.00    +0.027 C 
BRANCH  33  34
ATOM     34  C   UNL     1     -12.230  15.164  70.798  0.00  0.00    -0.022 A 
ATOM     35  C   UNL     1     -11.478  15.517  71.891  0.00  0.00    -0.004 A 
ATOM     36  C   UNL     1     -12.080  16.011  73.038  0.00  0.00    -0.000 A 
ATOM     37  C   UNL     1     -13.432  15.805  73.194  0.00  0.00    -0.000 A 
ATOM     38  C   UNL     1     -14.176  15.289  72.168  0.00  0.00    -0.000 A 
ATOM     39  C   UNL     1     -13.610  15.159  70.906  0.00  0.00    -0.004 A 
ENDBRANCH  33  34
ENDBRANCH  32  33
ENDBRANCH  31  32
ENDBRANCH  29  31
ENDBRANCH  28  29
ENDBRANCH  27  28
ENDBRANCH   1  27
TORSDOF 20
ENDMDL
MODEL 2
REMARK VINA RESULT:      -6.6      2.524      7.461
REMARK  Name = 
REMARK  20 active torsions:
REMARK  status: ('A' for Active; 'I' for Inactive)
REMARK    1  A    between atoms: C_2  and  C_3
REMARK    2  A    between atoms: C_2  and  O_12
REMARK    3  A    between atoms: C_3  and  C_4
REMARK    4  A    between atoms: C_4  and  C_5
REMARK    5  A    between atoms: C_5  and  C_6
REMARK    6  A    between atoms: O_12  and  C_13
REMARK    7  A    between atoms: C_13  and  C_14
REMARK    8  A    between atoms: C_14  and  C_15
REMARK    9  A    between atoms: C_14  and  O_28
REMARK   10  A    between atoms: C_15  and  O_16
REMARK   11  A    between atoms: O_16  and  C_17
REMARK   12  A    between atoms: C_17  and  C_19
REMARK   13  A    between atoms: C_19  and  C_20
REMARK   14  A    between atoms: C_20  and  C_21
REMARK   15  A    between atoms: C_21  and  C_22
REMARK   16  A    between atoms: O_28  and  C_29
REMARK   17  A    between atoms: C_29  and  C_31
REMARK   18  A    between atoms: C_31  and  C_32
REMARK   19  A    between atoms: C_32  and  C_33
REMARK   20  A    between atoms: C_33  and  C_34
REMARK                            x       y       z     vdW  Elec       q    Type
REMARK                         _______ _______ _______ _____ _____    ______ ____
ROOT
ATOM      1  C   UNL     1     -10.425  12.125  66.817  0.00  0.00    +0.256 C 
ENDROOT
BRANCH   1   2
ATOM      2  C   UNL     1      -8.922  12.167  66.797  0.00  0.00    +0.256 C 
BRANCH   2   3
ATOM      3  O   UNL     1      -8.375  12.919  67.860  0.00  0.00    -0.444 OA
BRANCH   3   5
ATOM      4  O   UNL     1      -6.247  13.133  67.146  0.00  0.00    -0.250 OA
ATOM      5  C   UNL     1      -7.209  13.679  67.725  0.00  0.00    +0.317 C 
BRANCH   5   6
ATOM      6  C   UNL     1      -7.081  14.870  68.607  0.00  0.00    +0.110 C 
BRANCH   6   7
ATOM      7  C   UNL     1      -6.513  15.988  67.761  0.00  0.00    +0.016 C 
BRANCH   7   8
ATOM      8  C   UNL     1      -6.256  17.240  68.553  0.00  0.00    +0.027 C 
BRANCH   8   9
ATOM      9  C   UNL     1      -6.330  18.447  67.688  0.00  0.00    -0.022 A 
ATOM     10  C   UNL     1      -6.531  18.269  66.328  0.00  0.00    -0.004 A 
ATOM     11  C   UNL     1      -6.924  19.377  65.595  0.00  0.00    -0.000 A 
ATOM     12  C   UNL     1      -6.556  20.624  66.065  0.00  0.00    -0.000 A 
ATOM     13  C   UNL     1      -6.370  20.829  67.408  0.00  0.00    -0.000 A 
ATOM     14  C   UNL     1      -6.421  19.712  68.223  0.00  0.00    -0.004 A 
ENDBRANCH   8   9
ENDBRANCH   7   8
ENDBRANCH   6   7
ENDBRANCH   5   6
ENDBRANCH   3   5
ENDBRANCH   2   3
ENDBRANCH   1   2
BRANCH   1  15
ATOM     15  O   UNL     1     -10.915  12.506  65.535  0.00  0.00    -0.444 OA
BRANCH  15  16
ATOM     16  C   UNL     1     -11.912  13.473  65.401  0.00  0.00    +0.317 C 
ATOM     17  O   UNL     1     -13.034  13.057  64.985  0.00  0.00    -0.250 OA
BRANCH  16  18
ATOM     18  C   UNL     1     -11.690  14.881  65.829  0.00  0.00    +0.110 C 
BRANCH  18  19
ATOM     19  C   UNL     1     -10.534  15.480  65.036  0.00  0.00    +0.016 C 
BRANCH  19  20
ATOM     20  C   UNL     1      -9.551  16.082  66.032  0.00  0.00    +0.027 C 
BRANCH  20  21
ATOM     21  C   UNL     1     -10.151  17.227  66.767  0.00  0.00    -0.022 A 
ATOM     22  C   UNL     1     -10.490  18.375  66.064  0.00  0.00    -0.004 A 
ATOM     23  C   UNL     1     -10.338  19.642  66.608  0.00  0.00    -0.000 A 
ATOM     24  C   UNL     1      -9.968  19.782  67.933  0.00  0.00    -0.000 A 
ATOM     25  C   UNL     1      -9.949  18.632  68.705  0.00  0.00    -0.000 A 
ATOM     26  C   UNL     1     -10.033  17.367  68.144  0.00  0.00    -0.004 A 
ENDBRANCH  20  21
ENDBRANCH  19  20
ENDBRANCH  18  19
ENDBRANCH  16  18
ENDBRANCH  15  16
ENDBRANCH   1  15
BRANCH   1  27
ATOM     27  C   UNL     1     -10.982  10.799  67.246  0.00  0.00    +0.256 C 
BRANCH  27  28
ATOM     28  O   UNL     1     -12.038  10.932  68.195  0.00  0.00    -0.444 OA
BRANCH  28  29
ATOM     29  C   UNL     1     -11.837  10.603  69.527  0.00  0.00    +0.317 C 
ATOM     30  O   UNL     1     -10.688  10.176  69.825  0.00  0.00    -0.250 OA
BRANCH  29  31
ATOM     31  C   UNL     1     -12.925  10.637  70.547  0.00  0.00    +0.110 C 
BRANCH  31  32
ATOM     32  C   UNL     1     -12.510  11.566  71.663  0.00  0.00    +0.016 C 
BRANCH  32  33
ATOM     33  C   UNL     1     -13.673  12.445  72.066  0.00  0.00    +0.027 C 
BRANCH  33  34
ATOM     34  C   UNL     1     -13.292  13.873  71.898  0.00  0.00    -0.022 A 
ATOM     35  C   UNL     1     -13.085  14.641  73.016  0.00  0.00    -0.004 A 
ATOM     36  C   UNL     1     -12.210  15.717  72.988  0.00  0.00    -0.000 A 
ATOM     37  C   UNL     1     -11.840  16.211  71.758  0.00  0.00    -0.000 A 
ATOM     38  C   UNL     1     -12.187  15.547  70.613  0.00  0.00    -0.000 A 
ATOM     39  C   UNL     1     -12.737  14.275  70.695  0.00  0.00    -0.004 A 
ENDBRANCH  33  34
ENDBRANCH  32  33
ENDBRANCH  31  32
ENDBRANCH  29  31
ENDBRANCH  28  29
ENDBRANCH  27  28
ENDBRANCH   1  27
TORSDOF 20
ENDMDL
MODEL 3
REMARK VINA RESULT:      -6.5      2.339      7.576
REMARK  Name = 
REMARK  20 active torsions:
REMARK  status: ('A' for Active; 'I' for Inactive)
REMARK    1  A    between atoms: C_2  and  C_3
REMARK    2  A    between atoms: C_2  and  O_12
REMARK    3  A    between atoms: C_3  and  C_4
REMARK    4  A    between atoms: C_4  and  C_5
REMARK    5  A    between atoms: C_5  and  C_6
REMARK    6  A    between atoms: O_12  and  C_13
REMARK    7  A    between atoms: C_13  and  C_14
REMARK    8  A    between atoms: C_14  and  C_15
REMARK    9  A    between atoms: C_14  and  O_28
REMARK   10  A    between atoms: C_15  and  O_16
REMARK   11  A    between atoms: O_16  and  C_17
REMARK   12  A    between atoms: C_17  and  C_19
REMARK   13  A    between atoms: C_19  and  C_20
REMARK   14  A    between atoms: C_20  and  C_21
REMARK   15  A    between atoms: C_21  and  C_22
REMARK   16  A    between atoms: O_28  and  C_29
REMARK   17  A    between atoms: C_29  and  C_31
REMARK   18  A    between atoms: C_31  and  C_32
REMARK   19  A    between atoms: C_32  and  C_33
REMARK   20  A    between atoms: C_33  and  C_34
REMARK                            x       y       z     vdW  Elec       q    Type
REMARK                         _______ _______ _______ _____ _____    ______ ____
ROOT
ATOM      1  C   UNL     1     -10.451  16.546  65.802  0.00  0.00    +0.256 C 
ENDROOT
BRANCH   1   2
ATOM      2  C   UNL     1      -9.057  16.001  65.949  0.00  0.00    +0.256 C 
BRANCH   2   3
ATOM      3  O   UNL     1      -8.708  15.729  67.290  0.00  0.00    -0.444 OA
BRANCH   3   5
ATOM      4  O   UNL     1      -8.301  13.526  67.027  0.00  0.00    -0.250 OA
ATOM      5  C   UNL     1      -8.660  14.431  67.809  0.00  0.00    +0.317 C 
BRANCH   5   6
ATOM      6  C   UNL     1      -9.404  14.189  69.074  0.00  0.00    +0.110 C 
BRANCH   6   7
ATOM      7  C   UNL     1     -10.354  15.352  69.259  0.00  0.00    +0.016 C 
BRANCH   7   8
ATOM      8  C   UNL     1     -11.785  14.912  69.396  0.00  0.00    +0.027 C 
BRANCH   8   9
ATOM      9  C   UNL     1     -12.260  15.058  70.798  0.00  0.00    -0.022 A 
ATOM     10  C   UNL     1     -13.139  14.107  71.295  0.00  0.00    -0.004 A 
ATOM     11  C   UNL     1     -13.311  14.061  72.669  0.00  0.00    -0.000 A 
ATOM     12  C   UNL     1     -13.101  15.226  73.384  0.00  0.00    -0.000 A 
ATOM     13  C   UNL     1     -12.222  16.172  72.922  0.00  0.00    -0.000 A 
ATOM     14  C   UNL     1     -11.691  15.968  71.661  0.00  0.00    -0.004 A 
ENDBRANCH   8   9
ENDBRANCH   7   8
ENDBRANCH   6   7
ENDBRANCH   5   6
ENDBRANCH   3   5
ENDBRANCH   2   3
ENDBRANCH   1   2
BRANCH   1  15
ATOM     15  O   UNL     1     -10.380  17.958  65.626  0.00  0.00    -0.444 OA
BRANCH  15  16
ATOM     16  C   UNL     1     -10.343  18.821  66.722  0.00  0.00    +0.317 C 
ATOM     17  O   UNL     1     -10.981  18.439  67.749  0.00  0.00    -0.250 OA
BRANCH  16  18
ATOM     18  C   UNL     1      -9.512  20.056  66.711  0.00  0.00    +0.110 C 
BRANCH  18  19
ATOM     19  C   UNL     1      -8.038  19.680  66.619  0.00  0.00    +0.016 C 
BRANCH  19  20
ATOM     20  C   UNL     1      -7.299  20.429  67.721  0.00  0.00    +0.027 C 
BRANCH  20  21
ATOM     21  C   UNL     1      -6.983  19.538  68.869  0.00  0.00    -0.022 A 
ATOM     22  C   UNL     1      -6.212  20.031  69.912  0.00  0.00    -0.004 A 
ATOM     23  C   UNL     1      -5.285  19.243  70.578  0.00  0.00    -0.000 A 
ATOM     24  C   UNL     1      -5.207  17.891  70.302  0.00  0.00    -0.000 A 
ATOM     25  C   UNL     1      -6.200  17.356  69.497  0.00  0.00    -0.000 A 
ATOM     26  C   UNL     1      -7.078  18.154  68.782  0.00  0.00    -0.004 A 
ENDBRANCH  20  21
ENDBRANCH  19  20
ENDBRANCH  18  19
ENDBRANCH  16  18
ENDBRANCH  15  16
ENDBRANCH   1  15
BRANCH   1  27
ATOM     27  C   UNL     1     -11.235  15.895  64.700  0.00  0.00    +0.256 C 
BRANCH  27  28
ATOM     28  O   UNL     1     -10.947  14.504  64.574  0.00  0.00    -0.444 OA
BRANCH  28  29
ATOM     29  C   UNL     1     -11.956  13.595  64.299  0.00  0.00    +0.317 C 
ATOM     30  O   UNL     1     -12.423  13.623  63.126  0.00  0.00    -0.250 OA
BRANCH  29  31
ATOM     31  C   UNL     1     -12.551  12.699  65.333  0.00  0.00    +0.110 C 
BRANCH  31  32
ATOM     32  C   UNL     1     -11.595  12.605  66.497  0.00  0.00    +0.016 C 
BRANCH  32  33
ATOM     33  C   UNL     1     -10.968  11.229  66.545  0.00  0.00    +0.027 C 
BRANCH  33  34
ATOM     34  C   UNL     1     -11.198  10.629  67.886  0.00  0.00    -0.022 A 
ATOM     35  C   UNL     1     -10.361   9.633  68.320  0.00  0.00    -0.004 A 
ATOM     36  C   UNL     1     -10.124   9.443  69.674  0.00  0.00    -0.000 A 
ATOM     37  C   UNL     1     -11.001  10.018  70.566  0.00  0.00    -0.000 A 
ATOM     38  C   UNL     1     -11.962  10.888  70.128  0.00  0.00    -0.000 A 
ATOM     39  C   UNL     1     -11.929  11.346  68.818  0.00  0.00    -0.004 A 
ENDBRANCH  33  34
ENDBRANCH  32  33
ENDBRANCH  31  32
ENDBRANCH  29  31
ENDBRANCH  28  29
ENDBRANCH  27  28
ENDBRANCH   1  27
TORSDOF 20
ENDMDL
MODEL 4
REMARK VINA RESULT:      -6.4      0.991      6.276
REMARK  Name = 
REMARK  20 active torsions:
REMARK  status: ('A' for Active; 'I' for Inactive)
REMARK    1  A    between atoms: C_2  and  C_3
REMARK    2  A    between atoms: C_2  and  O_12
REMARK    3  A    between atoms: C_3  and  C_4
REMARK    4  A    between atoms: C_4  and  C_5
REMARK    5  A    between atoms: C_5  and  C_6
REMARK    6  A    between atoms: O_12  and  C_13
REMARK    7  A    between atoms: C_13  and  C_14
REMARK    8  A    between atoms: C_14  and  C_15
REMARK    9  A    between atoms: C_14  and  O_28
REMARK   10  A    between atoms: C_15  and  O_16
REMARK   11  A    between atoms: O_16  and  C_17
REMARK   12  A    between atoms: C_17  and  C_19
REMARK   13  A    between atoms: C_19  and  C_20
REMARK   14  A    between atoms: C_20  and  C_21
REMARK   15  A    between atoms: C_21  and  C_22
REMARK   16  A    between atoms: O_28  and  C_29
REMARK   17  A    between atoms: C_29  and  C_31
REMARK   18  A    between atoms: C_31  and  C_32
REMARK   19  A    between atoms: C_32  and  C_33
REMARK   20  A    between atoms: C_33  and  C_34
REMARK                            x       y       z     vdW  Elec       q    Type
REMARK                         _______ _______ _______ _____ _____    ______ ____
ROOT
ATOM      1  C   UNL     1     -10.733  13.841  66.114  0.00  0.00    +0.256 C 
ENDROOT
BRANCH   1   2
ATOM      2  C   UNL     1      -9.519  14.705  65.912  0.00  0.00    +0.256 C 
BRANCH   2   3
ATOM      3  O   UNL     1      -9.345  15.661  66.937  0.00  0.00    -0.444 OA
BRANCH   3   5
ATOM      4  O   UNL     1      -9.599  17.608  65.827  0.00  0.00    -0.250 OA
ATOM      5  C   UNL     1      -9.868  16.956  66.858  0.00  0.00    +0.317 C 
BRANCH   5   6
ATOM      6  C   UNL     1     -10.333  17.568  68.131  0.00  0.00    +0.110 C 
BRANCH   6   7
ATOM      7  C   UNL     1     -11.282  16.582  68.776  0.00  0.00    +0.016 C 
BRANCH   7   8
ATOM      8  C   UNL     1     -10.767  16.057  70.087  0.00  0.00    +0.027 C 
BRANCH   8   9
ATOM      9  C   UNL     1     -11.886  15.699  70.999  0.00  0.00    -0.022 A 
ATOM     10  C   UNL     1     -11.734  15.955  72.354  0.00  0.00    -0.004 A 
ATOM     11  C   UNL     1     -12.879  15.930  73.135  0.00  0.00    -0.000 A 
ATOM     12  C   UNL     1     -13.931  15.140  72.710  0.00  0.00    -0.000 A 
ATOM     13  C   UNL     1     -14.111  14.889  71.373  0.00  0.00    -0.000 A 
ATOM     14  C   UNL     1     -13.121  15.332  70.516  0.00  0.00    -0.004 A 
ENDBRANCH   8   9
ENDBRANCH   7   8
ENDBRANCH   6   7
ENDBRANCH   5   6
ENDBRANCH   3   5
ENDBRANCH   2   3
ENDBRANCH   1   2
BRANCH   1  15
ATOM     15  O   UNL     1     -10.947  13.661  67.511  0.00  0.00    -0.444 OA
BRANCH  15  16
ATOM     16  C   UNL     1     -11.583  12.521  68.002  0.00  0.00    +0.317 C 
ATOM     17  O   UNL     1     -11.978  11.688  67.132  0.00  0.00    -0.250 OA
BRANCH  16  18
ATOM     18  C   UNL     1     -11.687  12.259  69.464  0.00  0.00    +0.110 C 
BRANCH  18  19
ATOM     19  C   UNL     1     -12.411  10.938  69.697  0.00  0.00    +0.016 C 
BRANCH  19  20
ATOM     20  C   UNL     1     -12.746  10.849  71.180  0.00  0.00    +0.027 C 
BRANCH  20  21
ATOM     21  C   UNL     1     -12.582   9.463  71.694  0.00  0.00    -0.022 A 
ATOM     22  C   UNL     1     -11.313   8.903  71.730  0.00  0.00    -0.004 A 
ATOM     23  C   UNL     1     -11.093   7.560  71.462  0.00  0.00    -0.000 A 
ATOM     24  C   UNL     1     -12.168   6.710  71.286  0.00  0.00    -0.000 A 
ATOM     25  C   UNL     1     -13.425   7.217  71.573  0.00  0.00    -0.000 A 
ATOM     26  C   UNL     1     -13.645   8.571  71.772  0.00  0.00    -0.004 A 
ENDBRANCH  20  21
ENDBRANCH  19  20
ENDBRANCH  18  19
ENDBRANCH  16  18
ENDBRANCH  15  16
ENDBRANCH   1  15
BRANCH   1  27
ATOM     27  C   UNL     1     -11.963  14.369  65.434  0.00  0.00    +0.256 C 
BRANCH  27  28
ATOM     28  O   UNL     1     -12.014  14.020  64.052  0.00  0.00    -0.444 OA
BRANCH  28  29
ATOM     29  C   UNL     1     -11.938  12.695  63.654  0.00  0.00    +0.317 C 
ATOM     30  O   UNL     1     -13.026  12.055  63.644  0.00  0.00    -0.250 OA
BRANCH  29  31
ATOM     31  C   UNL     1     -10.649  12.007  63.354  0.00  0.00    +0.110 C 
BRANCH  31  32
ATOM     32  C   UNL     1     -10.582  10.734  64.164  0.00  0.00    +0.016 C 
BRANCH  32  33
ATOM     33  C   UNL     1      -9.141  10.385  64.465  0.00  0.00    +0.027 C 
BRANCH  33  34
ATOM     34  C   UNL     1      -9.047   9.829  65.841  0.00  0.00    -0.022 A 
ATOM     35  C   UNL     1      -8.332  10.517  66.788  0.00  0.00    -0.004 A 
ATOM     36  C   UNL     1      -8.656  10.421  68.134  0.00  0.00    -0.000 A 
ATOM     37  C   UNL     1      -9.451   9.370  68.529  0.00  0.00    -0.000 A 
ATOM     38  C   UNL     1     -10.040   8.559  67.596  0.00  0.00    -0.000 A 
ATOM     39  C   UNL     1     -10.000   8.913  66.254  0.00  0.00    -0.004 A 
ENDBRANCH  33  34
ENDBRANCH  32  33
ENDBRANCH  31  32
ENDBRANCH  29  31
ENDBRANCH  28  29
ENDBRANCH  27  28
ENDBRANCH   1  27
TORSDOF 20
ENDMDL
MODEL 5
REMARK VINA RESULT:      -6.4      2.395      6.332
REMARK  Name = 
REMARK  20 active torsions:
REMARK  status: ('A' for Active; 'I' for Inactive)
REMARK    1  A    between atoms: C_2  and  C_3
REMARK    2  A    between atoms: C_2  and  O_12
REMARK    3  A    between atoms: C_3  and  C_4
REMARK    4  A    between atoms: C_4  and  C_5
REMARK    5  A    between atoms: C_5  and  C_6
REMARK    6  A    between atoms: O_12  and  C_13
REMARK    7  A    between atoms: C_13  and  C_14
REMARK    8  A    between atoms: C_14  and  C_15
REMARK    9  A    between atoms: C_14  and  O_28
REMARK   10  A    between atoms: C_15  and  O_16
REMARK   11  A    between atoms: O_16  and  C_17
REMARK   12  A    between atoms: C_17  and  C_19
REMARK   13  A    between atoms: C_19  and  C_20
REMARK   14  A    between atoms: C_20  and  C_21
REMARK   15  A    between atoms: C_21  and  C_22
REMARK   16  A    between atoms: O_28  and  C_29
REMARK   17  A    between atoms: C_29  and  C_31
REMARK   18  A    between atoms: C_31  and  C_32
REMARK   19  A    between atoms: C_32  and  C_33
REMARK   20  A    between atoms: C_33  and  C_34
REMARK                            x       y       z     vdW  Elec       q    Type
REMARK                         _______ _______ _______ _____ _____    ______ ____
ROOT
ATOM      1  C   UNL     1      -9.825  11.302  66.595  0.00  0.00    +0.256 C 
ENDROOT
BRANCH   1   2
ATOM      2  C   UNL     1      -8.361  11.123  66.891  0.00  0.00    +0.256 C 
BRANCH   2   3
ATOM      3  O   UNL     1      -7.999  11.570  68.180  0.00  0.00    -0.444 OA
BRANCH   3   5
ATOM      4  O   UNL     1      -6.164  11.914  69.445  0.00  0.00    -0.250 OA
ATOM      5  C   UNL     1      -6.809  12.259  68.433  0.00  0.00    +0.317 C 
BRANCH   5   6
ATOM      6  C   UNL     1      -6.630  13.562  67.738  0.00  0.00    +0.110 C 
BRANCH   6   7
ATOM      7  C   UNL     1      -7.790  14.444  68.145  0.00  0.00    +0.016 C 
BRANCH   7   8
ATOM      8  C   UNL     1      -7.352  15.651  68.927  0.00  0.00    +0.027 C 
BRANCH   8   9
ATOM      9  C   UNL     1      -6.844  16.720  68.027  0.00  0.00    -0.022 A 
ATOM     10  C   UNL     1      -7.132  16.629  66.674  0.00  0.00    -0.004 A 
ATOM     11  C   UNL     1      -6.948  17.771  65.910  0.00  0.00    -0.000 A 
ATOM     12  C   UNL     1      -6.009  18.689  66.340  0.00  0.00    -0.000 A 
ATOM     13  C   UNL     1      -5.721  18.809  67.676  0.00  0.00    -0.000 A 
ATOM     14  C   UNL     1      -6.295  17.880  68.524  0.00  0.00    -0.004 A 
ENDBRANCH   8   9
ENDBRANCH   7   8
ENDBRANCH   6   7
ENDBRANCH   5   6
ENDBRANCH   3   5
ENDBRANCH   2   3
ENDBRANCH   1   2
BRANCH   1  15
ATOM     15  O   UNL     1     -10.381  12.207  67.544  0.00  0.00    -0.444 OA
BRANCH  15  16
ATOM     16  C   UNL     1     -11.439  11.826  68.370  0.00  0.00    +0.317 C 
ATOM     17  O   UNL     1     -11.955  10.695  68.122  0.00  0.00    -0.250 OA
BRANCH  16  18
ATOM     18  C   UNL     1     -11.851  12.655  69.536  0.00  0.00    +0.110 C 
BRANCH  18  19
ATOM     19  C   UNL     1     -11.152  14.007  69.475  0.00  0.00    +0.016 C 
BRANCH  19  20
ATOM     20  C   UNL     1     -12.224  15.076  69.308  0.00  0.00    +0.027 C 
BRANCH  20  21
ATOM     21  C   UNL     1     -12.699  15.583  70.622  0.00  0.00    -0.022 A 
ATOM     22  C   UNL     1     -11.777  16.115  71.513  0.00  0.00    -0.004 A 
ATOM     23  C   UNL     1     -11.886  15.930  72.883  0.00  0.00    -0.000 A 
ATOM     24  C   UNL     1     -13.008  15.317  73.407  0.00  0.00    -0.000 A 
ATOM     25  C   UNL     1     -14.061  15.085  72.537  0.00  0.00    -0.000 A 
ATOM     26  C   UNL     1     -13.922  15.207  71.164  0.00  0.00    -0.004 A 
ENDBRANCH  20  21
ENDBRANCH  19  20
ENDBRANCH  18  19
ENDBRANCH  16  18
ENDBRANCH  15  16
ENDBRANCH   1  15
BRANCH   1  27
ATOM     27  C   UNL     1     -10.101  11.745  65.187  0.00  0.00    +0.256 C 
BRANCH  27  28
ATOM     28  O   UNL     1     -11.359  12.402  65.059  0.00  0.00    -0.444 OA
BRANCH  28  29
ATOM     29  C   UNL     1     -11.423  13.760  64.785  0.00  0.00    +0.317 C 
ATOM     30  O   UNL     1     -12.497  14.170  64.263  0.00  0.00    -0.250 OA
BRANCH  29  31
ATOM     31  C   UNL     1     -10.272  14.686  64.982  0.00  0.00    +0.110 C 
BRANCH  31  32
ATOM     32  C   UNL     1     -10.641  15.696  66.042  0.00  0.00    +0.016 C 
BRANCH  32  33
ATOM     33  C   UNL     1     -10.697  17.084  65.441  0.00  0.00    +0.027 C 
BRANCH  33  34
ATOM     34  C   UNL     1     -10.577  18.095  66.524  0.00  0.00    -0.022 A 
ATOM     35  C   UNL     1     -10.540  17.670  67.828  0.00  0.00    -0.004 A 
ATOM     36  C   UNL     1      -9.874  18.405  68.798  0.00  0.00    -0.000 A 
ATOM     37  C   UNL     1      -9.570  19.717  68.512  0.00  0.00    -0.000 A 
ATOM     38  C   UNL     1      -9.763  20.213  67.252  0.00  0.00    -0.000 A 
ATOM     39  C   UNL     1     -10.076  19.347  66.212  0.00  0.00    -0.004 A 
ENDBRANCH  33  34
ENDBRANCH  32  33
ENDBRANCH  31  32
ENDBRANCH  29  31
ENDBRANCH  28  29
ENDBRANCH  27  28
ENDBRANCH   1  27
TORSDOF 20
ENDMDL
MODEL 6
REMARK VINA RESULT:      -6.3      2.585      6.566
REMARK  Name = 
REMARK  20 active torsions:
REMARK  status: ('A' for Active; 'I' for Inactive)
REMARK    1  A    between atoms: C_2  and  C_3
REMARK    2  A    between atoms: C_2  and  O_12
REMARK    3  A    between atoms: C_3  and  C_4
REMARK    4  A    between atoms: C_4  and  C_5
REMARK    5  A    between atoms: C_5  and  C_6
REMARK    6  A    between atoms: O_12  and  C_13
REMARK    7  A    between atoms: C_13  and  C_14
REMARK    8  A    between atoms: C_14  and  C_15
REMARK    9  A    between atoms: C_14  and  O_28
REMARK   10  A    between atoms: C_15  and  O_16
REMARK   11  A    between atoms: O_16  and  C_17
REMARK   12  A    between atoms: C_17  and  C_19
REMARK   13  A    between atoms: C_19  and  C_20
REMARK   14  A    between atoms: C_20  and  C_21
REMARK   15  A    between atoms: C_21  and  C_22
REMARK   16  A    between atoms: O_28  and  C_29
REMARK   17  A    between atoms: C_29  and  C_31
REMARK   18  A    between atoms: C_31  and  C_32
REMARK   19  A    between atoms: C_32  and  C_33
REMARK   20  A    between atoms: C_33  and  C_34
REMARK                            x       y       z     vdW  Elec       q    Type
REMARK                         _______ _______ _______ _____ _____    ______ ____
ROOT
ATOM      1  C   UNL     1     -10.367  11.473  67.600  0.00  0.00    +0.256 C 
ENDROOT
BRANCH   1   2
ATOM      2  C   UNL     1     -11.321  11.800  66.483  0.00  0.00    +0.256 C 
BRANCH   2   3
ATOM      3  O   UNL     1     -11.959  13.049  66.650  0.00  0.00    -0.444 OA
BRANCH   3   5
ATOM      4  O   UNL     1     -13.215  14.074  65.082  0.00  0.00    -0.250 OA
ATOM      5  C   UNL     1     -12.088  13.974  65.609  0.00  0.00    +0.317 C 
BRANCH   5   6
ATOM      6  C   UNL     1     -10.828  14.443  64.971  0.00  0.00    +0.110 C 
BRANCH   6   7
ATOM      7  C   UNL     1     -10.661  15.900  65.340  0.00  0.00    +0.016 C 
BRANCH   7   8
ATOM      8  C   UNL     1     -10.348  16.096  66.797  0.00  0.00    +0.027 C 
BRANCH   8   9
ATOM      9  C   UNL     1     -10.180  17.538  67.122  0.00  0.00    -0.022 A 
ATOM     10  C   UNL     1     -10.301  18.460  66.094  0.00  0.00    -0.004 A 
ATOM     11  C   UNL     1     -10.473  19.788  66.451  0.00  0.00    -0.000 A 
ATOM     12  C   UNL     1      -9.964  20.198  67.669  0.00  0.00    -0.000 A 
ATOM     13  C   UNL     1      -9.853  19.307  68.707  0.00  0.00    -0.000 A 
ATOM     14  C   UNL     1     -10.127  17.981  68.424  0.00  0.00    -0.004 A 
ENDBRANCH   8   9
ENDBRANCH   7   8
ENDBRANCH   6   7
ENDBRANCH   5   6
ENDBRANCH   3   5
ENDBRANCH   2   3
ENDBRANCH   1   2
BRANCH   1  15
ATOM     15  O   UNL     1     -10.407  10.070  67.846  0.00  0.00    -0.444 OA
BRANCH  15  16
ATOM     16  C   UNL     1     -10.691   9.568  69.117  0.00  0.00    +0.317 C 
ATOM     17  O   UNL     1     -10.579   8.313  69.254  0.00  0.00    -0.250 OA
BRANCH  16  18
ATOM     18  C   UNL     1     -10.996  10.473  70.259  0.00  0.00    +0.110 C 
BRANCH  18  19
ATOM     19  C   UNL     1     -12.361  11.116  70.051  0.00  0.00    +0.016 C 
BRANCH  19  20
ATOM     20  C   UNL     1     -12.779  11.753  71.370  0.00  0.00    +0.027 C 
BRANCH  20  21
ATOM     21  C   UNL     1     -12.847  13.235  71.264  0.00  0.00    -0.022 A 
ATOM     22  C   UNL     1     -12.356  13.852  70.122  0.00  0.00    -0.004 A 
ATOM     23  C   UNL     1     -11.699  15.073  70.169  0.00  0.00    -0.000 A 
ATOM     24  C   UNL     1     -11.640  15.776  71.357  0.00  0.00    -0.000 A 
ATOM     25  C   UNL     1     -12.410  15.302  72.407  0.00  0.00    -0.000 A 
ATOM     26  C   UNL     1     -13.006  14.051  72.377  0.00  0.00    -0.004 A 
ENDBRANCH  20  21
ENDBRANCH  19  20
ENDBRANCH  18  19
ENDBRANCH  16  18
ENDBRANCH  15  16
ENDBRANCH   1  15
BRANCH   1  27
ATOM     27  C   UNL     1      -8.965  11.946  67.347  0.00  0.00    +0.256 C 
BRANCH  27  28
ATOM     28  O   UNL     1      -8.475  12.781  68.394  0.00  0.00    -0.444 OA
BRANCH  28  29
ATOM     29  C   UNL     1      -7.603  13.822  68.118  0.00  0.00    +0.317 C 
ATOM     30  O   UNL     1      -6.733  13.597  67.231  0.00  0.00    -0.250 OA
BRANCH  29  31
ATOM     31  C   UNL     1      -7.596  15.104  68.880  0.00  0.00    +0.110 C 
BRANCH  31  32
ATOM     32  C   UNL     1      -6.612  16.047  68.231  0.00  0.00    +0.016 C 
BRANCH  32  33
ATOM     33  C   UNL     1      -6.611  17.376  68.952  0.00  0.00    +0.027 C 
BRANCH  33  34
ATOM     34  C   UNL     1      -6.314  18.463  67.982  0.00  0.00    -0.022 A 
ATOM     35  C   UNL     1      -6.507  18.230  66.644  0.00  0.00    -0.004 A 
ATOM     36  C   UNL     1      -6.822  19.267  65.779  0.00  0.00    -0.000 A 
ATOM     37  C   UNL     1      -6.585  20.554  66.207  0.00  0.00    -0.000 A 
ATOM     38  C   UNL     1      -6.221  20.795  67.503  0.00  0.00    -0.000 A 
ATOM     39  C   UNL     1      -6.283  19.770  68.438  0.00  0.00    -0.004 A 
ENDBRANCH  33  34
ENDBRANCH  32  33
ENDBRANCH  31  32
ENDBRANCH  29  31
ENDBRANCH  28  29
ENDBRANCH  27  28
ENDBRANCH   1  27
TORSDOF 20
ENDMDL
MODEL 7
REMARK VINA RESULT:      -6.3      1.874      5.600
REMARK  Name = 
REMARK  20 active torsions:
REMARK  status: ('A' for Active; 'I' for Inactive)
REMARK    1  A    between atoms: C_2  and  C_3
REMARK    2  A    between atoms: C_2  and  O_12
REMARK    3  A    between atoms: C_3  and  C_4
REMARK    4  A    between atoms: C_4  and  C_5
REMARK    5  A    between atoms: C_5  and  C_6
REMARK    6  A    between atoms: O_12  and  C_13
REMARK    7  A    between atoms: C_13  and  C_14
REMARK    8  A    between atoms: C_14  and  C_15
REMARK    9  A    between atoms: C_14  and  O_28
REMARK   10  A    between atoms: C_15  and  O_16
REMARK   11  A    between atoms: O_16  and  C_17
REMARK   12  A    between atoms: C_17  and  C_19
REMARK   13  A    between atoms: C_19  and  C_20
REMARK   14  A    between atoms: C_20  and  C_21
REMARK   15  A    between atoms: C_21  and  C_22
REMARK   16  A    between atoms: O_28  and  C_29
REMARK   17  A    between atoms: C_29  and  C_31
REMARK   18  A    between atoms: C_31  and  C_32
REMARK   19  A    between atoms: C_32  and  C_33
REMARK   20  A    between atoms: C_33  and  C_34
REMARK                            x       y       z     vdW  Elec       q    Type
REMARK                         _______ _______ _______ _____ _____    ______ ____
ROOT
ATOM      1  C   UNL     1     -10.380  10.311  65.407  0.00  0.00    +0.256 C 
ENDROOT
BRANCH   1   2
ATOM      2  C   UNL     1      -9.405   9.166  65.406  0.00  0.00    +0.256 C 
BRANCH   2   3
ATOM      3  O   UNL     1      -9.639   8.238  66.444  0.00  0.00    -0.444 OA
BRANCH   3   5
ATOM      4  O   UNL     1      -8.358   6.655  67.412  0.00  0.00    -0.250 OA
ATOM      5  C   UNL     1      -8.652   7.867  67.362  0.00  0.00    +0.317 C 
BRANCH   5   6
ATOM      6  C   UNL     1      -8.342   8.842  68.442  0.00  0.00    +0.110 C 
BRANCH   6   7
ATOM      7  C   UNL     1      -9.109   8.402  69.669  0.00  0.00    +0.016 C 
BRANCH   7   8
ATOM      8  C   UNL     1      -9.877   9.527  70.306  0.00  0.00    +0.027 C 
BRANCH   8   9
ATOM      9  C   UNL     1     -11.217   9.073  70.762  0.00  0.00    -0.022 A 
ATOM     10  C   UNL     1     -11.519   7.722  70.666  0.00  0.00    -0.004 A 
ATOM     11  C   UNL     1     -12.614   7.266  71.383  0.00  0.00    -0.000 A 
ATOM     12  C   UNL     1     -13.627   8.167  71.655  0.00  0.00    -0.000 A 
ATOM     13  C   UNL     1     -13.348   9.506  71.772  0.00  0.00    -0.000 A 
ATOM     14  C   UNL     1     -12.062   9.905  71.460  0.00  0.00    -0.004 A 
ENDBRANCH   8   9
ENDBRANCH   7   8
ENDBRANCH   6   7
ENDBRANCH   5   6
ENDBRANCH   3   5
ENDBRANCH   2   3
ENDBRANCH   1   2
BRANCH   1  15
ATOM     15  O   UNL     1      -9.986  11.253  66.401  0.00  0.00    -0.444 OA
BRANCH  15  16
ATOM     16  C   UNL     1     -10.840  11.593  67.451  0.00  0.00    +0.317 C 
ATOM     17  O   UNL     1     -11.833  10.826  67.627  0.00  0.00    -0.250 OA
BRANCH  16  18
ATOM     18  C   UNL     1     -10.531  12.725  68.368  0.00  0.00    +0.110 C 
BRANCH  18  19
ATOM     19  C   UNL     1     -11.691  12.932  69.334  0.00  0.00    +0.016 C 
BRANCH  19  20
ATOM     20  C   UNL     1     -12.041  14.414  69.326  0.00  0.00    +0.027 C 
BRANCH  20  21
ATOM     21  C   UNL     1     -12.625  14.844  70.625  0.00  0.00    -0.022 A 
ATOM     22  C   UNL     1     -12.147  15.998  71.229  0.00  0.00    -0.004 A 
ATOM     23  C   UNL     1     -12.018  16.108  72.606  0.00  0.00    -0.000 A 
ATOM     24  C   UNL     1     -12.499  15.103  73.424  0.00  0.00    -0.000 A 
ATOM     25  C   UNL     1     -13.259  14.114  72.823  0.00  0.00    -0.000 A 
ATOM     26  C   UNL     1     -13.327  13.970  71.447  0.00  0.00    -0.004 A 
ENDBRANCH  20  21
ENDBRANCH  19  20
ENDBRANCH  18  19
ENDBRANCH  16  18
ENDBRANCH  15  16
ENDBRANCH   1  15
BRANCH   1  27
ATOM     27  C   UNL     1     -10.539  10.963  64.064  0.00  0.00    +0.256 C 
BRANCH  27  28
ATOM     28  O   UNL     1     -10.735  12.372  64.163  0.00  0.00    -0.444 OA
BRANCH  28  29
ATOM     29  C   UNL     1     -12.011  12.912  64.132  0.00  0.00    +0.317 C 
ATOM     30  O   UNL     1     -12.937  12.127  63.788  0.00  0.00    -0.250 OA
BRANCH  29  31
ATOM     31  C   UNL     1     -12.291  14.356  64.379  0.00  0.00    +0.110 C 
BRANCH  31  32
ATOM     32  C   UNL     1     -11.517  14.796  65.598  0.00  0.00    +0.016 C 
BRANCH  32  33
ATOM     33  C   UNL     1     -10.602  15.948  65.245  0.00  0.00    +0.027 C 
BRANCH  33  34
ATOM     34  C   UNL     1      -9.671  16.201  66.376  0.00  0.00    -0.022 A 
ATOM     35  C   UNL     1     -10.078  17.015  67.402  0.00  0.00    -0.004 A 
ATOM     36  C   UNL     1      -9.579  16.847  68.685  0.00  0.00    -0.000 A 
ATOM     37  C   UNL     1      -8.427  16.108  68.834  0.00  0.00    -0.000 A 
ATOM     38  C   UNL     1      -7.904  15.422  67.772  0.00  0.00    -0.000 A 
ATOM     39  C   UNL     1      -8.637  15.307  66.599  0.00  0.00    -0.004 A 
ENDBRANCH  33  34
ENDBRANCH  32  33
ENDBRANCH  31  32
ENDBRANCH  29  31
ENDBRANCH  28  29
ENDBRANCH  27  28
ENDBRANCH   1  27
TORSDOF 20
ENDMDL
MODEL 8
REMARK VINA RESULT:      -6.3      2.627      7.707
REMARK  Name = 
REMARK  20 active torsions:
REMARK  status: ('A' for Active; 'I' for Inactive)
REMARK    1  A    between atoms: C_2  and  C_3
REMARK    2  A    between atoms: C_2  and  O_12
REMARK    3  A    between atoms: C_3  and  C_4
REMARK    4  A    between atoms: C_4  and  C_5
REMARK    5  A    between atoms: C_5  and  C_6
REMARK    6  A    between atoms: O_12  and  C_13
REMARK    7  A    between atoms: C_13  and  C_14
REMARK    8  A    between atoms: C_14  and  C_15
REMARK    9  A    between atoms: C_14  and  O_28
REMARK   10  A    between atoms: C_15  and  O_16
REMARK   11  A    between atoms: O_16  and  C_17
REMARK   12  A    between atoms: C_17  and  C_19
REMARK   13  A    between atoms: C_19  and  C_20
REMARK   14  A    between atoms: C_20  and  C_21
REMARK   15  A    between atoms: C_21  and  C_22
REMARK   16  A    between atoms: O_28  and  C_29
REMARK   17  A    between atoms: C_29  and  C_31
REMARK   18  A    between atoms: C_31  and  C_32
REMARK   19  A    between atoms: C_32  and  C_33
REMARK   20  A    between atoms: C_33  and  C_34
REMARK                            x       y       z     vdW  Elec       q    Type
REMARK                         _______ _______ _______ _____ _____    ______ ____
ROOT
ATOM      1  C   UNL     1      -9.364  10.900  68.272  0.00  0.00    +0.256 C 
ENDROOT
BRANCH   1   2
ATOM      2  C   UNL     1      -9.664  10.082  69.497  0.00  0.00    +0.256 C 
BRANCH   2   3
ATOM      3  O   UNL     1     -11.047   9.896  69.713  0.00  0.00    -0.444 OA
BRANCH   3   5
ATOM      4  O   UNL     1     -10.980   9.191  71.854  0.00  0.00    -0.250 OA
ATOM      5  C   UNL     1     -11.610   9.838  70.992  0.00  0.00    +0.317 C 
BRANCH   5   6
ATOM      6  C   UNL     1     -13.052  10.188  71.105  0.00  0.00    +0.110 C 
BRANCH   6   7
ATOM      7  C   UNL     1     -13.125  11.566  71.725  0.00  0.00    +0.016 C 
BRANCH   7   8
ATOM      8  C   UNL     1     -12.573  12.636  70.825  0.00  0.00    +0.027 C 
BRANCH   8   9
ATOM      9  C   UNL     1     -12.508  13.947  71.525  0.00  0.00    -0.022 A 
ATOM     10  C   UNL     1     -13.152  14.070  72.747  0.00  0.00    -0.004 A 
ATOM     11  C   UNL     1     -12.816  15.161  73.532  0.00  0.00    -0.000 A 
ATOM     12  C   UNL     1     -12.357  16.298  72.893  0.00  0.00    -0.000 A 
ATOM     13  C   UNL     1     -11.700  16.198  71.692  0.00  0.00    -0.000 A 
ATOM     14  C   UNL     1     -11.662  14.948  71.103  0.00  0.00    -0.004 A 
ENDBRANCH   8   9
ENDBRANCH   7   8
ENDBRANCH   6   7
ENDBRANCH   5   6
ENDBRANCH   3   5
ENDBRANCH   2   3
ENDBRANCH   1   2
BRANCH   1  15
ATOM     15  O   UNL     1     -10.174  12.072  68.288  0.00  0.00    -0.444 OA
BRANCH  15  16
ATOM     16  C   UNL     1     -10.909  12.457  67.166  0.00  0.00    +0.317 C 
ATOM     17  O   UNL     1     -12.064  11.947  67.061  0.00  0.00    -0.250 OA
BRANCH  16  18
ATOM     18  C   UNL     1     -10.401  13.487  66.220  0.00  0.00    +0.110 C 
BRANCH  18  19
ATOM     19  C   UNL     1     -11.377  14.656  66.163  0.00  0.00    +0.016 C 
BRANCH  19  20
ATOM     20  C   UNL     1     -11.284  15.403  67.486  0.00  0.00    +0.027 C 
BRANCH  20  21
ATOM     21  C   UNL     1     -10.502  16.661  67.349  0.00  0.00    -0.022 A 
ATOM     22  C   UNL     1     -10.201  17.395  68.487  0.00  0.00    -0.004 A 
ATOM     23  C   UNL     1     -10.182  18.782  68.484  0.00  0.00    -0.000 A 
ATOM     24  C   UNL     1     -10.330  19.469  67.294  0.00  0.00    -0.000 A 
ATOM     25  C   UNL     1     -10.305  18.720  66.129  0.00  0.00    -0.000 A 
ATOM     26  C   UNL     1     -10.394  17.338  66.140  0.00  0.00    -0.004 A 
ENDBRANCH  20  21
ENDBRANCH  19  20
ENDBRANCH  18  19
ENDBRANCH  16  18
ENDBRANCH  15  16
ENDBRANCH   1  15
BRANCH   1  27
ATOM     27  C   UNL     1      -7.909  11.241  68.121  0.00  0.00    +0.256 C 
BRANCH  27  28
ATOM     28  O   UNL     1      -7.605  12.551  68.594  0.00  0.00    -0.444 OA
BRANCH  28  29
ATOM     29  C   UNL     1      -6.945  13.460  67.781  0.00  0.00    +0.317 C 
ATOM     30  O   UNL     1      -5.874  13.054  67.251  0.00  0.00    -0.250 OA
BRANCH  29  31
ATOM     31  C   UNL     1      -7.390  14.873  67.611  0.00  0.00    +0.110 C 
BRANCH  31  32
ATOM     32  C   UNL     1      -6.221  15.785  67.897  0.00  0.00    +0.016 C 
BRANCH  32  33
ATOM     33  C   UNL     1      -6.682  16.989  68.687  0.00  0.00    +0.027 C 
BRANCH  33  34
ATOM     34  C   UNL     1      -6.461  18.220  67.883  0.00  0.00    -0.022 A 
ATOM     35  C   UNL     1      -6.436  18.124  66.515  0.00  0.00    -0.004 A 
ATOM     36  C   UNL     1      -6.816  19.195  65.719  0.00  0.00    -0.000 A 
ATOM     37  C   UNL     1      -6.867  20.441  66.302  0.00  0.00    -0.000 A 
ATOM     38  C   UNL     1      -6.721  20.577  67.655  0.00  0.00    -0.000 A 
ATOM     39  C   UNL     1      -6.720  19.449  68.464  0.00  0.00    -0.004 A 
ENDBRANCH  33  34
ENDBRANCH  32  33
ENDBRANCH  31  32
ENDBRANCH  29  31
ENDBRANCH  28  29
ENDBRANCH  27  28
ENDBRANCH   1  27
TORSDOF 20
ENDMDL
MODEL 9
REMARK VINA RESULT:      -6.2      2.354      7.163
REMARK  Name = 
REMARK  20 active torsions:
REMARK  status: ('A' for Active; 'I' for Inactive)
REMARK    1  A    between atoms: C_2  and  C_3
REMARK    2  A    between atoms: C_2  and  O_12
REMARK    3  A    between atoms: C_3  and  C_4
REMARK    4  A    between atoms: C_4  and  C_5
REMARK    5  A    between atoms: C_5  and  C_6
REMARK    6  A    between atoms: O_12  and  C_13
REMARK    7  A    between atoms: C_13  and  C_14
REMARK    8  A    between atoms: C_14  and  C_15
REMARK    9  A    between atoms: C_14  and  O_28
REMARK   10  A    between atoms: C_15  and  O_16
REMARK   11  A    between atoms: O_16  and  C_17
REMARK   12  A    between atoms: C_17  and  C_19
REMARK   13  A    between atoms: C_19  and  C_20
REMARK   14  A    between atoms: C_20  and  C_21
REMARK   15  A    between atoms: C_21  and  C_22
REMARK   16  A    between atoms: O_28  and  C_29
REMARK   17  A    between atoms: C_29  and  C_31
REMARK   18  A    between atoms: C_31  and  C_32
REMARK   19  A    between atoms: C_32  and  C_33
REMARK   20  A    between atoms: C_33  and  C_34
REMARK                            x       y       z     vdW  Elec       q    Type
REMARK                         _______ _______ _______ _____ _____    ______ ____
ROOT
ATOM      1  C   UNL     1      -9.617  11.370  66.543  0.00  0.00    +0.256 C 
ENDROOT
BRANCH   1   2
ATOM      2  C   UNL     1     -10.057   9.964  66.845  0.00  0.00    +0.256 C 
BRANCH   2   3
ATOM      3  O   UNL     1     -10.896   9.878  67.978  0.00  0.00    -0.444 OA
BRANCH   3   5
ATOM      4  O   UNL     1      -9.284  10.020  69.548  0.00  0.00    -0.250 OA
ATOM      5  C   UNL     1     -10.475  10.254  69.257  0.00  0.00    +0.317 C 
BRANCH   5   6
ATOM      6  C   UNL     1     -11.541  10.512  70.263  0.00  0.00    +0.110 C 
BRANCH   6   7
ATOM      7  C   UNL     1     -11.965  11.954  70.098  0.00  0.00    +0.016 C 
BRANCH   7   8
ATOM      8  C   UNL     1     -12.925  12.400  71.166  0.00  0.00    +0.027 C 
BRANCH   8   9
ATOM      9  C   UNL     1     -12.602  13.772  71.641  0.00  0.00    -0.022 A 
ATOM     10  C   UNL     1     -11.863  14.597  70.806  0.00  0.00    -0.004 A 
ATOM     11  C   UNL     1     -11.851  15.951  71.103  0.00  0.00    -0.000 A 
ATOM     12  C   UNL     1     -12.048  16.323  72.420  0.00  0.00    -0.000 A 
ATOM     13  C   UNL     1     -12.791  15.532  73.259  0.00  0.00    -0.000 A 
ATOM     14  C   UNL     1     -13.191  14.303  72.766  0.00  0.00    -0.004 A 
ENDBRANCH   8   9
ENDBRANCH   7   8
ENDBRANCH   6   7
ENDBRANCH   5   6
ENDBRANCH   3   5
ENDBRANCH   2   3
ENDBRANCH   1   2
BRANCH   1  15
ATOM     15  O   UNL     1      -8.201  11.389  66.391  0.00  0.00    -0.444 OA
BRANCH  15  16
ATOM     16  C   UNL     1      -7.408  12.271  67.126  0.00  0.00    +0.317 C 
ATOM     17  O   UNL     1      -6.174  12.279  66.837  0.00  0.00    -0.250 OA
BRANCH  16  18
ATOM     18  C   UNL     1      -8.005  13.218  68.108  0.00  0.00    +0.110 C 
BRANCH  18  19
ATOM     19  C   UNL     1      -6.904  14.059  68.742  0.00  0.00    +0.016 C 
BRANCH  19  20
ATOM     20  C   UNL     1      -7.491  15.429  69.057  0.00  0.00    +0.027 C 
BRANCH  20  21
ATOM     21  C   UNL     1      -6.683  16.521  68.451  0.00  0.00    -0.022 A 
ATOM     22  C   UNL     1      -6.450  17.674  69.187  0.00  0.00    -0.004 A 
ATOM     23  C   UNL     1      -6.411  18.929  68.595  0.00  0.00    -0.000 A 
ATOM     24  C   UNL     1      -6.468  19.042  67.219  0.00  0.00    -0.000 A 
ATOM     25  C   UNL     1      -6.375  17.869  66.488  0.00  0.00    -0.000 A 
ATOM     26  C   UNL     1      -6.484  16.621  67.080  0.00  0.00    -0.004 A 
ENDBRANCH  20  21
ENDBRANCH  19  20
ENDBRANCH  18  19
ENDBRANCH  16  18
ENDBRANCH  15  16
ENDBRANCH   1  15
BRANCH   1  27
ATOM     27  C   UNL     1     -10.305  11.969  65.350  0.00  0.00    +0.256 C 
BRANCH  27  28
ATOM     28  O   UNL     1     -11.701  12.161  65.565  0.00  0.00    -0.444 OA
BRANCH  28  29
ATOM     29  C   UNL     1     -12.221  13.434  65.741  0.00  0.00    +0.317 C 
ATOM     30  O   UNL     1     -13.277  13.694  65.101  0.00  0.00    -0.250 OA
BRANCH  29  31
ATOM     31  C   UNL     1     -11.540  14.489  66.544  0.00  0.00    +0.110 C 
BRANCH  31  32
ATOM     32  C   UNL     1     -11.022  15.552  65.605  0.00  0.00    +0.016 C 
BRANCH  32  33
ATOM     33  C   UNL     1      -9.790  16.207  66.188  0.00  0.00    +0.027 C 
BRANCH  33  34
ATOM     34  C   UNL     1     -10.171  17.493  66.829  0.00  0.00    -0.022 A 
ATOM     35  C   UNL     1     -10.190  17.573  68.198  0.00  0.00    -0.004 A 
ATOM     36  C   UNL     1      -9.955  18.778  68.844  0.00  0.00    -0.000 A 
ATOM     37  C   UNL     1     -10.061  19.934  68.104  0.00  0.00    -0.000 A 
ATOM     38  C   UNL     1     -10.218  19.874  66.746  0.00  0.00    -0.000 A 
ATOM     39  C   UNL     1     -10.070  18.659  66.090  0.00  0.00    -0.004 A 
ENDBRANCH  33  34
ENDBRANCH  32  33
ENDBRANCH  31  32
ENDBRANCH  29  31
ENDBRANCH  28  29
ENDBRANCH  27  28
ENDBRANCH   1  27
TORSDOF 20
ENDMDL
