MODEL 1
REMARK VINA RESULT:      -8.0      0.000      0.000
REMARK  Name = 
REMARK  2 active torsions:
REMARK  status: ('A' for Active; 'I' for Inactive)
REMARK    1  A    between atoms: N_2  and  C_4
REMARK    2  A    between atoms: C_7  and  C_8
REMARK                            x       y       z     vdW  Elec       q    Type
REMARK                         _______ _______ _______ _____ _____    ______ ____
ROOT
ATOM      1  C   UNL     1      -8.516  15.823  66.523  0.00  0.00    +0.124 C 
ATOM      2  C   UNL     1      -8.957  15.087  68.000  0.00  0.00    +0.065 C 
ATOM      3  C   UNL     1     -10.555  15.111  67.742  0.00  0.00    +0.237 C 
ATOM      4  C   UNL     1     -10.888  14.392  66.545  0.00  0.00    +0.207 C 
ATOM      5  C   UNL     1     -10.704  13.041  66.507  0.00  0.00    +0.057 C 
ATOM      6  C   UNL     1     -10.003  12.862  67.920  0.00  0.00    +0.063 C 
ATOM      7  C   UNL     1      -9.434  11.249  67.925  0.00  0.00    +0.179 C 
ATOM      8  O   UNL     1      -8.002  11.531  67.489  0.00  0.00    -0.218 OA
ATOM      9  C   UNL     1      -9.927  10.746  66.483  0.00  0.00    +0.025 A 
ATOM     10  C   UNL     1      -9.489  11.317  65.343  0.00  0.00    +0.077 A 
ATOM     11  C   UNL     1      -9.215  10.641  64.154  0.00  0.00    +0.199 A 
ATOM     12  C   UNL     1      -8.943   9.291  64.296  0.00  0.00    +0.043 A 
ATOM     13  C   UNL     1      -9.420   8.623  65.419  0.00  0.00    +0.014 A 
ATOM     14  O   UNL     1      -9.488  11.267  62.966  0.00  0.00    -0.286 OA
ATOM     15  C   UNL     1      -9.765   9.356  66.550  0.00  0.00    +0.056 A 
ATOM     16 CL   UNL     1     -10.379   8.416  67.904  0.00  0.00    -0.082 Cl
ATOM     17  C   UNL     1     -10.054  12.681  65.256  0.00  0.00    +0.197 C 
ATOM     18  O   UNL     1     -10.641  13.095  64.202  0.00  0.00    -0.287 OA
ATOM     19  O   UNL     1     -11.514  14.933  65.426  0.00  0.00    -0.289 OA
ATOM     20  O   UNL     1     -11.127  14.282  68.733  0.00  0.00    -0.210 OA
ATOM     21  C   UNL     1     -10.976  16.419  68.096  0.00  0.00    +0.215 C 
ATOM     22  O   UNL     1     -11.359  16.614  69.305  0.00  0.00    -0.288 OA
ATOM     23  C   UNL     1      -9.977  17.460  67.756  0.00  0.00    +0.130 C 
ATOM     24  C   UNL     1      -8.662  13.619  67.386  0.00  0.00    +0.013 C 
ATOM     25  C   UNL     1      -9.118  17.272  66.831  0.00  0.00    +0.195 C 
ATOM     26  O   UNL     1      -8.917  18.210  65.830  0.00  0.00    -0.290 OA
ENDROOT
BRANCH   1  28
ATOM     27  C   UNL     1      -6.676  15.683  67.436  0.00  0.00    +0.090 C 
ATOM     28  N   UNL     1      -7.114  16.214  67.116  0.00  0.00    -0.265 NA
ATOM     29  C   UNL     1      -6.540  17.206  66.270  0.00  0.00    +0.090 C 
ENDBRANCH   1  28
BRANCH  23  30
ATOM     30  C   UNL     1     -10.138  18.828  68.286  0.00  0.00    +0.290 C 
ATOM     31  O   UNL     1     -10.871  19.572  67.563  0.00  0.00    -0.266 OA
ATOM     32  N   UNL     1      -8.875  19.398  68.658  0.00  0.00    -0.084 NA
ENDBRANCH  23  30
TORSDOF 2
ENDMDL
MODEL 2
REMARK VINA RESULT:      -8.0      2.219      3.799
REMARK  Name = 
REMARK  2 active torsions:
REMARK  status: ('A' for Active; 'I' for Inactive)
REMARK    1  A    between atoms: N_2  and  C_4
REMARK    2  A    between atoms: C_7  and  C_8
REMARK                            x       y       z     vdW  Elec       q    Type
REMARK                         _______ _______ _______ _____ _____    ______ ____
ROOT
ATOM      1  C   UNL     1     -10.047  15.135  68.846  0.00  0.00    +0.124 C 
ATOM      2  C   UNL     1     -11.014  14.446  67.619  0.00  0.00    +0.065 C 
ATOM      3  C   UNL     1      -9.835  14.306  66.519  0.00  0.00    +0.237 C 
ATOM      4  C   UNL     1      -8.765  13.492  67.021  0.00  0.00    +0.207 C 
ATOM      5  C   UNL     1      -8.985  12.164  67.243  0.00  0.00    +0.057 C 
ATOM      6  C   UNL     1     -10.541  12.132  66.932  0.00  0.00    +0.063 C 
ATOM      7  C   UNL     1     -11.058  10.582  67.441  0.00  0.00    +0.179 C 
ATOM      8  O   UNL     1     -11.557  10.972  68.826  0.00  0.00    -0.218 OA
ATOM      9  C   UNL     1      -9.674   9.954  67.960  0.00  0.00    +0.025 A 
ATOM     10  C   UNL     1      -8.986  10.499  68.984  0.00  0.00    +0.077 A 
ATOM     11  C   UNL     1      -8.287   9.786  69.957  0.00  0.00    +0.199 A 
ATOM     12  C   UNL     1      -8.703   8.478  70.137  0.00  0.00    +0.043 A 
ATOM     13  C   UNL     1      -9.363   7.832  69.097  0.00  0.00    +0.014 A 
ATOM     14  O   UNL     1      -7.123  10.315  70.448  0.00  0.00    -0.286 OA
ATOM     15  C   UNL     1      -9.968   8.592  68.100  0.00  0.00    +0.056 A 
ATOM     16 CL   UNL     1     -10.755   7.676  66.821  0.00  0.00    -0.082 Cl
ATOM     17  C   UNL     1      -8.434  11.796  68.538  0.00  0.00    +0.197 C 
ATOM     18  O   UNL     1      -7.206  12.094  68.708  0.00  0.00    -0.287 OA
ATOM     19  O   UNL     1      -7.448  13.907  67.195  0.00  0.00    -0.289 OA
ATOM     20  O   UNL     1     -10.351  13.484  65.491  0.00  0.00    -0.210 OA
ATOM     21  C   UNL     1      -9.723  15.586  65.918  0.00  0.00    +0.215 C 
ATOM     22  O   UNL     1     -10.422  15.812  64.864  0.00  0.00    -0.288 OA
ATOM     23  C   UNL     1      -9.959  16.695  66.873  0.00  0.00    +0.130 C 
ATOM     24  C   UNL     1     -10.861  12.980  68.287  0.00  0.00    +0.013 C 
ATOM     25  C   UNL     1      -9.774  16.537  68.125  0.00  0.00    +0.195 C 
ATOM     26  O   UNL     1      -9.013  17.432  68.863  0.00  0.00    -0.290 OA
ENDROOT
BRANCH   1  28
ATOM     27  C   UNL     1     -12.006  15.630  69.237  0.00  0.00    +0.090 C 
ATOM     28  N   UNL     1     -11.327  15.689  69.570  0.00  0.00    -0.265 NA
ATOM     29  C   UNL     1     -11.184  15.441  70.965  0.00  0.00    +0.090 C 
ENDBRANCH   1  28
BRANCH  23  30
ATOM     30  C   UNL     1     -10.137  18.070  66.366  0.00  0.00    +0.290 C 
ATOM     31  O   UNL     1      -9.055  18.623  65.999  0.00  0.00    -0.266 OA
ATOM     32  N   UNL     1     -10.949  18.854  67.252  0.00  0.00    -0.084 NA
ENDBRANCH  23  30
TORSDOF 2
ENDMDL
MODEL 3
REMARK VINA RESULT:      -7.9      2.900      4.180
REMARK  Name = 
REMARK  2 active torsions:
REMARK  status: ('A' for Active; 'I' for Inactive)
REMARK    1  A    between atoms: N_2  and  C_4
REMARK    2  A    between atoms: C_7  and  C_8
REMARK                            x       y       z     vdW  Elec       q    Type
REMARK                         _______ _______ _______ _____ _____    ______ ____
ROOT
ATOM      1  C   UNL     1      -7.434  16.960  67.287  0.00  0.00    +0.124 C 
ATOM      2  C   UNL     1      -8.514  17.846  68.268  0.00  0.00    +0.065 C 
ATOM      3  C   UNL     1      -9.664  18.035  67.145  0.00  0.00    +0.237 C 
ATOM      4  C   UNL     1     -10.127  16.762  66.674  0.00  0.00    +0.207 C 
ATOM      5  C   UNL     1     -10.816  15.946  67.523  0.00  0.00    +0.057 C 
ATOM      6  C   UNL     1     -10.671  16.813  68.844  0.00  0.00    +0.063 C 
ATOM      7  C   UNL     1     -11.237  15.797  70.099  0.00  0.00    +0.179 C 
ATOM      8  O   UNL     1      -9.888  15.259  70.557  0.00  0.00    -0.218 OA
ATOM      9  C   UNL     1     -11.641  14.483  69.269  0.00  0.00    +0.025 A 
ATOM     10  C   UNL     1     -10.730  13.778  68.568  0.00  0.00    +0.077 A 
ATOM     11  C   UNL     1     -10.707  12.389  68.442  0.00  0.00    +0.199 A 
ATOM     12  C   UNL     1     -11.364  11.699  69.446  0.00  0.00    +0.043 A 
ATOM     13  C   UNL     1     -12.360  12.346  70.169  0.00  0.00    +0.014 A 
ATOM     14  O   UNL     1     -10.295  11.846  67.254  0.00  0.00    -0.286 OA
ATOM     15  C   UNL     1     -12.391  13.737  70.188  0.00  0.00    +0.056 A 
ATOM     16 CL   UNL     1     -13.705  14.454  71.111  0.00  0.00    -0.082 Cl
ATOM     17  C   UNL     1     -10.299  14.591  67.411  0.00  0.00    +0.197 C 
ATOM     18  O   UNL     1     -10.283  14.114  66.228  0.00  0.00    -0.287 OA
ATOM     19  O   UNL     1     -10.050  16.311  65.359  0.00  0.00    -0.289 OA
ATOM     20  O   UNL     1     -10.806  18.512  67.826  0.00  0.00    -0.210 OA
ATOM     21  C   UNL     1      -9.244  19.136  66.355  0.00  0.00    +0.215 C 
ATOM     22  O   UNL     1      -9.652  20.304  66.698  0.00  0.00    -0.288 OA
ATOM     23  C   UNL     1      -7.773  19.195  66.180  0.00  0.00    +0.130 C 
ATOM     24  C   UNL     1      -9.077  16.480  68.926  0.00  0.00    +0.013 C 
ATOM     25  C   UNL     1      -7.055  18.146  66.282  0.00  0.00    +0.195 C 
ATOM     26  O   UNL     1      -6.125  17.809  65.310  0.00  0.00    -0.290 OA
ENDROOT
BRANCH   1  28
ATOM     27  C   UNL     1      -6.362  17.748  68.858  0.00  0.00    +0.090 C 
ATOM     28  N   UNL     1      -6.241  17.314  68.248  0.00  0.00    -0.265 NA
ATOM     29  C   UNL     1      -5.391  16.174  68.330  0.00  0.00    +0.090 C 
ENDBRANCH   1  28
BRANCH  23  30
ATOM     30  C   UNL     1      -7.153  20.408  65.613  0.00  0.00    +0.290 C 
ATOM     31  O   UNL     1      -6.745  20.262  64.419  0.00  0.00    -0.266 OA
ATOM     32  N   UNL     1      -6.195  20.979  66.516  0.00  0.00    -0.084 NA
ENDBRANCH  23  30
TORSDOF 2
ENDMDL
MODEL 4
REMARK VINA RESULT:      -7.7      3.136      4.608
REMARK  Name = 
REMARK  2 active torsions:
REMARK  status: ('A' for Active; 'I' for Inactive)
REMARK    1  A    between atoms: N_2  and  C_4
REMARK    2  A    between atoms: C_7  and  C_8
REMARK                            x       y       z     vdW  Elec       q    Type
REMARK                         _______ _______ _______ _____ _____    ______ ____
ROOT
ATOM      1  C   UNL     1      -6.795  18.509  65.819  0.00  0.00    +0.124 C 
ATOM      2  C   UNL     1      -6.840  17.771  67.358  0.00  0.00    +0.065 C 
ATOM      3  C   UNL     1      -7.986  18.728  67.983  0.00  0.00    +0.237 C 
ATOM      4  C   UNL     1      -9.190  18.654  67.204  0.00  0.00    +0.207 C 
ATOM      5  C   UNL     1      -9.898  17.489  67.181  0.00  0.00    +0.057 C 
ATOM      6  C   UNL     1      -8.894  16.590  68.020  0.00  0.00    +0.063 C 
ATOM      7  C   UNL     1      -9.488  14.995  67.851  0.00  0.00    +0.179 C 
ATOM      8  O   UNL     1      -8.588  14.557  66.703  0.00  0.00    -0.218 OA
ATOM      9  C   UNL     1     -10.780  15.246  66.932  0.00  0.00    +0.025 A 
ATOM     10  C   UNL     1     -10.680  15.765  65.691  0.00  0.00    +0.077 A 
ATOM     11  C   UNL     1     -11.459  15.394  64.595  0.00  0.00    +0.199 A 
ATOM     12  C   UNL     1     -12.026  14.134  64.679  0.00  0.00    +0.043 A 
ATOM     13  C   UNL     1     -12.217  13.563  65.933  0.00  0.00    +0.014 A 
ATOM     14  O   UNL     1     -11.812  16.356  63.687  0.00  0.00    -0.286 OA
ATOM     15  C   UNL     1     -11.478  14.033  67.013  0.00  0.00    +0.056 A 
ATOM     16 CL   UNL     1     -11.814  13.259  68.557  0.00  0.00    -0.082 Cl
ATOM     17  C   UNL     1     -10.271  17.181  65.809  0.00  0.00    +0.197 C 
ATOM     18  O   UNL     1     -10.893  18.110  65.196  0.00  0.00    -0.287 OA
ATOM     19  O   UNL     1      -9.793  19.722  66.547  0.00  0.00    -0.289 OA
ATOM     20  O   UNL     1      -8.397  18.116  69.188  0.00  0.00    -0.210 OA
ATOM     21  C   UNL     1      -7.312  19.904  68.401  0.00  0.00    +0.215 C 
ATOM     22  O   UNL     1      -6.883  19.946  69.610  0.00  0.00    -0.288 OA
ATOM     23  C   UNL     1      -6.193  20.279  67.503  0.00  0.00    +0.130 C 
ATOM     24  C   UNL     1      -7.813  16.605  66.800  0.00  0.00    +0.013 C 
ATOM     25  C   UNL     1      -6.175  19.908  66.283  0.00  0.00    +0.195 C 
ATOM     26  O   UNL     1      -5.945  20.811  65.256  0.00  0.00    -0.290 OA
ENDROOT
BRANCH   1  28
ATOM     27  C   UNL     1      -5.164  17.255  65.889  0.00  0.00    +0.090 C 
ATOM     28  N   UNL     1      -5.372  17.900  65.548  0.00  0.00    -0.265 NA
ATOM     29  C   UNL     1      -5.051  18.126  64.179  0.00  0.00    +0.090 C 
ENDBRANCH   1  28
BRANCH  23  30
ATOM     30  C   UNL     1      -5.231  21.315  67.928  0.00  0.00    +0.290 C 
ATOM     31  O   UNL     1      -5.261  22.363  67.212  0.00  0.00    -0.266 OA
ATOM     32  N   UNL     1      -3.925  20.761  68.140  0.00  0.00    -0.084 NA
ENDBRANCH  23  30
TORSDOF 2
ENDMDL
MODEL 5
REMARK VINA RESULT:      -7.7      3.385      6.714
REMARK  Name = 
REMARK  2 active torsions:
REMARK  status: ('A' for Active; 'I' for Inactive)
REMARK    1  A    between atoms: N_2  and  C_4
REMARK    2  A    between atoms: C_7  and  C_8
REMARK                            x       y       z     vdW  Elec       q    Type
REMARK                         _______ _______ _______ _____ _____    ______ ____
ROOT
ATOM      1  C   UNL     1      -9.975  13.107  66.564  0.00  0.00    +0.124 C 
ATOM      2  C   UNL     1     -11.177  14.139  67.201  0.00  0.00    +0.065 C 
ATOM      3  C   UNL     1     -10.532  14.276  68.679  0.00  0.00    +0.237 C 
ATOM      4  C   UNL     1      -9.203  14.814  68.605  0.00  0.00    +0.207 C 
ATOM      5  C   UNL     1      -9.026  16.102  68.194  0.00  0.00    +0.057 C 
ATOM      6  C   UNL     1     -10.532  16.432  67.815  0.00  0.00    +0.063 C 
ATOM      7  C   UNL     1     -10.459  17.934  67.000  0.00  0.00    +0.179 C 
ATOM      8  O   UNL     1     -10.440  17.399  65.574  0.00  0.00    -0.218 OA
ATOM      9  C   UNL     1      -8.884  18.239  67.060  0.00  0.00    +0.025 A 
ATOM     10  C   UNL     1      -7.981  17.426  66.475  0.00  0.00    +0.077 A 
ATOM     11  C   UNL     1      -6.817  17.845  65.829  0.00  0.00    +0.199 A 
ATOM     12  C   UNL     1      -6.837  19.152  65.375  0.00  0.00    +0.043 A 
ATOM     13  C   UNL     1      -7.701  20.061  65.977  0.00  0.00    +0.014 A 
ATOM     14  O   UNL     1      -5.697  17.062  65.925  0.00  0.00    -0.286 OA
ATOM     15  C   UNL     1      -8.799  19.587  66.688  0.00  0.00    +0.056 A 
ATOM     16 CL   UNL     1      -9.813  20.819  67.428  0.00  0.00    -0.082 Cl
ATOM     17  C   UNL     1      -7.942  16.153  67.225  0.00  0.00    +0.197 C 
ATOM     18  O   UNL     1      -6.842  15.641  67.618  0.00  0.00    -0.287 OA
ATOM     19  O   UNL     1      -8.047  14.172  69.041  0.00  0.00    -0.289 OA
ATOM     20  O   UNL     1     -11.223  15.331  69.315  0.00  0.00    -0.210 OA
ATOM     21  C   UNL     1     -10.944  13.115  69.382  0.00  0.00    +0.215 C 
ATOM     22  O   UNL     1     -12.034  13.184  70.057  0.00  0.00    -0.288 OA
ATOM     23  C   UNL     1     -11.013  11.911  68.520  0.00  0.00    +0.130 C 
ATOM     24  C   UNL     1     -10.462  15.427  66.533  0.00  0.00    +0.013 C 
ATOM     25  C   UNL     1     -10.317  11.823  67.454  0.00  0.00    +0.195 C 
ATOM     26  O   UNL     1      -9.537  10.707  67.189  0.00  0.00    -0.290 OA
ENDROOT
BRANCH   1  28
ATOM     27  C   UNL     1     -11.658  12.915  65.395  0.00  0.00    +0.090 C 
ATOM     28  N   UNL     1     -10.949  12.648  65.419  0.00  0.00    -0.265 NA
ATOM     29  C   UNL     1     -10.188  12.513  64.223  0.00  0.00    +0.090 C 
ENDBRANCH   1  28
BRANCH  23  30
ATOM     30  C   UNL     1     -11.668  10.688  69.024  0.00  0.00    +0.290 C 
ATOM     31  O   UNL     1     -12.930  10.790  69.125  0.00  0.00    -0.266 OA
ATOM     32  N   UNL     1     -11.004  10.181  70.190  0.00  0.00    -0.084 NA
ENDBRANCH  23  30
TORSDOF 2
ENDMDL
MODEL 6
REMARK VINA RESULT:      -7.4      1.965      2.922
REMARK  Name = 
REMARK  2 active torsions:
REMARK  status: ('A' for Active; 'I' for Inactive)
REMARK    1  A    between atoms: N_2  and  C_4
REMARK    2  A    between atoms: C_7  and  C_8
REMARK                            x       y       z     vdW  Elec       q    Type
REMARK                         _______ _______ _______ _____ _____    ______ ____
ROOT
ATOM      1  C   UNL     1      -7.042  17.154  66.560  0.00  0.00    +0.124 C 
ATOM      2  C   UNL     1      -7.661  16.971  68.141  0.00  0.00    +0.065 C 
ATOM      3  C   UNL     1      -9.073  17.713  67.867  0.00  0.00    +0.237 C 
ATOM      4  C   UNL     1      -9.798  17.056  66.817  0.00  0.00    +0.207 C 
ATOM      5  C   UNL     1     -10.276  15.796  67.025  0.00  0.00    +0.057 C 
ATOM      6  C   UNL     1      -9.636  15.538  68.454  0.00  0.00    +0.063 C 
ATOM      7  C   UNL     1      -9.895  13.874  68.757  0.00  0.00    +0.179 C 
ATOM      8  O   UNL     1      -8.539  13.362  68.291  0.00  0.00    -0.218 OA
ATOM      9  C   UNL     1     -10.678  13.440  67.424  0.00  0.00    +0.025 A 
ATOM     10  C   UNL     1     -10.112  13.537  66.204  0.00  0.00    +0.077 A 
ATOM     11  C   UNL     1     -10.283  12.629  65.160  0.00  0.00    +0.199 A 
ATOM     12  C   UNL     1     -10.670  11.357  65.547  0.00  0.00    +0.043 A 
ATOM     13  C   UNL     1     -11.317  11.192  66.767  0.00  0.00    +0.014 A 
ATOM     14  O   UNL     1     -10.321  13.105  63.876  0.00  0.00    -0.286 OA
ATOM     15  C   UNL     1     -11.186  12.174  67.743  0.00  0.00    +0.056 A 
ATOM     16 CL   UNL     1     -12.063  11.877  69.239  0.00  0.00    -0.082 Cl
ATOM     17  C   UNL     1      -9.973  14.970  65.866  0.00  0.00    +0.197 C 
ATOM     18  O   UNL     1     -10.375  15.436  64.749  0.00  0.00    -0.287 OA
ATOM     19  O   UNL     1     -10.180  17.639  65.612  0.00  0.00    -0.289 OA
ATOM     20  O   UNL     1      -9.890  17.433  68.986  0.00  0.00    -0.210 OA
ATOM     21  C   UNL     1      -8.799  19.101  67.974  0.00  0.00    +0.215 C 
ATOM     22  O   UNL     1      -8.949  19.650  69.125  0.00  0.00    -0.288 OA
ATOM     23  C   UNL     1      -7.457  19.466  67.462  0.00  0.00    +0.130 C 
ATOM     24  C   UNL     1      -8.142  15.463  67.806  0.00  0.00    +0.013 C 
ATOM     25  C   UNL     1      -6.863  18.743  66.595  0.00  0.00    +0.195 C 
ATOM     26  O   UNL     1      -6.321  19.293  65.443  0.00  0.00    -0.290 OA
ENDROOT
BRANCH   1  28
ATOM     27  C   UNL     1      -5.411  16.284  67.467  0.00  0.00    +0.090 C 
ATOM     28  N   UNL     1      -5.579  16.918  67.086  0.00  0.00    -0.265 NA
ATOM     29  C   UNL     1      -4.674  17.438  66.117  0.00  0.00    +0.090 C 
ENDBRANCH   1  28
BRANCH  23  30
ATOM     30  C   UNL     1      -6.912  20.811  67.734  0.00  0.00    +0.290 C 
ATOM     31  O   UNL     1      -6.873  21.563  66.711  0.00  0.00    -0.266 OA
ATOM     32  N   UNL     1      -5.689  20.739  68.482  0.00  0.00    -0.084 NA
ENDBRANCH  23  30
TORSDOF 2
ENDMDL
MODEL 7
REMARK VINA RESULT:      -7.2      6.081      9.462
REMARK  Name = 
REMARK  2 active torsions:
REMARK  status: ('A' for Active; 'I' for Inactive)
REMARK    1  A    between atoms: N_2  and  C_4
REMARK    2  A    between atoms: C_7  and  C_8
REMARK                            x       y       z     vdW  Elec       q    Type
REMARK                         _______ _______ _______ _____ _____    ______ ____
ROOT
ATOM      1  C   UNL     1      -9.702   8.108  72.715  0.00  0.00    +0.124 C 
ATOM      2  C   UNL     1      -9.421   7.670  71.089  0.00  0.00    +0.065 C 
ATOM      3  C   UNL     1     -10.901   7.082  70.803  0.00  0.00    +0.237 C 
ATOM      4  C   UNL     1     -11.900   8.087  71.030  0.00  0.00    +0.207 C 
ATOM      5  C   UNL     1     -11.957   9.169  70.202  0.00  0.00    +0.057 C 
ATOM      6  C   UNL     1     -10.663   8.865  69.334  0.00  0.00    +0.063 C 
ATOM      7  C   UNL     1     -10.407  10.285  68.415  0.00  0.00    +0.179 C 
ATOM      8  O   UNL     1      -9.381  10.943  69.328  0.00  0.00    -0.218 OA
ATOM      9  C   UNL     1     -11.638  11.192  68.906  0.00  0.00    +0.025 A 
ATOM     10  C   UNL     1     -11.773  11.571  70.193  0.00  0.00    +0.077 A 
ATOM     11  C   UNL     1     -12.249  12.809  70.625  0.00  0.00    +0.199 A 
ATOM     12  C   UNL     1     -12.138  13.834  69.702  0.00  0.00    +0.043 A 
ATOM     13  C   UNL     1     -12.058  13.517  68.350  0.00  0.00    +0.014 A 
ATOM     14  O   UNL     1     -13.002  12.858  71.768  0.00  0.00    -0.286 OA
ATOM     15  C   UNL     1     -11.664  12.237  67.974  0.00  0.00    +0.056 A 
ATOM     16 CL   UNL     1     -11.620  11.935  66.242  0.00  0.00    -0.082 Cl
ATOM     17  C   UNL     1     -12.101  10.377  71.000  0.00  0.00    +0.197 C 
ATOM     18  O   UNL     1     -13.081  10.371  71.817  0.00  0.00    -0.287 OA
ATOM     19  O   UNL     1     -12.929   8.006  71.964  0.00  0.00    -0.289 OA
ATOM     20  O   UNL     1     -10.993   6.909  69.404  0.00  0.00    -0.210 OA
ATOM     21  C   UNL     1     -10.889   5.759  71.318  0.00  0.00    +0.215 C 
ATOM     22  O   UNL     1     -10.563   4.811  70.516  0.00  0.00    -0.288 OA
ATOM     23  C   UNL     1     -10.070   5.625  72.546  0.00  0.00    +0.130 C 
ATOM     24  C   UNL     1      -9.695   9.189  70.605  0.00  0.00    +0.013 C 
ATOM     25  C   UNL     1      -9.846   6.627  73.302  0.00  0.00    +0.195 C 
ATOM     26  O   UNL     1     -10.058   6.562  74.671  0.00  0.00    -0.290 OA
ENDROOT
BRANCH   1  28
ATOM     27  C   UNL     1      -7.680   8.407  72.473  0.00  0.00    +0.090 C 
ATOM     28  N   UNL     1      -8.156   8.133  72.996  0.00  0.00    -0.265 NA
ATOM     29  C   UNL     1      -7.964   8.437  74.374  0.00  0.00    +0.090 C 
ENDBRANCH   1  28
BRANCH  23  30
ATOM     30  C   UNL     1      -9.739   4.281  73.060  0.00  0.00    +0.290 C 
ATOM     31  O   UNL     1     -10.620   3.801  73.840  0.00  0.00    -0.266 OA
ATOM     32  N   UNL     1      -8.394   4.226  73.556  0.00  0.00    -0.084 NA
ENDBRANCH  23  30
TORSDOF 2
ENDMDL
MODEL 8
REMARK VINA RESULT:      -7.1      3.368      7.016
REMARK  Name = 
REMARK  2 active torsions:
REMARK  status: ('A' for Active; 'I' for Inactive)
REMARK    1  A    between atoms: N_2  and  C_4
REMARK    2  A    between atoms: C_7  and  C_8
REMARK                            x       y       z     vdW  Elec       q    Type
REMARK                         _______ _______ _______ _____ _____    ______ ____
ROOT
ATOM      1  C   UNL     1     -10.357  15.421  68.356  0.00  0.00    +0.124 C 
ATOM      2  C   UNL     1      -8.894  14.584  68.628  0.00  0.00    +0.065 C 
ATOM      3  C   UNL     1      -8.490  14.417  67.071  0.00  0.00    +0.237 C 
ATOM      4  C   UNL     1      -8.382  15.698  66.433  0.00  0.00    +0.207 C 
ATOM      5  C   UNL     1      -7.381  16.546  66.805  0.00  0.00    +0.057 C 
ATOM      6  C   UNL     1      -6.789  15.693  68.005  0.00  0.00    +0.063 C 
ATOM      7  C   UNL     1      -5.689  16.743  68.788  0.00  0.00    +0.179 C 
ATOM      8  O   UNL     1      -6.621  17.244  69.884  0.00  0.00    -0.218 OA
ATOM      9  C   UNL     1      -5.820  18.058  67.876  0.00  0.00    +0.025 A 
ATOM     10  C   UNL     1      -6.986  18.725  67.755  0.00  0.00    +0.077 A 
ATOM     11  C   UNL     1      -7.118  20.110  67.666  0.00  0.00    +0.199 A 
ATOM     12  C   UNL     1      -6.060  20.835  68.186  0.00  0.00    +0.043 A 
ATOM     13  C   UNL     1      -4.812  20.229  68.282  0.00  0.00    +0.014 A 
ATOM     14  O   UNL     1      -8.106  20.624  66.868  0.00  0.00    -0.286 OA
ATOM     15  C   UNL     1      -4.728  18.840  68.275  0.00  0.00    +0.056 A 
ATOM     16 CL   UNL     1      -3.102  18.178  68.377  0.00  0.00    -0.082 Cl
ATOM     17  C   UNL     1      -7.927  17.883  66.985  0.00  0.00    +0.197 C 
ATOM     18  O   UNL     1      -8.572  18.343  65.986  0.00  0.00    -0.287 OA
ATOM     19  O   UNL     1      -9.147  16.129  65.352  0.00  0.00    -0.289 OA
ATOM     20  O   UNL     1      -7.144  13.986  67.056  0.00  0.00    -0.210 OA
ATOM     21  C   UNL     1      -9.220  13.292  66.607  0.00  0.00    +0.215 C 
ATOM     22  O   UNL     1      -8.654  12.143  66.683  0.00  0.00    -0.288 OA
ATOM     23  C   UNL     1     -10.565  13.184  67.223  0.00  0.00    +0.130 C 
ATOM     24  C   UNL     1      -8.118  15.977  68.905  0.00  0.00    +0.013 C 
ATOM     25  C   UNL     1     -11.162  14.211  67.688  0.00  0.00    +0.195 C 
ATOM     26  O   UNL     1     -12.472  14.505  67.342  0.00  0.00    -0.290 OA
ENDROOT
BRANCH   1  28
ATOM     27  C   UNL     1     -10.365  14.857  70.336  0.00  0.00    +0.090 C 
ATOM     28  N   UNL     1     -10.864  15.043  69.795  0.00  0.00    -0.265 NA
ATOM     29  C   UNL     1     -11.982  15.871  70.099  0.00  0.00    +0.090 C 
ENDBRANCH   1  28
BRANCH  23  30
ATOM     30  C   UNL     1     -11.348  11.944  67.054  0.00  0.00    +0.290 C 
ATOM     31  O   UNL     1     -12.092  11.947  66.024  0.00  0.00    -0.266 OA
ATOM     32  N   UNL     1     -12.002  11.567  68.274  0.00  0.00    -0.084 NA
ENDBRANCH  23  30
TORSDOF 2
ENDMDL
MODEL 9
REMARK VINA RESULT:      -7.1      4.067      7.521
REMARK  Name = 
REMARK  2 active torsions:
REMARK  status: ('A' for Active; 'I' for Inactive)
REMARK    1  A    between atoms: N_2  and  C_4
REMARK    2  A    between atoms: C_7  and  C_8
REMARK                            x       y       z     vdW  Elec       q    Type
REMARK                         _______ _______ _______ _____ _____    ______ ____
ROOT
ATOM      1  C   UNL     1      -8.322   9.830  69.853  0.00  0.00    +0.124 C 
ATOM      2  C   UNL     1      -8.549   9.005  68.376  0.00  0.00    +0.065 C 
ATOM      3  C   UNL     1     -10.004   8.394  68.733  0.00  0.00    +0.237 C 
ATOM      4  C   UNL     1     -10.937   9.443  69.027  0.00  0.00    +0.207 C 
ATOM      5  C   UNL     1     -11.321  10.293  68.033  0.00  0.00    +0.057 C 
ATOM      6  C   UNL     1     -10.357   9.762  66.889  0.00  0.00    +0.063 C 
ATOM      7  C   UNL     1     -10.495  10.912  65.630  0.00  0.00    +0.179 C 
ATOM      8  O   UNL     1      -9.273  11.752  65.978  0.00  0.00    -0.218 OA
ATOM      9  C   UNL     1     -11.558  11.934  66.266  0.00  0.00    +0.025 A 
ATOM     10  C   UNL     1     -11.296  12.617  67.399  0.00  0.00    +0.077 A 
ATOM     11  C   UNL     1     -11.684  13.932  67.657  0.00  0.00    +0.199 A 
ATOM     12  C   UNL     1     -11.937  14.700  66.533  0.00  0.00    +0.043 A 
ATOM     13  C   UNL     1     -12.274  14.063  65.344  0.00  0.00    +0.014 A 
ATOM     14  O   UNL     1     -12.034  14.272  68.937  0.00  0.00    -0.286 OA
ATOM     15  C   UNL     1     -11.944  12.722  65.174  0.00  0.00    +0.056 A 
ATOM     16 CL   UNL     1     -12.437  12.008  63.644  0.00  0.00    -0.082 Cl
ATOM     17  C   UNL     1     -11.277  11.661  68.526  0.00  0.00    +0.197 C 
ATOM     18  O   UNL     1     -11.942  11.873  69.594  0.00  0.00    -0.287 OA
ATOM     19  O   UNL     1     -11.607   9.612  70.236  0.00  0.00    -0.289 OA
ATOM     20  O   UNL     1     -10.528   7.888  67.521  0.00  0.00    -0.210 OA
ATOM     21  C   UNL     1      -9.748   7.236  69.512  0.00  0.00    +0.215 C 
ATOM     22  O   UNL     1      -9.638   6.116  68.895  0.00  0.00    -0.288 OA
ATOM     23  C   UNL     1      -8.573   7.387  70.403  0.00  0.00    +0.130 C 
ATOM     24  C   UNL     1      -9.055  10.366  67.663  0.00  0.00    +0.013 C 
ATOM     25  C   UNL     1      -8.180   8.539  70.786  0.00  0.00    +0.195 C 
ATOM     26  O   UNL     1      -7.939   8.813  72.124  0.00  0.00    -0.290 OA
ENDROOT
BRANCH   1  28
ATOM     27  C   UNL     1      -6.473   9.556  68.991  0.00  0.00    +0.090 C 
ATOM     28  N   UNL     1      -6.771   9.892  69.602  0.00  0.00    -0.265 NA
ATOM     29  C   UNL     1      -6.309  11.173  70.019  0.00  0.00    +0.090 C 
ENDBRANCH   1  28
BRANCH  23  30
ATOM     30  C   UNL     1      -8.014   6.202  71.083  0.00  0.00    +0.290 C 
ATOM     31  O   UNL     1      -8.555   5.955  72.205  0.00  0.00    -0.266 OA
ATOM     32  N   UNL     1      -6.580   6.232  71.094  0.00  0.00    -0.084 NA
ENDBRANCH  23  30
TORSDOF 2
ENDMDL
