MODEL 1
REMARK VINA RESULT:      -5.9      0.000      0.000
REMARK  Name = 
REMARK  1 active torsions:
REMARK  status: ('A' for Active; 'I' for Inactive)
REMARK    1  A    between atoms: S_2  and  C_5
REMARK                            x       y       z     vdW  Elec       q    Type
REMARK                         _______ _______ _______ _____ _____    ______ ____
ROOT
ATOM      1  C   UNL     1     -10.965  16.093  67.219  0.00  0.00    +0.137 A 
ATOM      2  C   UNL     1     -10.741  16.673  68.463  0.00  0.00    +0.078 A 
ATOM      3 CL   UNL     1      -9.442  17.835  68.718  0.00  0.00    -0.081 Cl
ATOM      4  C   UNL     1     -11.360  16.047  69.538  0.00  0.00    +0.031 A 
ATOM      5  C   UNL     1     -11.757  14.718  69.445  0.00  0.00    +0.092 A 
ATOM      6  N   UNL     1     -12.275  14.118  70.622  0.00  0.00    -0.189 NA
ATOM      7  C   UNL     1     -12.477  12.703  70.677  0.00  0.00    +0.208 C 
ATOM      8  N   UNL     1     -11.632  11.926  70.064  0.00  0.00    -0.108 NA
ATOM      9  S   UNL     1     -11.302  12.301  68.398  0.00  0.00    +0.103 S 
ATOM     10  O   UNL     1      -9.831  12.076  68.189  0.00  0.00    -0.146 OA
ATOM     11  O   UNL     1     -12.141  11.468  67.481  0.00  0.00    -0.146 OA
ATOM     12  C   UNL     1     -11.675  14.017  68.246  0.00  0.00    +0.146 A 
ATOM     13  C   UNL     1     -11.307  14.749  67.130  0.00  0.00    +0.043 A 
ENDROOT
BRANCH   1  15
ATOM     14  N   UNL     1     -11.028  16.365  64.413  0.00  0.00    +0.039 NA
ATOM     15  S   UNL     1     -10.237  16.927  65.854  0.00  0.00    +0.094 S 
ATOM     16  O   UNL     1      -8.783  16.622  65.718  0.00  0.00    -0.150 OA
ATOM     17  O   UNL     1     -10.449  18.401  65.921  0.00  0.00    -0.150 OA
ENDBRANCH   1  15
TORSDOF 1
ENDMDL
MODEL 2
REMARK VINA RESULT:      -5.8      3.264      5.692
REMARK  Name = 
REMARK  1 active torsions:
REMARK  status: ('A' for Active; 'I' for Inactive)
REMARK    1  A    between atoms: S_2  and  C_5
REMARK                            x       y       z     vdW  Elec       q    Type
REMARK                         _______ _______ _______ _____ _____    ______ ____
ROOT
ATOM      1  C   UNL     1     -12.563  14.663  70.261  0.00  0.00    +0.137 A 
ATOM      2  C   UNL     1     -12.287  13.451  69.639  0.00  0.00    +0.078 A 
ATOM      3 CL   UNL     1     -11.908  12.003  70.568  0.00  0.00    -0.081 Cl
ATOM      4  C   UNL     1     -11.998  13.524  68.282  0.00  0.00    +0.031 A 
ATOM      5  C   UNL     1     -11.559  14.717  67.719  0.00  0.00    +0.092 A 
ATOM      6  N   UNL     1     -11.174  14.681  66.354  0.00  0.00    -0.189 NA
ATOM      7  C   UNL     1     -10.489  15.793  65.772  0.00  0.00    +0.208 C 
ATOM      8  N   UNL     1      -9.640  16.457  66.501  0.00  0.00    -0.108 NA
ATOM      9  S   UNL     1     -10.209  17.000  68.053  0.00  0.00    +0.103 S 
ATOM     10  O   UNL     1      -9.072  16.814  69.017  0.00  0.00    -0.146 OA
ATOM     11  O   UNL     1     -10.675  18.420  67.989  0.00  0.00    -0.146 OA
ATOM     12  C   UNL     1     -11.524  15.897  68.454  0.00  0.00    +0.146 A 
ATOM     13  C   UNL     1     -12.074  15.848  69.724  0.00  0.00    +0.043 A 
ENDROOT
BRANCH   1  15
ATOM     14  N   UNL     1     -14.188  15.782  72.276  0.00  0.00    +0.039 NA
ATOM     15  S   UNL     1     -12.996  14.559  71.961  0.00  0.00    +0.094 S 
ATOM     16  O   UNL     1     -11.830  14.824  72.856  0.00  0.00    -0.150 OA
ATOM     17  O   UNL     1     -13.616  13.247  72.302  0.00  0.00    -0.150 OA
ENDBRANCH   1  15
TORSDOF 1
ENDMDL
MODEL 3
REMARK VINA RESULT:      -5.7      3.913      5.275
REMARK  Name = 
REMARK  1 active torsions:
REMARK  status: ('A' for Active; 'I' for Inactive)
REMARK    1  A    between atoms: S_2  and  C_5
REMARK                            x       y       z     vdW  Elec       q    Type
REMARK                         _______ _______ _______ _____ _____    ______ ____
ROOT
ATOM      1  C   UNL     1     -10.623  14.173  65.253  0.00  0.00    +0.137 A 
ATOM      2  C   UNL     1     -10.061  13.320  66.196  0.00  0.00    +0.078 A 
ATOM      3 CL   UNL     1     -10.944  11.934  66.829  0.00  0.00    -0.081 Cl
ATOM      4  C   UNL     1      -8.930  13.803  66.844  0.00  0.00    +0.031 A 
ATOM      5  C   UNL     1      -8.679  15.170  66.896  0.00  0.00    +0.092 A 
ATOM      6  N   UNL     1      -7.569  15.589  67.674  0.00  0.00    -0.189 NA
ATOM      7  C   UNL     1      -7.388  16.976  67.975  0.00  0.00    +0.208 C 
ATOM      8  N   UNL     1      -8.439  17.715  68.184  0.00  0.00    -0.108 NA
ATOM      9  S   UNL     1      -9.689  17.643  66.977  0.00  0.00    +0.103 S 
ATOM     10  O   UNL     1     -10.999  17.663  67.712  0.00  0.00    -0.146 OA
ATOM     11  O   UNL     1      -9.565  18.773  66.004  0.00  0.00    -0.146 OA
ATOM     12  C   UNL     1      -9.462  16.079  66.194  0.00  0.00    +0.146 A 
ATOM     13  C   UNL     1     -10.413  15.544  65.343  0.00  0.00    +0.043 A 
ENDROOT
BRANCH   1  15
ATOM     14  N   UNL     1     -11.459  12.190  63.431  0.00  0.00    +0.039 NA
ATOM     15  S   UNL     1     -12.011  13.532  64.386  0.00  0.00    +0.094 S 
ATOM     16  O   UNL     1     -12.605  14.535  63.454  0.00  0.00    -0.150 OA
ATOM     17  O   UNL     1     -13.056  13.009  65.311  0.00  0.00    -0.150 OA
ENDBRANCH   1  15
TORSDOF 1
ENDMDL
MODEL 4
REMARK VINA RESULT:      -5.6      3.292      3.808
REMARK  Name = 
REMARK  1 active torsions:
REMARK  status: ('A' for Active; 'I' for Inactive)
REMARK    1  A    between atoms: S_2  and  C_5
REMARK                            x       y       z     vdW  Elec       q    Type
REMARK                         _______ _______ _______ _____ _____    ______ ____
ROOT
ATOM      1  C   UNL     1     -10.771  15.292  68.922  0.00  0.00    +0.137 A 
ATOM      2  C   UNL     1     -11.342  14.284  68.153  0.00  0.00    +0.078 A 
ATOM      3 CL   UNL     1     -11.821  14.559  66.480  0.00  0.00    -0.081 Cl
ATOM      4  C   UNL     1     -11.812  13.184  68.858  0.00  0.00    +0.031 A 
ATOM      5  C   UNL     1     -12.117  13.293  70.211  0.00  0.00    +0.092 A 
ATOM      6  N   UNL     1     -12.701  12.159  70.831  0.00  0.00    -0.189 NA
ATOM      7  C   UNL     1     -13.263  12.268  72.143  0.00  0.00    +0.208 C 
ATOM      8  N   UNL     1     -13.867  13.372  72.475  0.00  0.00    -0.108 NA
ATOM      9  S   UNL     1     -12.989  14.848  72.203  0.00  0.00    +0.103 S 
ATOM     10  O   UNL     1     -13.984  15.855  71.700  0.00  0.00    -0.146 OA
ATOM     11  O   UNL     1     -12.299  15.303  73.450  0.00  0.00    -0.146 OA
ATOM     12  C   UNL     1     -11.838  14.452  70.927  0.00  0.00    +0.146 A 
ATOM     13  C   UNL     1     -11.123  15.431  70.259  0.00  0.00    +0.043 A 
ENDROOT
BRANCH   1  15
ATOM     14  N   UNL     1      -8.733  17.242  68.891  0.00  0.00    +0.039 NA
ATOM     15  S   UNL     1     -10.115  16.651  68.020  0.00  0.00    +0.094 S 
ATOM     16  O   UNL     1     -11.091  17.775  67.907  0.00  0.00    -0.150 OA
ATOM     17  O   UNL     1      -9.638  16.247  66.667  0.00  0.00    -0.150 OA
ENDBRANCH   1  15
TORSDOF 1
ENDMDL
MODEL 5
REMARK VINA RESULT:      -5.6      1.664      1.779
REMARK  Name = 
REMARK  1 active torsions:
REMARK  status: ('A' for Active; 'I' for Inactive)
REMARK    1  A    between atoms: S_2  and  C_5
REMARK                            x       y       z     vdW  Elec       q    Type
REMARK                         _______ _______ _______ _____ _____    ______ ____
ROOT
ATOM      1  C   UNL     1     -10.505  16.135  67.236  0.00  0.00    +0.137 A 
ATOM      2  C   UNL     1      -9.872  15.863  68.443  0.00  0.00    +0.078 A 
ATOM      3 CL   UNL     1      -8.312  16.573  68.849  0.00  0.00    -0.081 Cl
ATOM      4  C   UNL     1     -10.361  14.766  69.144  0.00  0.00    +0.031 A 
ATOM      5  C   UNL     1     -11.072  13.770  68.484  0.00  0.00    +0.092 A 
ATOM      6  N   UNL     1     -11.436  12.629  69.244  0.00  0.00    -0.189 NA
ATOM      7  C   UNL     1     -11.950  11.465  68.590  0.00  0.00    +0.208 C 
ATOM      8  N   UNL     1     -11.475  11.143  67.422  0.00  0.00    -0.108 NA
ATOM      9  S   UNL     1     -11.454  12.400  66.220  0.00  0.00    +0.103 S 
ATOM     10  O   UNL     1     -10.166  12.249  65.462  0.00  0.00    -0.146 OA
ATOM     11  O   UNL     1     -12.653  12.315  65.329  0.00  0.00    -0.146 OA
ATOM     12  C   UNL     1     -11.433  13.900  67.147  0.00  0.00    +0.146 A 
ATOM     13  C   UNL     1     -11.166  15.122  66.553  0.00  0.00    +0.043 A 
ENDROOT
BRANCH   1  15
ATOM     14  N   UNL     1     -10.939  17.786  64.991  0.00  0.00    +0.039 NA
ATOM     15  S   UNL     1      -9.930  17.563  66.387  0.00  0.00    +0.094 S 
ATOM     16  O   UNL     1      -8.525  17.406  65.908  0.00  0.00    -0.150 OA
ATOM     17  O   UNL     1     -10.055  18.795  67.217  0.00  0.00    -0.150 OA
ENDBRANCH   1  15
TORSDOF 1
ENDMDL
MODEL 6
REMARK VINA RESULT:      -5.6      3.900      5.721
REMARK  Name = 
REMARK  1 active torsions:
REMARK  status: ('A' for Active; 'I' for Inactive)
REMARK    1  A    between atoms: S_2  and  C_5
REMARK                            x       y       z     vdW  Elec       q    Type
REMARK                         _______ _______ _______ _____ _____    ______ ____
ROOT
ATOM      1  C   UNL     1     -10.239  15.211  65.645  0.00  0.00    +0.137 A 
ATOM      2  C   UNL     1      -9.232  14.700  66.458  0.00  0.00    +0.078 A 
ATOM      3 CL   UNL     1      -9.469  13.237  67.410  0.00  0.00    -0.081 Cl
ATOM      4  C   UNL     1      -8.183  15.568  66.732  0.00  0.00    +0.031 A 
ATOM      5  C   UNL     1      -8.357  16.943  66.611  0.00  0.00    +0.092 A 
ATOM      6  N   UNL     1      -7.277  17.766  67.020  0.00  0.00    -0.189 NA
ATOM      7  C   UNL     1      -7.462  19.178  67.155  0.00  0.00    +0.208 C 
ATOM      8  N   UNL     1      -8.606  19.621  67.591  0.00  0.00    -0.108 NA
ATOM      9  S   UNL     1     -10.026  19.024  66.783  0.00  0.00    +0.103 S 
ATOM     10  O   UNL     1     -11.061  18.793  67.847  0.00  0.00    -0.146 OA
ATOM     11  O   UNL     1     -10.492  19.983  65.733  0.00  0.00    -0.146 OA
ATOM     12  C   UNL     1      -9.527  17.483  66.087  0.00  0.00    +0.146 A 
ATOM     13  C   UNL     1     -10.444  16.583  65.572  0.00  0.00    +0.043 A 
ENDROOT
BRANCH   1  15
ATOM     14  N   UNL     1     -12.540  14.850  64.055  0.00  0.00    +0.039 NA
ATOM     15  S   UNL     1     -11.529  14.087  65.244  0.00  0.00    +0.094 S 
ATOM     16  O   UNL     1     -12.385  13.767  66.425  0.00  0.00    -0.150 OA
ATOM     17  O   UNL     1     -11.008  12.832  64.632  0.00  0.00    -0.150 OA
ENDBRANCH   1  15
TORSDOF 1
ENDMDL
MODEL 7
REMARK VINA RESULT:      -5.4      2.906      3.320
REMARK  Name = 
REMARK  1 active torsions:
REMARK  status: ('A' for Active; 'I' for Inactive)
REMARK    1  A    between atoms: S_2  and  C_5
REMARK                            x       y       z     vdW  Elec       q    Type
REMARK                         _______ _______ _______ _____ _____    ______ ____
ROOT
ATOM      1  C   UNL     1     -11.751  12.797  66.401  0.00  0.00    +0.137 A 
ATOM      2  C   UNL     1     -11.762  13.701  67.457  0.00  0.00    +0.078 A 
ATOM      3 CL   UNL     1     -11.170  15.349  67.267  0.00  0.00    -0.081 Cl
ATOM      4  C   UNL     1     -11.944  13.149  68.719  0.00  0.00    +0.031 A 
ATOM      5  C   UNL     1     -11.658  11.807  68.947  0.00  0.00    +0.092 A 
ATOM      6  N   UNL     1     -11.757  11.348  70.286  0.00  0.00    -0.189 NA
ATOM      7  C   UNL     1     -11.251  10.058  70.641  0.00  0.00    +0.208 C 
ATOM      8  N   UNL     1     -10.172   9.625  70.054  0.00  0.00    -0.108 NA
ATOM      9  S   UNL     1     -10.157   9.686  68.316  0.00  0.00    +0.103 S 
ATOM     10  O   UNL     1      -8.774  10.110  67.912  0.00  0.00    -0.146 OA
ATOM     11  O   UNL     1     -10.544   8.367  67.727  0.00  0.00    -0.146 OA
ATOM     12  C   UNL     1     -11.317  10.950  67.906  0.00  0.00    +0.146 A 
ATOM     13  C   UNL     1     -11.410  11.469  66.626  0.00  0.00    +0.043 A 
ENDROOT
BRANCH   1  15
ATOM     14  N   UNL     1     -11.728  12.220  63.640  0.00  0.00    +0.039 NA
ATOM     15  S   UNL     1     -11.591  13.506  64.800  0.00  0.00    +0.094 S 
ATOM     16  O   UNL     1     -10.261  14.153  64.601  0.00  0.00    -0.150 OA
ATOM     17  O   UNL     1     -12.684  14.476  64.507  0.00  0.00    -0.150 OA
ENDBRANCH   1  15
TORSDOF 1
ENDMDL
MODEL 8
REMARK VINA RESULT:      -5.3      4.313      7.391
REMARK  Name = 
REMARK  1 active torsions:
REMARK  status: ('A' for Active; 'I' for Inactive)
REMARK    1  A    between atoms: S_2  and  C_5
REMARK                            x       y       z     vdW  Elec       q    Type
REMARK                         _______ _______ _______ _____ _____    ______ ____
ROOT
ATOM      1  C   UNL     1     -11.600   9.047  71.113  0.00  0.00    +0.137 A 
ATOM      2  C   UNL     1     -12.801   9.482  71.662  0.00  0.00    +0.078 A 
ATOM      3 CL   UNL     1     -14.147   8.377  71.929  0.00  0.00    -0.081 Cl
ATOM      4  C   UNL     1     -12.995  10.858  71.670  0.00  0.00    +0.031 A 
ATOM      5  C   UNL     1     -12.288  11.672  70.791  0.00  0.00    +0.092 A 
ATOM      6  N   UNL     1     -12.627  13.050  70.780  0.00  0.00    -0.189 NA
ATOM      7  C   UNL     1     -12.126  13.904  69.747  0.00  0.00    +0.208 C 
ATOM      8  N   UNL     1     -11.997  13.422  68.545  0.00  0.00    -0.108 NA
ATOM      9  S   UNL     1     -11.124  11.925  68.398  0.00  0.00    +0.103 S 
ATOM     10  O   UNL     1     -11.842  11.107  67.364  0.00  0.00    -0.146 OA
ATOM     11  O   UNL     1      -9.692  12.169  68.038  0.00  0.00    -0.146 OA
ATOM     12  C   UNL     1     -11.279  11.164  69.981  0.00  0.00    +0.146 A 
ATOM     13  C   UNL     1     -10.927   9.842  70.193  0.00  0.00    +0.043 A 
ENDROOT
BRANCH   1  15
ATOM     14  N   UNL     1      -9.671   7.025  70.735  0.00  0.00    +0.039 NA
ATOM     15  S   UNL     1     -11.328   7.311  71.169  0.00  0.00    +0.094 S 
ATOM     16  O   UNL     1     -12.183   6.576  70.191  0.00  0.00    -0.150 OA
ATOM     17  O   UNL     1     -11.523   6.758  72.539  0.00  0.00    -0.150 OA
ENDBRANCH   1  15
TORSDOF 1
ENDMDL
MODEL 9
REMARK VINA RESULT:      -5.3      3.124      3.549
REMARK  Name = 
REMARK  1 active torsions:
REMARK  status: ('A' for Active; 'I' for Inactive)
REMARK    1  A    between atoms: S_2  and  C_5
REMARK                            x       y       z     vdW  Elec       q    Type
REMARK                         _______ _______ _______ _____ _____    ______ ____
ROOT
ATOM      1  C   UNL     1      -8.899  16.205  66.029  0.00  0.00    +0.137 A 
ATOM      2  C   UNL     1     -10.069  16.817  65.591  0.00  0.00    +0.078 A 
ATOM      3 CL   UNL     1     -10.488  18.458  66.074  0.00  0.00    -0.081 Cl
ATOM      4  C   UNL     1     -11.024  15.966  65.048  0.00  0.00    +0.031 A 
ATOM      5  C   UNL     1     -11.012  14.609  65.353  0.00  0.00    +0.092 A 
ATOM      6  N   UNL     1     -12.087  13.830  64.853  0.00  0.00    -0.189 NA
ATOM      7  C   UNL     1     -12.279  12.490  65.318  0.00  0.00    +0.208 C 
ATOM      8  N   UNL     1     -12.013  12.216  66.562  0.00  0.00    -0.108 NA
ATOM      9  S   UNL     1     -10.452  12.710  67.149  0.00  0.00    +0.103 S 
ATOM     10  O   UNL     1     -10.659  13.219  68.547  0.00  0.00    -0.146 OA
ATOM     11  O   UNL     1      -9.472  11.581  67.092  0.00  0.00    -0.146 OA
ATOM     12  C   UNL     1      -9.980  14.039  66.090  0.00  0.00    +0.146 A 
ATOM     13  C   UNL     1      -8.908  14.862  66.386  0.00  0.00    +0.043 A 
ENDROOT
BRANCH   1  15
ATOM     14  N   UNL     1      -6.202  16.376  66.835  0.00  0.00    +0.039 NA
ATOM     15  S   UNL     1      -7.666  17.292  66.652  0.00  0.00    +0.094 S 
ATOM     16  O   UNL     1      -8.025  17.842  67.993  0.00  0.00    -0.150 OA
ATOM     17  O   UNL     1      -7.370  18.404  65.704  0.00  0.00    -0.150 OA
ENDBRANCH   1  15
TORSDOF 1
ENDMDL
