MODEL 1
REMARK VINA RESULT:      -5.9      0.000      0.000
REMARK  Name = 
REMARK  3 active torsions:
REMARK  status: ('A' for Active; 'I' for Inactive)
REMARK    1  A    between atoms: CA_2  and  C_3
REMARK    2  A    between atoms: CA_2  and  C_6
REMARK    3  A    between atoms: C_6  and  C_8
REMARK                            x       y       z     vdW  Elec       q    Type
REMARK                         _______ _______ _______ _____ _____    ______ ____
ROOT
ATOM      1  C   UNL     1     -11.958  14.362  67.577  0.00  0.00    +0.013 A 
ATOM      2  C   UNL     1     -11.188  15.522  67.659  0.00  0.00    +0.044 A 
ATOM      3  C   UNL     1     -10.822  16.075  68.871  0.00  0.00    +0.234 A 
ATOM      4  O   UNL     1      -9.996  17.190  68.989  0.00  0.00    -0.283 OA
ATOM      5  C   UNL     1     -11.346  15.519  70.022  0.00  0.00    +0.234 A 
ATOM      6  O   UNL     1     -11.565  16.297  71.156  0.00  0.00    -0.283 OA
ATOM      7  C   UNL     1     -11.997  14.303  69.970  0.00  0.00    +0.045 A 
ATOM      8  C   UNL     1     -11.978  13.635  68.753  0.00  0.00    +0.002 A 
ENDROOT
BRANCH   1   9
ATOM      9  C   UNL     1     -11.459  13.551  66.271  0.00  0.00    +0.203 C 
ATOM     10  O   UNL     1     -11.825  12.204  66.849  0.00  0.00    -0.216 OA
BRANCH   9  12
ATOM     11  N   UNL     1     -13.144  12.507  64.749  0.00  0.00    -0.118 NA
ATOM     12  CA  UNL     1     -12.956  13.878  65.474  0.00  0.00    +0.229 C 
BRANCH  12  13
ATOM     13  C   UNL     1     -12.202  14.547  64.228  0.00  0.00    +0.385 C 
ATOM     14  OXT UNL     1     -12.213  15.903  64.112  0.00  0.00    -0.244 OA
ATOM     15  O   UNL     1     -12.403  13.818  63.209  0.00  0.00    -0.244 OA
ENDBRANCH  12  13
ENDBRANCH   9  12
ENDBRANCH   1   9
TORSDOF 3
ENDMDL
MODEL 2
REMARK VINA RESULT:      -5.7      2.905      6.150
REMARK  Name = 
REMARK  3 active torsions:
REMARK  status: ('A' for Active; 'I' for Inactive)
REMARK    1  A    between atoms: CA_2  and  C_3
REMARK    2  A    between atoms: CA_2  and  C_6
REMARK    3  A    between atoms: C_6  and  C_8
REMARK                            x       y       z     vdW  Elec       q    Type
REMARK                         _______ _______ _______ _____ _____    ______ ____
ROOT
ATOM      1  C   UNL     1     -12.093  14.119  69.504  0.00  0.00    +0.013 A 
ATOM      2  C   UNL     1     -11.977  12.736  69.371  0.00  0.00    +0.044 A 
ATOM      3  C   UNL     1     -11.821  12.128  68.140  0.00  0.00    +0.234 A 
ATOM      4  O   UNL     1     -11.632  10.757  67.979  0.00  0.00    -0.283 OA
ATOM      5  C   UNL     1     -11.906  12.919  67.011  0.00  0.00    +0.234 A 
ATOM      6  O   UNL     1     -12.374  12.398  65.807  0.00  0.00    -0.283 OA
ATOM      7  C   UNL     1     -11.887  14.294  67.125  0.00  0.00    +0.045 A 
ATOM      8  C   UNL     1     -11.654  14.813  68.391  0.00  0.00    +0.002 A 
ENDROOT
BRANCH   1   9
ATOM      9  C   UNL     1     -11.380  14.525  70.896  0.00  0.00    +0.203 C 
ATOM     10  O   UNL     1     -10.644  15.697  70.291  0.00  0.00    -0.216 OA
BRANCH   9  12
ATOM     11  N   UNL     1     -12.131  16.407  72.359  0.00  0.00    -0.118 NA
ATOM     12  CA  UNL     1     -12.799  15.374  71.396  0.00  0.00    +0.229 C 
BRANCH  12  13
ATOM     13  C   UNL     1     -13.080  14.315  72.566  0.00  0.00    +0.385 C 
ATOM     14  OXT UNL     1     -14.178  13.518  72.473  0.00  0.00    -0.244 OA
ATOM     15  O   UNL     1     -12.779  14.861  73.671  0.00  0.00    -0.244 OA
ENDBRANCH  12  13
ENDBRANCH   9  12
ENDBRANCH   1   9
TORSDOF 3
ENDMDL
MODEL 3
REMARK VINA RESULT:      -5.7      1.972      2.492
REMARK  Name = 
REMARK  3 active torsions:
REMARK  status: ('A' for Active; 'I' for Inactive)
REMARK    1  A    between atoms: CA_2  and  C_3
REMARK    2  A    between atoms: CA_2  and  C_6
REMARK    3  A    between atoms: C_6  and  C_8
REMARK                            x       y       z     vdW  Elec       q    Type
REMARK                         _______ _______ _______ _____ _____    ______ ____
ROOT
ATOM      1  C   UNL     1     -10.839  15.604  66.796  0.00  0.00    +0.013 A 
ATOM      2  C   UNL     1     -10.108  16.537  66.062  0.00  0.00    +0.044 A 
ATOM      3  C   UNL     1      -9.584  17.677  66.641  0.00  0.00    +0.234 A 
ATOM      4  O   UNL     1      -8.791  18.592  65.952  0.00  0.00    -0.283 OA
ATOM      5  C   UNL     1      -9.907  17.943  67.957  0.00  0.00    +0.234 A 
ATOM      6  O   UNL     1      -9.980  19.254  68.423  0.00  0.00    -0.283 OA
ATOM      7  C   UNL     1     -10.513  16.975  68.731  0.00  0.00    +0.045 A 
ATOM      8  C   UNL     1     -10.654  15.717  68.162  0.00  0.00    +0.002 A 
ENDROOT
BRANCH   1   9
ATOM      9  C   UNL     1     -10.514  14.148  66.173  0.00  0.00    +0.203 C 
ATOM     10  O   UNL     1     -10.156  13.548  67.512  0.00  0.00    -0.216 OA
BRANCH   9  12
ATOM     11  N   UNL     1     -12.070  12.193  66.237  0.00  0.00    -0.118 NA
ATOM     12  CA  UNL     1     -12.195  13.750  66.181  0.00  0.00    +0.229 C 
BRANCH  12  13
ATOM     13  C   UNL     1     -12.261  13.788  64.581  0.00  0.00    +0.385 C 
ATOM     14  OXT UNL     1     -12.629  14.947  63.971  0.00  0.00    -0.244 OA
ATOM     15  O   UNL     1     -12.732  12.680  64.180  0.00  0.00    -0.244 OA
ENDBRANCH  12  13
ENDBRANCH   9  12
ENDBRANCH   1   9
TORSDOF 3
ENDMDL
MODEL 4
REMARK VINA RESULT:      -5.5      2.569      4.020
REMARK  Name = 
REMARK  3 active torsions:
REMARK  status: ('A' for Active; 'I' for Inactive)
REMARK    1  A    between atoms: CA_2  and  C_3
REMARK    2  A    between atoms: CA_2  and  C_6
REMARK    3  A    between atoms: C_6  and  C_8
REMARK                            x       y       z     vdW  Elec       q    Type
REMARK                         _______ _______ _______ _____ _____    ______ ____
ROOT
ATOM      1  C   UNL     1     -11.745  14.538  70.115  0.00  0.00    +0.013 A 
ATOM      2  C   UNL     1     -12.707  13.758  70.756  0.00  0.00    +0.044 A 
ATOM      3  C   UNL     1     -13.198  14.080  72.007  0.00  0.00    +0.234 A 
ATOM      4  O   UNL     1     -14.209  13.363  72.643  0.00  0.00    -0.283 OA
ATOM      5  C   UNL     1     -12.618  15.139  72.678  0.00  0.00    +0.234 A 
ATOM      6  O   UNL     1     -12.570  15.163  74.069  0.00  0.00    -0.283 OA
ATOM      7  C   UNL     1     -11.765  15.996  72.013  0.00  0.00    +0.045 A 
ATOM      8  C   UNL     1     -11.633  15.810  70.644  0.00  0.00    +0.002 A 
ENDROOT
BRANCH   1   9
ATOM      9  C   UNL     1     -12.058  14.473  68.531  0.00  0.00    +0.203 C 
ATOM     10  O   UNL     1     -11.326  15.761  68.236  0.00  0.00    -0.216 OA
BRANCH   9  12
ATOM     11  N   UNL     1     -10.217  13.941  66.926  0.00  0.00    -0.118 NA
ATOM     12  CA  UNL     1     -10.732  13.392  68.295  0.00  0.00    +0.229 C 
BRANCH  12  13
ATOM     13  C   UNL     1     -11.683  12.297  67.613  0.00  0.00    +0.385 C 
ATOM     14  OXT UNL     1     -12.078  11.226  68.353  0.00  0.00    -0.244 OA
ATOM     15  O   UNL     1     -11.301  12.138  66.414  0.00  0.00    -0.244 OA
ENDBRANCH  12  13
ENDBRANCH   9  12
ENDBRANCH   1   9
TORSDOF 3
ENDMDL
MODEL 5
REMARK VINA RESULT:      -5.5      2.649      5.392
REMARK  Name = 
REMARK  3 active torsions:
REMARK  status: ('A' for Active; 'I' for Inactive)
REMARK    1  A    between atoms: CA_2  and  C_3
REMARK    2  A    between atoms: CA_2  and  C_6
REMARK    3  A    between atoms: C_6  and  C_8
REMARK                            x       y       z     vdW  Elec       q    Type
REMARK                         _______ _______ _______ _____ _____    ______ ____
ROOT
ATOM      1  C   UNL     1     -10.971  15.321  66.310  0.00  0.00    +0.013 A 
ATOM      2  C   UNL     1     -11.229  14.151  67.024  0.00  0.00    +0.044 A 
ATOM      3  C   UNL     1     -11.798  13.041  66.432  0.00  0.00    +0.234 A 
ATOM      4  O   UNL     1     -12.003  11.835  67.099  0.00  0.00    -0.283 OA
ATOM      5  C   UNL     1     -12.230  13.152  65.125  0.00  0.00    +0.234 A 
ATOM      6  O   UNL     1     -13.305  12.398  64.661  0.00  0.00    -0.283 OA
ATOM      7  C   UNL     1     -11.867  14.247  64.367  0.00  0.00    +0.045 A 
ATOM      8  C   UNL     1     -10.966  15.133  64.939  0.00  0.00    +0.002 A 
ENDROOT
BRANCH   1   9
ATOM      9  C   UNL     1      -9.623  15.967  66.924  0.00  0.00    +0.203 C 
ATOM     10  O   UNL     1      -8.999  16.195  65.567  0.00  0.00    -0.216 OA
BRANCH   9  12
ATOM     11  N   UNL     1      -9.157  18.422  66.917  0.00  0.00    -0.118 NA
ATOM     12  CA  UNL     1     -10.406  17.498  67.081  0.00  0.00    +0.229 C 
BRANCH  12  13
ATOM     13  C   UNL     1     -10.287  17.450  68.678  0.00  0.00    +0.385 C 
ATOM     14  OXT UNL     1     -11.271  16.833  69.387  0.00  0.00    -0.244 OA
ATOM     15  O   UNL     1      -9.818  18.561  69.071  0.00  0.00    -0.244 OA
ENDBRANCH  12  13
ENDBRANCH   9  12
ENDBRANCH   1   9
TORSDOF 3
ENDMDL
MODEL 6
REMARK VINA RESULT:      -5.4      2.447      3.909
REMARK  Name = 
REMARK  3 active torsions:
REMARK  status: ('A' for Active; 'I' for Inactive)
REMARK    1  A    between atoms: CA_2  and  C_3
REMARK    2  A    between atoms: CA_2  and  C_6
REMARK    3  A    between atoms: C_6  and  C_8
REMARK                            x       y       z     vdW  Elec       q    Type
REMARK                         _______ _______ _______ _____ _____    ______ ____
ROOT
ATOM      1  C   UNL     1     -10.642  13.487  66.831  0.00  0.00    +0.013 A 
ATOM      2  C   UNL     1     -11.637  12.644  67.325  0.00  0.00    +0.044 A 
ATOM      3  C   UNL     1     -11.357  11.617  68.206  0.00  0.00    +0.234 A 
ATOM      4  O   UNL     1     -12.335  10.803  68.772  0.00  0.00    -0.283 OA
ATOM      5  C   UNL     1     -10.033  11.357  68.499  0.00  0.00    +0.234 A 
ATOM      6  O   UNL     1      -9.612  10.070  68.823  0.00  0.00    -0.283 OA
ATOM      7  C   UNL     1      -9.052  12.255  68.129  0.00  0.00    +0.045 A 
ATOM      8  C   UNL     1      -9.478  13.455  67.579  0.00  0.00    +0.002 A 
ENDROOT
BRANCH   1   9
ATOM      9  C   UNL     1     -11.305  14.949  66.647  0.00  0.00    +0.203 C 
ATOM     10  O   UNL     1     -10.180  15.657  67.365  0.00  0.00    -0.216 OA
BRANCH   9  12
ATOM     11  N   UNL     1     -10.618  16.614  64.915  0.00  0.00    -0.118 NA
ATOM     12  CA  UNL     1     -10.665  15.058  65.047  0.00  0.00    +0.229 C 
BRANCH  12  13
ATOM     13  C   UNL     1     -12.128  14.947  64.402  0.00  0.00    +0.385 C 
ATOM     14  OXT UNL     1     -12.511  13.761  63.857  0.00  0.00    -0.244 OA
ATOM     15  O   UNL     1     -12.376  16.035  63.800  0.00  0.00    -0.244 OA
ENDBRANCH  12  13
ENDBRANCH   9  12
ENDBRANCH   1   9
TORSDOF 3
ENDMDL
MODEL 7
REMARK VINA RESULT:      -5.3      2.268      2.957
REMARK  Name = 
REMARK  3 active torsions:
REMARK  status: ('A' for Active; 'I' for Inactive)
REMARK    1  A    between atoms: CA_2  and  C_3
REMARK    2  A    between atoms: CA_2  and  C_6
REMARK    3  A    between atoms: C_6  and  C_8
REMARK                            x       y       z     vdW  Elec       q    Type
REMARK                         _______ _______ _______ _____ _____    ______ ____
ROOT
ATOM      1  C   UNL     1     -11.647  12.301  67.366  0.00  0.00    +0.013 A 
ATOM      2  C   UNL     1     -11.850  13.252  68.366  0.00  0.00    +0.044 A 
ATOM      3  C   UNL     1     -11.914  12.909  69.702  0.00  0.00    +0.234 A 
ATOM      4  O   UNL     1     -12.044  13.842  70.729  0.00  0.00    -0.283 OA
ATOM      5  C   UNL     1     -11.896  11.567  70.029  0.00  0.00    +0.234 A 
ATOM      6  O   UNL     1     -12.547  11.101  71.169  0.00  0.00    -0.283 OA
ATOM      7  C   UNL     1     -11.566  10.626  69.076  0.00  0.00    +0.045 A 
ATOM      8  C   UNL     1     -11.140  11.106  67.845  0.00  0.00    +0.002 A 
ENDROOT
BRANCH   1   9
ATOM      9  C   UNL     1     -10.771  13.008  66.207  0.00  0.00    +0.203 C 
ATOM     10  O   UNL     1      -9.713  11.930  66.214  0.00  0.00    -0.216 OA
BRANCH   9  12
ATOM     11  N   UNL     1     -10.823  12.440  63.774  0.00  0.00    -0.118 NA
ATOM     12  CA  UNL     1     -11.793  12.324  64.993  0.00  0.00    +0.229 C 
BRANCH  12  13
ATOM     13  C   UNL     1     -12.483  13.742  64.707  0.00  0.00    +0.385 C 
ATOM     14  OXT UNL     1     -13.591  14.082  65.419  0.00  0.00    -0.244 OA
ATOM     15  O   UNL     1     -12.437  13.956  63.458  0.00  0.00    -0.244 OA
ENDBRANCH  12  13
ENDBRANCH   9  12
ENDBRANCH   1   9
TORSDOF 3
ENDMDL
MODEL 8
REMARK VINA RESULT:      -5.3      3.109      5.327
REMARK  Name = 
REMARK  3 active torsions:
REMARK  status: ('A' for Active; 'I' for Inactive)
REMARK    1  A    between atoms: CA_2  and  C_3
REMARK    2  A    between atoms: CA_2  and  C_6
REMARK    3  A    between atoms: C_6  and  C_8
REMARK                            x       y       z     vdW  Elec       q    Type
REMARK                         _______ _______ _______ _____ _____    ______ ____
ROOT
ATOM      1  C   UNL     1     -10.484  15.907  66.599  0.00  0.00    +0.013 A 
ATOM      2  C   UNL     1     -11.020  15.722  65.325  0.00  0.00    +0.044 A 
ATOM      3  C   UNL     1     -11.885  14.684  65.037  0.00  0.00    +0.234 A 
ATOM      4  O   UNL     1     -12.492  14.512  63.795  0.00  0.00    -0.283 OA
ATOM      5  C   UNL     1     -12.119  13.743  66.020  0.00  0.00    +0.234 A 
ATOM      6  O   UNL     1     -12.421  12.424  65.690  0.00  0.00    -0.283 OA
ATOM      7  C   UNL     1     -11.708  13.979  67.317  0.00  0.00    +0.045 A 
ATOM      8  C   UNL     1     -11.180  15.233  67.587  0.00  0.00    +0.002 A 
ENDROOT
BRANCH   1   9
ATOM      9  C   UNL     1     -10.333  17.500  66.825  0.00  0.00    +0.203 C 
ATOM     10  O   UNL     1     -11.104  17.487  68.124  0.00  0.00    -0.216 OA
BRANCH   9  12
ATOM     11  N   UNL     1      -8.803  18.372  68.598  0.00  0.00    -0.118 NA
ATOM     12  CA  UNL     1      -8.754  17.274  67.488  0.00  0.00    +0.229 C 
BRANCH  12  13
ATOM     13  C   UNL     1      -8.105  18.258  66.403  0.00  0.00    +0.385 C 
ATOM     14  OXT UNL     1      -7.289  17.730  65.450  0.00  0.00    -0.244 OA
ATOM     15  O   UNL     1      -7.784  19.336  66.991  0.00  0.00    -0.244 OA
ENDBRANCH  12  13
ENDBRANCH   9  12
ENDBRANCH   1   9
TORSDOF 3
ENDMDL
MODEL 9
REMARK VINA RESULT:      -5.3      1.690      3.101
REMARK  Name = 
REMARK  3 active torsions:
REMARK  status: ('A' for Active; 'I' for Inactive)
REMARK    1  A    between atoms: CA_2  and  C_3
REMARK    2  A    between atoms: CA_2  and  C_6
REMARK    3  A    between atoms: C_6  and  C_8
REMARK                            x       y       z     vdW  Elec       q    Type
REMARK                         _______ _______ _______ _____ _____    ______ ____
ROOT
ATOM      1  C   UNL     1     -10.662  15.199  66.193  0.00  0.00    +0.013 A 
ATOM      2  C   UNL     1     -11.139  15.616  67.435  0.00  0.00    +0.044 A 
ATOM      3  C   UNL     1     -10.376  16.385  68.293  0.00  0.00    +0.234 A 
ATOM      4  O   UNL     1     -10.848  16.877  69.508  0.00  0.00    -0.283 OA
ATOM      5  C   UNL     1      -9.063  16.635  67.946  0.00  0.00    +0.234 A 
ATOM      6  O   UNL     1      -8.089  16.821  68.923  0.00  0.00    -0.283 OA
ATOM      7  C   UNL     1      -8.616  16.346  66.672  0.00  0.00    +0.045 A 
ATOM      8  C   UNL     1      -9.569  15.925  65.756  0.00  0.00    +0.002 A 
ENDROOT
BRANCH   1   9
ATOM      9  C   UNL     1     -11.923  15.172  65.183  0.00  0.00    +0.203 C 
ATOM     10  O   UNL     1     -11.267  16.095  64.184  0.00  0.00    -0.216 OA
BRANCH   9  12
ATOM     11  N   UNL     1     -12.274  13.648  63.234  0.00  0.00    -0.118 NA
ATOM     12  CA  UNL     1     -11.378  13.676  64.513  0.00  0.00    +0.229 C 
BRANCH  12  13
ATOM     13  C   UNL     1     -12.429  12.843  65.390  0.00  0.00    +0.385 C 
ATOM     14  OXT UNL     1     -11.959  12.051  66.392  0.00  0.00    -0.244 OA
ATOM     15  O   UNL     1     -13.339  12.419  64.615  0.00  0.00    -0.244 OA
ENDBRANCH  12  13
ENDBRANCH   9  12
ENDBRANCH   1   9
TORSDOF 3
ENDMDL
