MODEL 1
REMARK VINA RESULT:      -7.5      0.000      0.000
REMARK  Name = 
REMARK  6 active torsions:
REMARK  status: ('A' for Active; 'I' for Inactive)
REMARK    1  A    between atoms: C_5  and  C_6
REMARK    2  A    between atoms: C_6  and  C_7
REMARK    3  A    between atoms: C_6  and  O_13
REMARK    4  A    between atoms: C_7  and  N_8
REMARK    5  A    between atoms: O_13  and  C_14
REMARK    6  A    between atoms: C_14  and  C_15
REMARK                            x       y       z     vdW  Elec       q    Type
REMARK                         _______ _______ _______ _____ _____    ______ ____
ROOT
ATOM      1  C   UNL     1     -10.793  13.616  68.078  0.00  0.00    +0.161 C 
ENDROOT
BRANCH   1   7
ATOM      2 CL   UNL     1     -14.101  15.460  72.740  0.00  0.00    -0.082 Cl
ATOM      3  C   UNL     1     -12.956  14.954  71.541  0.00  0.00    +0.058 A 
ATOM      4  C   UNL     1     -12.850  13.602  71.271  0.00  0.00    +0.023 A 
ATOM      5  C   UNL     1     -12.150  13.200  70.147  0.00  0.00    +0.057 A 
ATOM      6 CL   UNL     1     -11.513  11.557  70.052  0.00  0.00    -0.082 Cl
ATOM      7  C   UNL     1     -12.049  14.070  69.061  0.00  0.00    +0.017 A 
ATOM      8  C   UNL     1     -11.890  15.403  69.444  0.00  0.00    -0.000 A 
ATOM      9  C   UNL     1     -12.294  15.839  70.702  0.00  0.00    +0.011 A 
ENDBRANCH   1   7
BRANCH   1  10
ATOM     10  O   UNL     1      -9.805  14.578  68.792  0.00  0.00    -0.345 OA
BRANCH  10  11
ATOM     11  C   UNL     1      -9.178  15.258  67.788  0.00  0.00    +0.170 C 
BRANCH  11  12
ATOM     12  C   UNL     1      -8.383  16.425  68.293  0.00  0.00    +0.014 A 
ATOM     13  C   UNL     1      -8.859  17.730  68.251  0.00  0.00    +0.006 A 
ATOM     14  C   UNL     1     -10.170  18.179  68.138  0.00  0.00    +0.000 A 
ATOM     15  C   UNL     1     -10.423  19.442  67.619  0.00  0.00    +0.001 A 
ATOM     16  C   UNL     1      -9.428  20.296  67.210  0.00  0.00    +0.012 A 
ATOM     17  C   UNL     1      -8.135  19.915  67.523  0.00  0.00    +0.064 A 
ATOM     18 CL   UNL     1      -6.803  20.945  67.074  0.00  0.00    -0.082 Cl
ATOM     19  C   UNL     1      -7.848  18.596  67.864  0.00  0.00    +0.040 A 
ATOM     20  S   UNL     1      -6.501  17.876  68.653  0.00  0.00    -0.086 S 
ATOM     21  C   UNL     1      -7.219  16.364  69.049  0.00  0.00    +0.034 A 
ENDBRANCH  11  12
ENDBRANCH  10  11
ENDBRANCH   1  10
BRANCH   1  22
ATOM     22  C   UNL     1     -11.215  14.745  66.904  0.00  0.00    +0.142 C 
BRANCH  22  23
ATOM     23  N   UNL     1     -11.720  14.044  65.788  0.00  0.00    -0.305 N 
ATOM     24  C   UNL     1     -12.083  14.692  64.655  0.00  0.00    +0.179 A 
ATOM     25  N   UNL     1     -12.504  13.850  63.720  0.00  0.00    -0.222 NA
ATOM     26  C   UNL     1     -12.424  12.633  64.238  0.00  0.00    +0.119 A 
ATOM     27  C   UNL     1     -12.060  12.761  65.572  0.00  0.00    +0.098 A 
ENDBRANCH  22  23
ENDBRANCH   1  22
TORSDOF 6
ENDMDL
MODEL 2
REMARK VINA RESULT:      -7.4      2.682      4.616
REMARK  Name = 
REMARK  6 active torsions:
REMARK  status: ('A' for Active; 'I' for Inactive)
REMARK    1  A    between atoms: C_5  and  C_6
REMARK    2  A    between atoms: C_6  and  C_7
REMARK    3  A    between atoms: C_6  and  O_13
REMARK    4  A    between atoms: C_7  and  N_8
REMARK    5  A    between atoms: O_13  and  C_14
REMARK    6  A    between atoms: C_14  and  C_15
REMARK                            x       y       z     vdW  Elec       q    Type
REMARK                         _______ _______ _______ _____ _____    ______ ____
ROOT
ATOM      1  C   UNL     1     -11.467  15.123  68.349  0.00  0.00    +0.161 C 
ENDROOT
BRANCH   1   7
ATOM      2 CL   UNL     1     -11.292  11.506  63.557  0.00  0.00    -0.082 Cl
ATOM      3  C   UNL     1     -11.105  12.511  64.956  0.00  0.00    +0.058 A 
ATOM      4  C   UNL     1     -11.098  13.882  64.778  0.00  0.00    +0.023 A 
ATOM      5  C   UNL     1     -11.220  14.699  65.888  0.00  0.00    +0.057 A 
ATOM      6 CL   UNL     1     -10.669  16.374  65.809  0.00  0.00    -0.082 Cl
ATOM      7  C   UNL     1     -11.871  14.214  67.022  0.00  0.00    +0.017 A 
ATOM      8  C   UNL     1     -11.600  12.867  67.272  0.00  0.00    -0.000 A 
ATOM      9  C   UNL     1     -11.166  12.024  66.254  0.00  0.00    +0.011 A 
ENDBRANCH   1   7
BRANCH   1  10
ATOM     10  O   UNL     1      -9.951  14.845  68.154  0.00  0.00    -0.345 OA
BRANCH  10  11
ATOM     11  C   UNL     1      -9.342  15.405  69.240  0.00  0.00    +0.170 C 
BRANCH  11  12
ATOM     12  C   UNL     1      -8.318  16.431  68.858  0.00  0.00    +0.014 A 
ATOM     13  C   UNL     1      -8.659  17.721  68.468  0.00  0.00    +0.006 A 
ATOM     14  C   UNL     1      -9.837  18.422  68.704  0.00  0.00    +0.000 A 
ATOM     15  C   UNL     1     -10.204  19.456  67.853  0.00  0.00    +0.001 A 
ATOM     16  C   UNL     1      -9.448  19.841  66.772  0.00  0.00    +0.012 A 
ATOM     17  C   UNL     1      -8.190  19.273  66.680  0.00  0.00    +0.064 A 
ATOM     18 CL   UNL     1      -7.141  19.718  65.362  0.00  0.00    -0.082 Cl
ATOM     19  C   UNL     1      -7.878  18.119  67.394  0.00  0.00    +0.040 A 
ATOM     20  S   UNL     1      -6.378  17.392  67.813  0.00  0.00    -0.086 S 
ATOM     21  C   UNL     1      -6.944  16.336  69.047  0.00  0.00    +0.034 A 
ENDBRANCH  11  12
ENDBRANCH  10  11
ENDBRANCH   1  10
BRANCH   1  22
ATOM     22  C   UNL     1     -11.683  13.819  69.391  0.00  0.00    +0.142 C 
BRANCH  22  23
ATOM     23  N   UNL     1     -12.501  14.247  70.459  0.00  0.00    -0.305 N 
ATOM     24  C   UNL     1     -12.759  15.562  70.662  0.00  0.00    +0.179 A 
ATOM     25  N   UNL     1     -13.568  15.750  71.697  0.00  0.00    -0.222 NA
ATOM     26  C   UNL     1     -13.847  14.549  72.187  0.00  0.00    +0.119 A 
ATOM     27  C   UNL     1     -13.079  13.620  71.498  0.00  0.00    +0.098 A 
ENDBRANCH  22  23
ENDBRANCH   1  22
TORSDOF 6
ENDMDL
MODEL 3
REMARK VINA RESULT:      -7.2      3.410      7.074
REMARK  Name = 
REMARK  6 active torsions:
REMARK  status: ('A' for Active; 'I' for Inactive)
REMARK    1  A    between atoms: C_5  and  C_6
REMARK    2  A    between atoms: C_6  and  C_7
REMARK    3  A    between atoms: C_6  and  O_13
REMARK    4  A    between atoms: C_7  and  N_8
REMARK    5  A    between atoms: O_13  and  C_14
REMARK    6  A    between atoms: C_14  and  C_15
REMARK                            x       y       z     vdW  Elec       q    Type
REMARK                         _______ _______ _______ _____ _____    ______ ____
ROOT
ATOM      1  C   UNL     1     -10.653  15.106  69.533  0.00  0.00    +0.161 C 
ENDROOT
BRANCH   1   7
ATOM      2 CL   UNL     1      -8.152  19.832  66.797  0.00  0.00    -0.082 Cl
ATOM      3  C   UNL     1      -8.857  18.357  67.373  0.00  0.00    +0.058 A 
ATOM      4  C   UNL     1      -8.068  17.511  68.132  0.00  0.00    +0.023 A 
ATOM      5  C   UNL     1      -8.675  16.475  68.820  0.00  0.00    +0.057 A 
ATOM      6 CL   UNL     1      -7.720  15.079  69.322  0.00  0.00    -0.082 Cl
ATOM      7  C   UNL     1     -10.013  16.598  69.197  0.00  0.00    +0.017 A 
ATOM      8  C   UNL     1     -10.793  17.241  68.233  0.00  0.00    -0.000 A 
ATOM      9  C   UNL     1     -10.213  18.080  67.286  0.00  0.00    +0.011 A 
ENDBRANCH   1   7
BRANCH   1  10
ATOM     10  O   UNL     1     -11.010  14.855  68.043  0.00  0.00    -0.345 OA
BRANCH  10  11
ATOM     11  C   UNL     1     -11.597  13.623  68.018  0.00  0.00    +0.170 C 
BRANCH  11  12
ATOM     12  C   UNL     1     -11.814  13.118  66.623  0.00  0.00    +0.014 A 
ATOM     13  C   UNL     1     -11.384  11.864  66.204  0.00  0.00    +0.006 A 
ATOM     14  C   UNL     1     -11.065  10.749  66.972  0.00  0.00    +0.000 A 
ATOM     15  C   UNL     1     -10.204   9.786  66.462  0.00  0.00    +0.001 A 
ATOM     16  C   UNL     1      -9.644   9.870  65.211  0.00  0.00    +0.012 A 
ATOM     17  C   UNL     1     -10.134  10.872  64.393  0.00  0.00    +0.064 A 
ATOM     18 CL   UNL     1      -9.510  11.044  62.775  0.00  0.00    -0.082 Cl
ATOM     19  C   UNL     1     -10.842  11.944  64.931  0.00  0.00    +0.040 A 
ATOM     20  S   UNL     1     -11.886  13.109  64.220  0.00  0.00    -0.086 S 
ATOM     21  C   UNL     1     -12.633  13.690  65.657  0.00  0.00    +0.034 A 
ENDBRANCH  11  12
ENDBRANCH  10  11
ENDBRANCH   1  10
BRANCH   1  22
ATOM     22  C   UNL     1     -12.161  15.762  69.896  0.00  0.00    +0.142 C 
BRANCH  22  23
ATOM     23  N   UNL     1     -12.447  15.469  71.247  0.00  0.00    -0.305 N 
ATOM     24  C   UNL     1     -13.381  14.545  71.583  0.00  0.00    +0.179 A 
ATOM     25  N   UNL     1     -13.477  14.400  72.899  0.00  0.00    -0.222 NA
ATOM     26  C   UNL     1     -12.604  15.238  73.440  0.00  0.00    +0.119 A 
ATOM     27  C   UNL     1     -12.054  15.999  72.418  0.00  0.00    +0.098 A 
ENDBRANCH  22  23
ENDBRANCH   1  22
TORSDOF 6
ENDMDL
MODEL 4
REMARK VINA RESULT:      -7.1      2.487      6.302
REMARK  Name = 
REMARK  6 active torsions:
REMARK  status: ('A' for Active; 'I' for Inactive)
REMARK    1  A    between atoms: C_5  and  C_6
REMARK    2  A    between atoms: C_6  and  C_7
REMARK    3  A    between atoms: C_6  and  O_13
REMARK    4  A    between atoms: C_7  and  N_8
REMARK    5  A    between atoms: O_13  and  C_14
REMARK    6  A    between atoms: C_14  and  C_15
REMARK                            x       y       z     vdW  Elec       q    Type
REMARK                         _______ _______ _______ _____ _____    ______ ____
ROOT
ATOM      1  C   UNL     1     -10.533  15.425  66.831  0.00  0.00    +0.161 C 
ENDROOT
BRANCH   1   7
ATOM      2 CL   UNL     1      -5.837  19.078  67.651  0.00  0.00    -0.082 Cl
ATOM      3  C   UNL     1      -7.075  17.869  67.559  0.00  0.00    +0.058 A 
ATOM      4  C   UNL     1      -8.224  18.055  68.307  0.00  0.00    +0.023 A 
ATOM      5  C   UNL     1      -9.323  17.255  68.048  0.00  0.00    +0.057 A 
ATOM      6 CL   UNL     1     -10.568  17.051  69.282  0.00  0.00    -0.082 Cl
ATOM      7  C   UNL     1      -9.481  16.705  66.776  0.00  0.00    +0.017 A 
ATOM      8  C   UNL     1      -8.274  16.299  66.204  0.00  0.00    -0.000 A 
ATOM      9  C   UNL     1      -7.063  16.840  66.629  0.00  0.00    +0.011 A 
ENDBRANCH   1   7
BRANCH   1  10
ATOM     10  O   UNL     1      -9.376  14.401  66.986  0.00  0.00    -0.345 OA
BRANCH  10  11
ATOM     11  C   UNL     1      -9.493  13.917  68.257  0.00  0.00    +0.170 C 
BRANCH  11  12
ATOM     12  C   UNL     1     -10.471  12.784  68.353  0.00  0.00    +0.014 A 
ATOM     13  C   UNL     1     -11.546  12.795  69.234  0.00  0.00    +0.006 A 
ATOM     14  C   UNL     1     -12.151  13.879  69.861  0.00  0.00    +0.000 A 
ATOM     15  C   UNL     1     -12.846  13.687  71.047  0.00  0.00    +0.001 A 
ATOM     16  C   UNL     1     -12.980  12.459  71.647  0.00  0.00    +0.012 A 
ATOM     17  C   UNL     1     -12.553  11.372  70.904  0.00  0.00    +0.064 A 
ATOM     18 CL   UNL     1     -12.708   9.767  71.563  0.00  0.00    -0.082 Cl
ATOM     19  C   UNL     1     -11.698  11.547  69.819  0.00  0.00    +0.040 A 
ATOM     20  S   UNL     1     -11.293  10.530  68.495  0.00  0.00    -0.086 S 
ATOM     21  C   UNL     1     -10.586  11.717  67.470  0.00  0.00    +0.034 A 
ENDBRANCH  11  12
ENDBRANCH  10  11
ENDBRANCH   1  10
BRANCH   1  22
ATOM     22  C   UNL     1     -10.570  15.296  65.153  0.00  0.00    +0.142 C 
BRANCH  22  23
ATOM     23  N   UNL     1     -11.308  14.139  64.823  0.00  0.00    -0.305 N 
ATOM     24  C   UNL     1     -12.537  13.915  65.349  0.00  0.00    +0.179 A 
ATOM     25  N   UNL     1     -13.070  12.790  64.891  0.00  0.00    -0.222 NA
ATOM     26  C   UNL     1     -12.185  12.260  64.057  0.00  0.00    +0.119 A 
ATOM     27  C   UNL     1     -11.032  13.031  64.113  0.00  0.00    +0.098 A 
ENDBRANCH  22  23
ENDBRANCH   1  22
TORSDOF 6
ENDMDL
MODEL 5
REMARK VINA RESULT:      -7.0      1.738      2.462
REMARK  Name = 
REMARK  6 active torsions:
REMARK  status: ('A' for Active; 'I' for Inactive)
REMARK    1  A    between atoms: C_5  and  C_6
REMARK    2  A    between atoms: C_6  and  C_7
REMARK    3  A    between atoms: C_6  and  O_13
REMARK    4  A    between atoms: C_7  and  N_8
REMARK    5  A    between atoms: O_13  and  C_14
REMARK    6  A    between atoms: C_14  and  C_15
REMARK                            x       y       z     vdW  Elec       q    Type
REMARK                         _______ _______ _______ _____ _____    ______ ____
ROOT
ATOM      1  C   UNL     1     -10.817  14.481  67.166  0.00  0.00    +0.161 C 
ENDROOT
BRANCH   1   7
ATOM      2 CL   UNL     1     -13.461  13.592  72.485  0.00  0.00    -0.082 Cl
ATOM      3  C   UNL     1     -12.493  13.873  71.076  0.00  0.00    +0.058 A 
ATOM      4  C   UNL     1     -12.151  12.785  70.292  0.00  0.00    +0.023 A 
ATOM      5  C   UNL     1     -11.617  13.011  69.036  0.00  0.00    +0.057 A 
ATOM      6 CL   UNL     1     -10.670  11.749  68.247  0.00  0.00    -0.082 Cl
ATOM      7  C   UNL     1     -11.923  14.198  68.369  0.00  0.00    +0.017 A 
ATOM      8  C   UNL     1     -11.985  15.302  69.222  0.00  0.00    -0.000 A 
ATOM      9  C   UNL     1     -12.217  15.141  70.585  0.00  0.00    +0.011 A 
ENDBRANCH   1   7
BRANCH   1  10
ATOM     10  O   UNL     1     -10.972  16.020  67.301  0.00  0.00    -0.345 OA
BRANCH  10  11
ATOM     11  C   UNL     1     -10.413  16.537  66.168  0.00  0.00    +0.170 C 
BRANCH  11  12
ATOM     12  C   UNL     1      -9.684  17.822  66.421  0.00  0.00    +0.014 A 
ATOM     13  C   UNL     1      -8.315  17.873  66.657  0.00  0.00    +0.006 A 
ATOM     14  C   UNL     1      -7.339  16.933  66.346  0.00  0.00    +0.000 A 
ATOM     15  C   UNL     1      -6.155  16.905  67.070  0.00  0.00    +0.001 A 
ATOM     16  C   UNL     1      -5.883  17.778  68.094  0.00  0.00    +0.012 A 
ATOM     17  C   UNL     1      -6.770  18.828  68.247  0.00  0.00    +0.064 A 
ATOM     18 CL   UNL     1      -6.497  20.009  69.499  0.00  0.00    -0.082 Cl
ATOM     19  C   UNL     1      -8.038  18.775  67.673  0.00  0.00    +0.040 A 
ATOM     20  S   UNL     1      -9.204  19.992  67.337  0.00  0.00    -0.086 S 
ATOM     21  C   UNL     1     -10.187  19.105  66.239  0.00  0.00    +0.034 A 
ENDBRANCH  11  12
ENDBRANCH  10  11
ENDBRANCH   1  10
BRANCH   1  22
ATOM     22  C   UNL     1     -11.991  14.358  65.966  0.00  0.00    +0.142 C 
BRANCH  22  23
ATOM     23  N   UNL     1     -11.549  13.406  65.022  0.00  0.00    -0.305 N 
ATOM     24  C   UNL     1     -12.417  12.553  64.425  0.00  0.00    +0.179 A 
ATOM     25  N   UNL     1     -11.806  11.761  63.554  0.00  0.00    -0.222 NA
ATOM     26  C   UNL     1     -10.521  12.088  63.575  0.00  0.00    +0.119 A 
ATOM     27  C   UNL     1     -10.337  13.023  64.585  0.00  0.00    +0.098 A 
ENDBRANCH  22  23
ENDBRANCH   1  22
TORSDOF 6
ENDMDL
MODEL 6
REMARK VINA RESULT:      -7.0      2.759      6.397
REMARK  Name = 
REMARK  6 active torsions:
REMARK  status: ('A' for Active; 'I' for Inactive)
REMARK    1  A    between atoms: C_5  and  C_6
REMARK    2  A    between atoms: C_6  and  C_7
REMARK    3  A    between atoms: C_6  and  O_13
REMARK    4  A    between atoms: C_7  and  N_8
REMARK    5  A    between atoms: O_13  and  C_14
REMARK    6  A    between atoms: C_14  and  C_15
REMARK                            x       y       z     vdW  Elec       q    Type
REMARK                         _______ _______ _______ _____ _____    ______ ____
ROOT
ATOM      1  C   UNL     1     -10.638  14.648  66.675  0.00  0.00    +0.161 C 
ENDROOT
BRANCH   1   7
ATOM      2 CL   UNL     1      -8.489  20.200  67.471  0.00  0.00    -0.082 Cl
ATOM      3  C   UNL     1      -8.942  18.529  67.401  0.00  0.00    +0.058 A 
ATOM      4  C   UNL     1     -10.084  18.135  68.076  0.00  0.00    +0.023 A 
ATOM      5  C   UNL     1     -10.610  16.881  67.819  0.00  0.00    +0.057 A 
ATOM      6 CL   UNL     1     -11.677  16.120  69.000  0.00  0.00    -0.082 Cl
ATOM      7  C   UNL     1     -10.370  16.282  66.582  0.00  0.00    +0.017 A 
ATOM      8  C   UNL     1      -9.081  16.522  66.102  0.00  0.00    -0.000 A 
ATOM      9  C   UNL     1      -8.342  17.614  66.548  0.00  0.00    +0.011 A 
ENDBRANCH   1   7
BRANCH   1  10
ATOM     10  O   UNL     1      -9.165  14.366  67.074  0.00  0.00    -0.345 OA
BRANCH  10  11
ATOM     11  C   UNL     1      -9.238  13.648  68.233  0.00  0.00    +0.170 C 
BRANCH  11  12
ATOM     12  C   UNL     1      -9.573  12.206  67.995  0.00  0.00    +0.014 A 
ATOM     13  C   UNL     1     -10.562  11.539  68.709  0.00  0.00    +0.006 A 
ATOM     14  C   UNL     1     -11.630  12.068  69.425  0.00  0.00    +0.000 A 
ATOM     15  C   UNL     1     -12.201  11.330  70.453  0.00  0.00    +0.001 A 
ATOM     16  C   UNL     1     -11.767  10.076  70.806  0.00  0.00    +0.012 A 
ATOM     17  C   UNL     1     -10.850   9.490  69.952  0.00  0.00    +0.064 A 
ATOM     18 CL   UNL     1     -10.260   7.886  70.294  0.00  0.00    -0.082 Cl
ATOM     19  C   UNL     1     -10.134  10.263  69.041  0.00  0.00    +0.040 A 
ATOM     20  S   UNL     1      -9.246   9.853  67.628  0.00  0.00    -0.086 S 
ATOM     21  C   UNL     1      -9.138  11.423  66.933  0.00  0.00    +0.034 A 
ENDBRANCH  11  12
ENDBRANCH  10  11
ENDBRANCH   1  10
BRANCH   1  22
ATOM     22  C   UNL     1     -10.347  14.440  65.030  0.00  0.00    +0.142 C 
BRANCH  22  23
ATOM     23  N   UNL     1     -11.263  13.481  64.546  0.00  0.00    -0.305 N 
ATOM     24  C   UNL     1     -12.464  13.290  65.144  0.00  0.00    +0.179 A 
ATOM     25  N   UNL     1     -13.183  12.366  64.520  0.00  0.00    -0.222 NA
ATOM     26  C   UNL     1     -12.451  11.936  63.501  0.00  0.00    +0.119 A 
ATOM     27  C   UNL     1     -11.202  12.535  63.592  0.00  0.00    +0.098 A 
ENDBRANCH  22  23
ENDBRANCH   1  22
TORSDOF 6
ENDMDL
MODEL 7
REMARK VINA RESULT:      -7.0      1.502      1.659
REMARK  Name = 
REMARK  6 active torsions:
REMARK  status: ('A' for Active; 'I' for Inactive)
REMARK    1  A    between atoms: C_5  and  C_6
REMARK    2  A    between atoms: C_6  and  C_7
REMARK    3  A    between atoms: C_6  and  O_13
REMARK    4  A    between atoms: C_7  and  N_8
REMARK    5  A    between atoms: O_13  and  C_14
REMARK    6  A    between atoms: C_14  and  C_15
REMARK                            x       y       z     vdW  Elec       q    Type
REMARK                         _______ _______ _______ _____ _____    ______ ____
ROOT
ATOM      1  C   UNL     1     -10.602  13.379  67.281  0.00  0.00    +0.161 C 
ENDROOT
BRANCH   1   7
ATOM      2 CL   UNL     1     -13.677  13.516  72.438  0.00  0.00    -0.082 Cl
ATOM      3  C   UNL     1     -12.593  13.510  71.086  0.00  0.00    +0.058 A 
ATOM      4  C   UNL     1     -12.268  12.292  70.517  0.00  0.00    +0.023 A 
ATOM      5  C   UNL     1     -11.631  12.281  69.289  0.00  0.00    +0.057 A 
ATOM      6 CL   UNL     1     -10.715  10.857  68.791  0.00  0.00    -0.082 Cl
ATOM      7  C   UNL     1     -11.808  13.356  68.419  0.00  0.00    +0.017 A 
ATOM      8  C   UNL     1     -11.859  14.587  69.077  0.00  0.00    -0.000 A 
ATOM      9  C   UNL     1     -12.199  14.664  70.424  0.00  0.00    +0.011 A 
ENDBRANCH   1   7
BRANCH   1  10
ATOM     10  O   UNL     1     -10.804  14.894  67.006  0.00  0.00    -0.345 OA
BRANCH  10  11
ATOM     11  C   UNL     1      -9.632  15.317  66.449  0.00  0.00    +0.170 C 
BRANCH  11  12
ATOM     12  C   UNL     1      -8.870  16.244  67.347  0.00  0.00    +0.014 A 
ATOM     13  C   UNL     1      -9.273  17.553  67.588  0.00  0.00    +0.006 A 
ATOM     14  C   UNL     1     -10.530  18.124  67.422  0.00  0.00    +0.000 A 
ATOM     15  C   UNL     1     -10.642  19.495  67.227  0.00  0.00    +0.001 A 
ATOM     16  C   UNL     1      -9.558  20.338  67.196  0.00  0.00    +0.012 A 
ATOM     17  C   UNL     1      -8.348  19.782  67.569  0.00  0.00    +0.064 A 
ATOM     18 CL   UNL     1      -6.917  20.776  67.593  0.00  0.00    -0.082 Cl
ATOM     19  C   UNL     1      -8.176  18.400  67.584  0.00  0.00    +0.040 A 
ATOM     20  S   UNL     1      -7.000  17.392  68.329  0.00  0.00    -0.086 S 
ATOM     21  C   UNL     1      -7.838  15.895  68.210  0.00  0.00    +0.034 A 
ENDBRANCH  11  12
ENDBRANCH  10  11
ENDBRANCH   1  10
BRANCH   1  22
ATOM     22  C   UNL     1     -11.655  12.904  66.057  0.00  0.00    +0.142 C 
BRANCH  22  23
ATOM     23  N   UNL     1     -10.926  12.122  65.136  0.00  0.00    -0.305 N 
ATOM     24  C   UNL     1     -10.798  12.500  63.840  0.00  0.00    +0.179 A 
ATOM     25  N   UNL     1     -10.055  11.644  63.150  0.00  0.00    -0.222 NA
ATOM     26  C   UNL     1      -9.690  10.689  63.994  0.00  0.00    +0.119 A 
ATOM     27  C   UNL     1     -10.339  10.914  65.200  0.00  0.00    +0.098 A 
ENDBRANCH  22  23
ENDBRANCH   1  22
TORSDOF 6
ENDMDL
MODEL 8
REMARK VINA RESULT:      -6.9      2.742      4.808
REMARK  Name = 
REMARK  6 active torsions:
REMARK  status: ('A' for Active; 'I' for Inactive)
REMARK    1  A    between atoms: C_5  and  C_6
REMARK    2  A    between atoms: C_6  and  C_7
REMARK    3  A    between atoms: C_6  and  O_13
REMARK    4  A    between atoms: C_7  and  N_8
REMARK    5  A    between atoms: O_13  and  C_14
REMARK    6  A    between atoms: C_14  and  C_15
REMARK                            x       y       z     vdW  Elec       q    Type
REMARK                         _______ _______ _______ _____ _____    ______ ____
ROOT
ATOM      1  C   UNL     1     -12.067  13.791  68.401  0.00  0.00    +0.161 C 
ENDROOT
BRANCH   1   7
ATOM      2 CL   UNL     1      -9.552   9.595  64.917  0.00  0.00    -0.082 Cl
ATOM      3  C   UNL     1     -10.095  10.949  65.853  0.00  0.00    +0.058 A 
ATOM      4  C   UNL     1     -11.163  11.686  65.372  0.00  0.00    +0.023 A 
ATOM      5  C   UNL     1     -11.780  12.591  66.216  0.00  0.00    +0.057 A 
ATOM      6 CL   UNL     1     -12.729  13.916  65.538  0.00  0.00    -0.082 Cl
ATOM      7  C   UNL     1     -11.728  12.383  67.595  0.00  0.00    +0.017 A 
ATOM      8  C   UNL     1     -10.499  11.877  68.023  0.00  0.00    -0.000 A 
ATOM      9  C   UNL     1      -9.655  11.206  67.143  0.00  0.00    +0.011 A 
ENDBRANCH   1   7
BRANCH   1  10
ATOM     10  O   UNL     1     -10.599  14.284  68.285  0.00  0.00    -0.345 OA
BRANCH  10  11
ATOM     11  C   UNL     1     -10.686  15.636  68.123  0.00  0.00    +0.170 C 
BRANCH  11  12
ATOM     12  C   UNL     1      -9.353  16.271  67.862  0.00  0.00    +0.014 A 
ATOM     13  C   UNL     1      -9.150  17.644  67.939  0.00  0.00    +0.006 A 
ATOM     14  C   UNL     1      -9.911  18.605  68.596  0.00  0.00    +0.000 A 
ATOM     15  C   UNL     1      -9.866  19.926  68.172  0.00  0.00    +0.001 A 
ATOM     16  C   UNL     1      -9.087  20.350  67.123  0.00  0.00    +0.012 A 
ATOM     17  C   UNL     1      -8.188  19.425  66.624  0.00  0.00    +0.064 A 
ATOM     18 CL   UNL     1      -7.132  19.874  65.312  0.00  0.00    -0.082 Cl
ATOM     19  C   UNL     1      -8.341  18.068  66.895  0.00  0.00    +0.040 A 
ATOM     20  S   UNL     1      -7.258  16.739  66.780  0.00  0.00    -0.086 S 
ATOM     21  C   UNL     1      -8.136  15.613  67.740  0.00  0.00    +0.034 A 
ENDBRANCH  11  12
ENDBRANCH  10  11
ENDBRANCH   1  10
BRANCH   1  22
ATOM     22  C   UNL     1     -11.821  13.069  69.902  0.00  0.00    +0.142 C 
BRANCH  22  23
ATOM     23  N   UNL     1     -12.659  13.715  70.837  0.00  0.00    -0.305 N 
ATOM     24  C   UNL     1     -13.289  13.019  71.814  0.00  0.00    +0.179 A 
ATOM     25  N   UNL     1     -14.004  13.813  72.601  0.00  0.00    -0.222 NA
ATOM     26  C   UNL     1     -13.850  15.046  72.138  0.00  0.00    +0.119 A 
ATOM     27  C   UNL     1     -13.119  14.972  70.961  0.00  0.00    +0.098 A 
ENDBRANCH  22  23
ENDBRANCH   1  22
TORSDOF 6
ENDMDL
MODEL 9
REMARK VINA RESULT:      -6.8      2.392      3.461
REMARK  Name = 
REMARK  6 active torsions:
REMARK  status: ('A' for Active; 'I' for Inactive)
REMARK    1  A    between atoms: C_5  and  C_6
REMARK    2  A    between atoms: C_6  and  C_7
REMARK    3  A    between atoms: C_6  and  O_13
REMARK    4  A    between atoms: C_7  and  N_8
REMARK    5  A    between atoms: O_13  and  C_14
REMARK    6  A    between atoms: C_14  and  C_15
REMARK                            x       y       z     vdW  Elec       q    Type
REMARK                         _______ _______ _______ _____ _____    ______ ____
ROOT
ATOM      1  C   UNL     1     -10.062  15.984  68.381  0.00  0.00    +0.161 C 
ENDROOT
BRANCH   1   7
ATOM      2 CL   UNL     1     -13.672  13.456  72.461  0.00  0.00    -0.082 Cl
ATOM      3  C   UNL     1     -12.448  14.086  71.408  0.00  0.00    +0.058 A 
ATOM      4  C   UNL     1     -12.259  13.466  70.186  0.00  0.00    +0.023 A 
ATOM      5  C   UNL     1     -11.488  14.102  69.229  0.00  0.00    +0.057 A 
ATOM      6 CL   UNL     1     -10.761  13.164  67.923  0.00  0.00    -0.082 Cl
ATOM      7  C   UNL     1     -11.384  15.493  69.253  0.00  0.00    +0.017 A 
ATOM      8  C   UNL     1     -11.314  16.012  70.548  0.00  0.00    -0.000 A 
ATOM      9  C   UNL     1     -11.797  15.289  71.635  0.00  0.00    +0.011 A 
ENDBRANCH   1   7
BRANCH   1  10
ATOM     10  O   UNL     1      -9.100  15.714  69.569  0.00  0.00    -0.345 OA
BRANCH  10  11
ATOM     11  C   UNL     1      -7.965  15.209  69.004  0.00  0.00    +0.170 C 
BRANCH  11  12
ATOM     12  C   UNL     1      -7.261  16.208  68.135  0.00  0.00    +0.014 A 
ATOM     13  C   UNL     1      -6.499  17.248  68.655  0.00  0.00    +0.006 A 
ATOM     14  C   UNL     1      -5.926  17.364  69.917  0.00  0.00    +0.000 A 
ATOM     15  C   UNL     1      -5.644  18.623  70.430  0.00  0.00    +0.001 A 
ATOM     16  C   UNL     1      -5.896  19.786  69.744  0.00  0.00    +0.012 A 
ATOM     17  C   UNL     1      -6.268  19.639  68.420  0.00  0.00    +0.064 A 
ATOM     18 CL   UNL     1      -6.581  21.054  67.453  0.00  0.00    -0.082 Cl
ATOM     19  C   UNL     1      -6.733  18.415  67.945  0.00  0.00    +0.040 A 
ATOM     20  S   UNL     1      -6.905  17.785  66.356  0.00  0.00    -0.086 S 
ATOM     21  C   UNL     1      -7.078  16.122  66.760  0.00  0.00    +0.034 A 
ENDBRANCH  11  12
ENDBRANCH  10  11
ENDBRANCH   1  10
BRANCH   1  22
ATOM     22  C   UNL     1     -10.301  17.597  68.799  0.00  0.00    +0.142 C 
BRANCH  22  23
ATOM     23  N   UNL     1     -10.371  18.349  67.607  0.00  0.00    -0.305 N 
ATOM     24  C   UNL     1     -10.485  17.743  66.399  0.00  0.00    +0.179 A 
ATOM     25  N   UNL     1     -10.562  18.627  65.412  0.00  0.00    -0.222 NA
ATOM     26  C   UNL     1     -10.495  19.828  65.969  0.00  0.00    +0.119 A 
ATOM     27  C   UNL     1     -10.243  19.657  67.323  0.00  0.00    +0.098 A 
ENDBRANCH  22  23
ENDBRANCH   1  22
TORSDOF 6
ENDMDL
