MODEL 1
REMARK VINA RESULT:      -4.7      0.000      0.000
REMARK  Name = 
REMARK  1 active torsions:
REMARK  status: ('A' for Active; 'I' for Inactive)
REMARK    1  A    between atoms: C_2  and  C_3
REMARK                            x       y       z     vdW  Elec       q    Type
REMARK                         _______ _______ _______ _____ _____    ______ ____
ROOT
ATOM      1  C   UNL     1     -10.904  14.752  65.494  0.00  0.00    +0.080 C 
ATOM      2  C   UNL     1     -11.712  15.672  64.636  0.00  0.00    +0.247 C 
ATOM      3  O   UNL     1     -11.217  16.746  64.179  0.00  0.00    -0.273 OA
ATOM      4  N   UNL     1     -12.630  14.790  63.976  0.00  0.00    -0.145 NA
ATOM      5  C   UNL     1     -12.174  13.436  64.096  0.00  0.00    +0.248 C 
ATOM      6  O   UNL     1     -12.863  12.436  64.464  0.00  0.00    -0.273 OA
ATOM      7  C   UNL     1     -10.748  13.574  64.538  0.00  0.00    +0.096 C 
ATOM      8  C   UNL     1     -11.789  14.293  66.614  0.00  0.00    +0.010 C 
ENDROOT
BRANCH   1  10
ATOM      9  C   UNL     1      -9.718  15.826  67.284  0.00  0.00    +0.001 C 
ATOM     10  C   UNL     1      -9.602  15.334  65.926  0.00  0.00    +0.009 C 
ENDBRANCH   1  10
TORSDOF 1
ENDMDL
MODEL 2
REMARK VINA RESULT:      -4.6      6.419      7.567
REMARK  Name = 
REMARK  1 active torsions:
REMARK  status: ('A' for Active; 'I' for Inactive)
REMARK    1  A    between atoms: C_2  and  C_3
REMARK                            x       y       z     vdW  Elec       q    Type
REMARK                         _______ _______ _______ _____ _____    ______ ____
ROOT
ATOM      1  C   UNL     1     -13.266  14.340  71.952  0.00  0.00    +0.080 C 
ATOM      2  C   UNL     1     -12.622  15.198  72.993  0.00  0.00    +0.247 C 
ATOM      3  O   UNL     1     -12.318  14.730  74.131  0.00  0.00    -0.273 OA
ATOM      4  N   UNL     1     -11.884  16.157  72.224  0.00  0.00    -0.145 NA
ATOM      5  C   UNL     1     -11.752  15.696  70.873  0.00  0.00    +0.248 C 
ATOM      6  O   UNL     1     -11.992  16.364  69.820  0.00  0.00    -0.273 OA
ATOM      7  C   UNL     1     -12.122  14.246  70.948  0.00  0.00    +0.096 C 
ATOM      8  C   UNL     1     -14.347  15.155  71.308  0.00  0.00    +0.010 C 
ENDROOT
BRANCH   1  10
ATOM      9  C   UNL     1     -13.052  11.960  71.716  0.00  0.00    +0.001 C 
ATOM     10  C   UNL     1     -13.707  13.013  72.467  0.00  0.00    +0.009 C 
ENDBRANCH   1  10
TORSDOF 1
ENDMDL
MODEL 3
REMARK VINA RESULT:      -4.5      1.673      1.766
REMARK  Name = 
REMARK  1 active torsions:
REMARK  status: ('A' for Active; 'I' for Inactive)
REMARK    1  A    between atoms: C_2  and  C_3
REMARK                            x       y       z     vdW  Elec       q    Type
REMARK                         _______ _______ _______ _____ _____    ______ ____
ROOT
ATOM      1  C   UNL     1     -11.291  14.467  65.813  0.00  0.00    +0.080 C 
ATOM      2  C   UNL     1     -12.476  14.237  64.931  0.00  0.00    +0.247 C 
ATOM      3  O   UNL     1     -12.618  14.875  63.845  0.00  0.00    -0.273 OA
ATOM      4  N   UNL     1     -12.819  12.868  65.185  0.00  0.00    -0.145 NA
ATOM      5  C   UNL     1     -11.725  12.207  65.834  0.00  0.00    +0.248 C 
ATOM      6  O   UNL     1     -11.790  11.487  66.878  0.00  0.00    -0.273 OA
ATOM      7  C   UNL     1     -10.568  13.137  65.630  0.00  0.00    +0.096 C 
ATOM      8  C   UNL     1     -11.788  14.504  67.228  0.00  0.00    +0.010 C 
ENDROOT
BRANCH   1  10
ATOM      9  C   UNL     1      -9.185  15.590  66.077  0.00  0.00    +0.001 C 
ATOM     10  C   UNL     1     -10.471  15.643  65.409  0.00  0.00    +0.009 C 
ENDBRANCH   1  10
TORSDOF 1
ENDMDL
MODEL 4
REMARK VINA RESULT:      -4.4      2.088      3.744
REMARK  Name = 
REMARK  1 active torsions:
REMARK  status: ('A' for Active; 'I' for Inactive)
REMARK    1  A    between atoms: C_2  and  C_3
REMARK                            x       y       z     vdW  Elec       q    Type
REMARK                         _______ _______ _______ _____ _____    ______ ____
ROOT
ATOM      1  C   UNL     1     -11.320  12.313  64.613  0.00  0.00    +0.080 C 
ATOM      2  C   UNL     1     -12.125  12.416  65.868  0.00  0.00    +0.247 C 
ATOM      3  O   UNL     1     -11.778  11.801  66.922  0.00  0.00    -0.273 OA
ATOM      4  N   UNL     1     -12.713  13.721  65.780  0.00  0.00    -0.145 NA
ATOM      5  C   UNL     1     -12.026  14.497  64.789  0.00  0.00    +0.248 C 
ATOM      6  O   UNL     1     -12.557  15.168  63.852  0.00  0.00    -0.273 OA
ATOM      7  C   UNL     1     -10.761  13.730  64.545  0.00  0.00    +0.096 C 
ATOM      8  C   UNL     1     -12.284  12.167  63.475  0.00  0.00    +0.010 C 
ENDROOT
BRANCH   1  10
ATOM      9  C   UNL     1     -10.031  10.733  63.344  0.00  0.00    +0.001 C 
ATOM     10  C   UNL     1     -10.261  11.266  64.673  0.00  0.00    +0.009 C 
ENDBRANCH   1  10
TORSDOF 1
ENDMDL
MODEL 5
REMARK VINA RESULT:      -4.3      2.101      3.616
REMARK  Name = 
REMARK  1 active torsions:
REMARK  status: ('A' for Active; 'I' for Inactive)
REMARK    1  A    between atoms: C_2  and  C_3
REMARK                            x       y       z     vdW  Elec       q    Type
REMARK                         _______ _______ _______ _____ _____    ______ ____
ROOT
ATOM      1  C   UNL     1     -11.181  12.447  64.821  0.00  0.00    +0.080 C 
ATOM      2  C   UNL     1     -12.488  12.850  64.217  0.00  0.00    +0.247 C 
ATOM      3  O   UNL     1     -13.143  12.053  63.480  0.00  0.00    -0.273 OA
ATOM      4  N   UNL     1     -13.016  13.788  65.165  0.00  0.00    -0.145 NA
ATOM      5  C   UNL     1     -12.313  13.669  66.408  0.00  0.00    +0.248 C 
ATOM      6  O   UNL     1     -11.815  14.618  67.089  0.00  0.00    -0.273 OA
ATOM      7  C   UNL     1     -11.586  12.364  66.288  0.00  0.00    +0.096 C 
ATOM      8  C   UNL     1     -10.249  13.614  64.689  0.00  0.00    +0.010 C 
ENDROOT
BRANCH   1  10
ATOM      9  C   UNL     1      -9.765  11.430  63.169  0.00  0.00    +0.001 C 
ATOM     10  C   UNL     1     -10.652  11.161  64.284  0.00  0.00    +0.009 C 
ENDBRANCH   1  10
TORSDOF 1
ENDMDL
MODEL 6
REMARK VINA RESULT:      -4.2      1.920      3.221
REMARK  Name = 
REMARK  1 active torsions:
REMARK  status: ('A' for Active; 'I' for Inactive)
REMARK    1  A    between atoms: C_2  and  C_3
REMARK                            x       y       z     vdW  Elec       q    Type
REMARK                         _______ _______ _______ _____ _____    ______ ____
ROOT
ATOM      1  C   UNL     1     -11.412  14.265  64.953  0.00  0.00    +0.080 C 
ATOM      2  C   UNL     1     -11.026  15.703  64.824  0.00  0.00    +0.247 C 
ATOM      3  O   UNL     1     -11.596  16.462  63.983  0.00  0.00    -0.273 OA
ATOM      4  N   UNL     1     -10.582  16.048  66.143  0.00  0.00    -0.145 NA
ATOM      5  C   UNL     1     -11.029  15.058  67.079  0.00  0.00    +0.248 C 
ATOM      6  O   UNL     1     -10.322  14.476  67.958  0.00  0.00    -0.273 OA
ATOM      7  C   UNL     1     -12.076  14.296  66.325  0.00  0.00    +0.096 C 
ATOM      8  C   UNL     1     -10.147  13.474  65.096  0.00  0.00    +0.010 C 
ENDROOT
BRANCH   1  10
ATOM      9  C   UNL     1     -12.000  12.425  63.526  0.00  0.00    +0.001 C 
ATOM     10  C   UNL     1     -12.322  13.796  63.870  0.00  0.00    +0.009 C 
ENDBRANCH   1  10
TORSDOF 1
ENDMDL
MODEL 7
REMARK VINA RESULT:      -4.1      1.858      2.325
REMARK  Name = 
REMARK  1 active torsions:
REMARK  status: ('A' for Active; 'I' for Inactive)
REMARK    1  A    between atoms: C_2  and  C_3
REMARK                            x       y       z     vdW  Elec       q    Type
REMARK                         _______ _______ _______ _____ _____    ______ ____
ROOT
ATOM      1  C   UNL     1     -11.308  13.089  65.700  0.00  0.00    +0.080 C 
ATOM      2  C   UNL     1     -12.714  13.134  65.194  0.00  0.00    +0.247 C 
ATOM      3  O   UNL     1     -13.459  14.135  65.418  0.00  0.00    -0.273 OA
ATOM      4  N   UNL     1     -12.663  12.341  64.001  0.00  0.00    -0.145 NA
ATOM      5  C   UNL     1     -11.301  12.166  63.592  0.00  0.00    +0.248 C 
ATOM      6  O   UNL     1     -10.740  11.071  63.278  0.00  0.00    -0.273 OA
ATOM      7  C   UNL     1     -10.552  13.198  64.380  0.00  0.00    +0.096 C 
ATOM      8  C   UNL     1     -11.069  11.706  66.229  0.00  0.00    +0.010 C 
ENDROOT
BRANCH   1  10
ATOM      9  C   UNL     1     -10.072  15.121  66.028  0.00  0.00    +0.001 C 
ATOM     10  C   UNL     1     -10.986  14.187  66.654  0.00  0.00    +0.009 C 
ENDBRANCH   1  10
TORSDOF 1
ENDMDL
MODEL 8
REMARK VINA RESULT:      -4.1      2.018      3.146
REMARK  Name = 
REMARK  1 active torsions:
REMARK  status: ('A' for Active; 'I' for Inactive)
REMARK    1  A    between atoms: C_2  and  C_3
REMARK                            x       y       z     vdW  Elec       q    Type
REMARK                         _______ _______ _______ _____ _____    ______ ____
ROOT
ATOM      1  C   UNL     1     -11.093  13.528  66.739  0.00  0.00    +0.080 C 
ATOM      2  C   UNL     1     -11.620  12.169  66.405  0.00  0.00    +0.247 C 
ATOM      3  O   UNL     1     -11.818  11.302  67.309  0.00  0.00    -0.273 OA
ATOM      4  N   UNL     1     -12.417  12.401  65.235  0.00  0.00    -0.145 NA
ATOM      5  C   UNL     1     -12.686  13.802  65.102  0.00  0.00    +0.248 C 
ATOM      6  O   UNL     1     -12.541  14.503  64.053  0.00  0.00    -0.273 OA
ATOM      7  C   UNL     1     -12.331  14.367  66.443  0.00  0.00    +0.096 C 
ATOM      8  C   UNL     1     -10.068  13.877  65.702  0.00  0.00    +0.010 C 
ENDROOT
BRANCH   1  10
ATOM      9  C   UNL     1     -11.560  14.458  68.903  0.00  0.00    +0.001 C 
ATOM     10  C   UNL     1     -10.623  13.650  68.148  0.00  0.00    +0.009 C 
ENDBRANCH   1  10
TORSDOF 1
ENDMDL
MODEL 9
REMARK VINA RESULT:      -3.9      2.272      3.509
REMARK  Name = 
REMARK  1 active torsions:
REMARK  status: ('A' for Active; 'I' for Inactive)
REMARK    1  A    between atoms: C_2  and  C_3
REMARK                            x       y       z     vdW  Elec       q    Type
REMARK                         _______ _______ _______ _____ _____    ______ ____
ROOT
ATOM      1  C   UNL     1     -10.935  12.382  65.547  0.00  0.00    +0.080 C 
ATOM      2  C   UNL     1     -10.516  11.424  64.478  0.00  0.00    +0.247 C 
ATOM      3  O   UNL     1     -10.197  10.229  64.757  0.00  0.00    -0.273 OA
ATOM      4  N   UNL     1     -11.229  11.884  63.322  0.00  0.00    -0.145 NA
ATOM      5  C   UNL     1     -12.283  12.769  63.722  0.00  0.00    +0.248 C 
ATOM      6  O   UNL     1     -12.537  13.913  63.233  0.00  0.00    -0.273 OA
ATOM      7  C   UNL     1     -12.411  12.534  65.197  0.00  0.00    +0.096 C 
ATOM      8  C   UNL     1     -10.277  13.696  65.251  0.00  0.00    +0.010 C 
ENDROOT
BRANCH   1  10
ATOM      9  C   UNL     1     -11.710  12.413  67.819  0.00  0.00    +0.001 C 
ATOM     10  C   UNL     1     -10.708  11.866  66.926  0.00  0.00    +0.009 C 
ENDBRANCH   1  10
TORSDOF 1
ENDMDL
