MODEL 1
REMARK VINA RESULT:      -2.9      0.000      0.000
REMARK  Name = 
REMARK  0 active torsions:
REMARK  status: ('A' for Active; 'I' for Inactive)
REMARK                            x       y       z     vdW  Elec       q    Type
REMARK                         _______ _______ _______ _____ _____    ______ ____
ROOT
ATOM      1  N   UNL     1      -3.744  20.152  72.315  0.00  0.00    -0.066 NA
ATOM      2  C   UNL     1      -4.398  21.270  71.746  0.00  0.00    +0.379 C 
ATOM      3  O   UNL     1      -4.388  22.344  72.399  0.00  0.00    -0.246 OA
ATOM      4  N   UNL     1      -5.051  21.174  70.479  0.00  0.00    -0.066 NA
ENDROOT
TORSDOF 0
ENDMDL
MODEL 2
REMARK VINA RESULT:      -2.9      0.058      1.751
REMARK  Name = 
REMARK  0 active torsions:
REMARK  status: ('A' for Active; 'I' for Inactive)
REMARK                            x       y       z     vdW  Elec       q    Type
REMARK                         _______ _______ _______ _____ _____    ______ ____
ROOT
ATOM      1  N   UNL     1      -4.989  21.221  70.505  0.00  0.00    -0.066 NA
ATOM      2  C   UNL     1      -4.367  21.282  71.774  0.00  0.00    +0.379 C 
ATOM      3  O   UNL     1      -4.424  22.371  72.398  0.00  0.00    -0.246 OA
ATOM      4  N   UNL     1      -3.693  20.146  72.318  0.00  0.00    -0.066 NA
ENDROOT
TORSDOF 0
ENDMDL
MODEL 3
REMARK VINA RESULT:      -2.8      1.761      1.761
REMARK  Name = 
REMARK  0 active torsions:
REMARK  status: ('A' for Active; 'I' for Inactive)
REMARK                            x       y       z     vdW  Elec       q    Type
REMARK                         _______ _______ _______ _____ _____    ______ ____
ROOT
ATOM      1  N   UNL     1      -4.361  22.193  72.147  0.00  0.00    -0.066 NA
ATOM      2  C   UNL     1      -4.668  20.831  71.914  0.00  0.00    +0.379 C 
ATOM      3  O   UNL     1      -3.870  19.971  72.362  0.00  0.00    -0.246 OA
ATOM      4  N   UNL     1      -5.839  20.455  71.187  0.00  0.00    -0.066 NA
ENDROOT
TORSDOF 0
ENDMDL
MODEL 4
REMARK VINA RESULT:      -2.7      5.074      5.091
REMARK  Name = 
REMARK  0 active torsions:
REMARK  status: ('A' for Active; 'I' for Inactive)
REMARK                            x       y       z     vdW  Elec       q    Type
REMARK                         _______ _______ _______ _____ _____    ______ ____
ROOT
ATOM      1  N   UNL     1      -5.839  24.942  75.354  0.00  0.00    -0.066 NA
ATOM      2  C   UNL     1      -4.926  25.106  74.285  0.00  0.00    +0.379 C 
ATOM      3  O   UNL     1      -5.245  24.623  73.170  0.00  0.00    -0.246 OA
ATOM      4  N   UNL     1      -3.686  25.789  74.475  0.00  0.00    -0.066 NA
ENDROOT
TORSDOF 0
ENDMDL
MODEL 5
REMARK VINA RESULT:      -2.6     13.379     13.587
REMARK  Name = 
REMARK  0 active torsions:
REMARK  status: ('A' for Active; 'I' for Inactive)
REMARK                            x       y       z     vdW  Elec       q    Type
REMARK                         _______ _______ _______ _____ _____    ______ ____
ROOT
ATOM      1  N   UNL     1     -12.049  12.209  66.042  0.00  0.00    -0.066 NA
ATOM      2  C   UNL     1     -12.673  12.889  64.969  0.00  0.00    +0.379 C 
ATOM      3  O   UNL     1     -13.141  14.032  65.200  0.00  0.00    -0.246 OA
ATOM      4  N   UNL     1     -12.772  12.290  63.676  0.00  0.00    -0.066 NA
ENDROOT
TORSDOF 0
ENDMDL
MODEL 6
REMARK VINA RESULT:      -2.6     13.363     13.669
REMARK  Name = 
REMARK  0 active torsions:
REMARK  status: ('A' for Active; 'I' for Inactive)
REMARK                            x       y       z     vdW  Elec       q    Type
REMARK                         _______ _______ _______ _____ _____    ______ ____
ROOT
ATOM      1  N   UNL     1     -12.778  12.337  63.709  0.00  0.00    -0.066 NA
ATOM      2  C   UNL     1     -12.661  12.888  65.007  0.00  0.00    +0.379 C 
ATOM      3  O   UNL     1     -13.141  14.033  65.197  0.00  0.00    -0.246 OA
ATOM      4  N   UNL     1     -12.012  12.168  66.056  0.00  0.00    -0.066 NA
ENDROOT
TORSDOF 0
ENDMDL
MODEL 7
REMARK VINA RESULT:      -2.6     11.808     11.908
REMARK  Name = 
REMARK  0 active torsions:
REMARK  status: ('A' for Active; 'I' for Inactive)
REMARK                            x       y       z     vdW  Elec       q    Type
REMARK                         _______ _______ _______ _____ _____    ______ ____
ROOT
ATOM      1  N   UNL     1     -11.309  16.769  64.276  0.00  0.00    -0.066 NA
ATOM      2  C   UNL     1     -11.509  15.378  64.449  0.00  0.00    +0.379 C 
ATOM      3  O   UNL     1     -12.603  14.896  64.063  0.00  0.00    -0.246 OA
ATOM      4  N   UNL     1     -10.503  14.560  65.049  0.00  0.00    -0.066 NA
ENDROOT
TORSDOF 0
ENDMDL
MODEL 8
REMARK VINA RESULT:      -2.6     13.450     13.754
REMARK  Name = 
REMARK  0 active torsions:
REMARK  status: ('A' for Active; 'I' for Inactive)
REMARK                            x       y       z     vdW  Elec       q    Type
REMARK                         _______ _______ _______ _____ _____    ______ ____
ROOT
ATOM      1  N   UNL     1     -12.793  12.202  63.645  0.00  0.00    -0.066 NA
ATOM      2  C   UNL     1     -12.629  12.780  64.927  0.00  0.00    +0.379 C 
ATOM      3  O   UNL     1     -12.112  12.068  65.823  0.00  0.00    -0.246 OA
ATOM      4  N   UNL     1     -13.045  14.122  65.187  0.00  0.00    -0.066 NA
ENDROOT
TORSDOF 0
ENDMDL
MODEL 9
REMARK VINA RESULT:      -2.6     11.468     11.756
REMARK  Name = 
REMARK  0 active torsions:
REMARK  status: ('A' for Active; 'I' for Inactive)
REMARK                            x       y       z     vdW  Elec       q    Type
REMARK                         _______ _______ _______ _____ _____    ______ ____
ROOT
ATOM      1  N   UNL     1     -10.578  14.867  65.284  0.00  0.00    -0.066 NA
ATOM      2  C   UNL     1     -11.551  15.473  64.454  0.00  0.00    +0.379 C 
ATOM      3  O   UNL     1     -11.407  16.691  64.183  0.00  0.00    -0.246 OA
ATOM      4  N   UNL     1     -12.660  14.724  63.952  0.00  0.00    -0.066 NA
ENDROOT
TORSDOF 0
ENDMDL
