MODEL 1
REMARK VINA RESULT:      -3.5      0.000      0.000
REMARK  Name = 
REMARK  2 active torsions:
REMARK  status: ('A' for Active; 'I' for Inactive)
REMARK    1  A    between atoms: S_2  and  C_5
REMARK    2  A    between atoms: C_5  and  C_6
REMARK                            x       y       z     vdW  Elec       q    Type
REMARK                         _______ _______ _______ _____ _____    ______ ____
ROOT
ATOM      1  O   UNL     1     -14.472  15.920  72.399  0.00  0.00    -0.371 OA
ATOM      2  S   UNL     1     -13.117  15.541  72.950  0.00  0.00    -0.106 S 
ATOM      3  O   UNL     1     -12.771  16.402  74.355  0.00  0.00    -0.291 OA
ATOM      4  O   UNL     1     -13.187  14.058  73.237  0.00  0.00    -0.371 OA
ENDROOT
BRANCH   2   5
ATOM      5  C   UNL     1     -11.811  15.800  71.815  0.00  0.00    +0.138 C 
BRANCH   5   6
ATOM      6  C   UNL     1     -12.215  15.700  70.371  0.00  0.00    +0.092 C 
ATOM      7  S   UNL     1     -12.001  14.029  69.704  0.00  0.00    -0.080 S 
ENDBRANCH   5   6
ENDBRANCH   2   5
TORSDOF 2
ENDMDL
MODEL 2
REMARK VINA RESULT:      -3.5      0.163      1.709
REMARK  Name = 
REMARK  2 active torsions:
REMARK  status: ('A' for Active; 'I' for Inactive)
REMARK    1  A    between atoms: S_2  and  C_5
REMARK    2  A    between atoms: C_5  and  C_6
REMARK                            x       y       z     vdW  Elec       q    Type
REMARK                         _______ _______ _______ _____ _____    ______ ____
ROOT
ATOM      1  O   UNL     1     -13.137  14.060  73.311  0.00  0.00    -0.371 OA
ATOM      2  S   UNL     1     -13.157  15.515  72.901  0.00  0.00    -0.106 S 
ATOM      3  O   UNL     1     -14.632  15.928  72.201  0.00  0.00    -0.291 OA
ATOM      4  O   UNL     1     -12.929  16.305  74.170  0.00  0.00    -0.371 OA
ENDROOT
BRANCH   2   5
ATOM      5  C   UNL     1     -11.882  15.935  71.779  0.00  0.00    +0.138 C 
BRANCH   5   6
ATOM      6  C   UNL     1     -12.232  15.721  70.333  0.00  0.00    +0.092 C 
ATOM      7  S   UNL     1     -12.022  13.996  69.818  0.00  0.00    -0.080 S 
ENDBRANCH   5   6
ENDBRANCH   2   5
TORSDOF 2
ENDMDL
MODEL 3
REMARK VINA RESULT:      -3.4      0.484      1.858
REMARK  Name = 
REMARK  2 active torsions:
REMARK  status: ('A' for Active; 'I' for Inactive)
REMARK    1  A    between atoms: S_2  and  C_5
REMARK    2  A    between atoms: C_5  and  C_6
REMARK                            x       y       z     vdW  Elec       q    Type
REMARK                         _______ _______ _______ _____ _____    ______ ____
ROOT
ATOM      1  O   UNL     1     -12.558  15.566  74.414  0.00  0.00    -0.371 OA
ATOM      2  S   UNL     1     -13.045  15.275  73.013  0.00  0.00    -0.106 S 
ATOM      3  O   UNL     1     -13.481  13.658  72.844  0.00  0.00    -0.291 OA
ATOM      4  O   UNL     1     -14.240  16.176  72.795  0.00  0.00    -0.371 OA
ENDROOT
BRANCH   2   5
ATOM      5  C   UNL     1     -11.864  15.655  71.778  0.00  0.00    +0.138 C 
BRANCH   5   6
ATOM      6  C   UNL     1     -12.398  15.608  70.374  0.00  0.00    +0.092 C 
ATOM      7  S   UNL     1     -11.893  14.109  69.490  0.00  0.00    -0.080 S 
ENDBRANCH   5   6
ENDBRANCH   2   5
TORSDOF 2
ENDMDL
MODEL 4
REMARK VINA RESULT:      -3.4      6.829      7.843
REMARK  Name = 
REMARK  2 active torsions:
REMARK  status: ('A' for Active; 'I' for Inactive)
REMARK    1  A    between atoms: S_2  and  C_5
REMARK    2  A    between atoms: C_5  and  C_6
REMARK                            x       y       z     vdW  Elec       q    Type
REMARK                         _______ _______ _______ _____ _____    ______ ____
ROOT
ATOM      1  O   UNL     1     -12.506  13.567  63.190  0.00  0.00    -0.371 OA
ATOM      2  S   UNL     1     -12.151  14.484  64.337  0.00  0.00    -0.106 S 
ATOM      3  O   UNL     1     -12.240  16.100  63.873  0.00  0.00    -0.291 OA
ATOM      4  O   UNL     1     -13.154  14.187  65.430  0.00  0.00    -0.371 OA
ENDROOT
BRANCH   2   5
ATOM      5  C   UNL     1     -10.554  14.190  64.990  0.00  0.00    +0.138 C 
BRANCH   5   6
ATOM      6  C   UNL     1      -9.927  15.382  65.656  0.00  0.00    +0.092 C 
ATOM      7  S   UNL     1      -9.997  15.282  67.464  0.00  0.00    -0.080 S 
ENDBRANCH   5   6
ENDBRANCH   2   5
TORSDOF 2
ENDMDL
MODEL 5
REMARK VINA RESULT:      -3.3      7.214      8.162
REMARK  Name = 
REMARK  2 active torsions:
REMARK  status: ('A' for Active; 'I' for Inactive)
REMARK    1  A    between atoms: S_2  and  C_5
REMARK    2  A    between atoms: C_5  and  C_6
REMARK                            x       y       z     vdW  Elec       q    Type
REMARK                         _______ _______ _______ _____ _____    ______ ____
ROOT
ATOM      1  O   UNL     1     -13.211  12.513  64.710  0.00  0.00    -0.371 OA
ATOM      2  S   UNL     1     -12.245  13.657  64.913  0.00  0.00    -0.106 S 
ATOM      3  O   UNL     1     -12.650  14.973  63.944  0.00  0.00    -0.291 OA
ATOM      4  O   UNL     1     -12.340  14.025  66.378  0.00  0.00    -0.371 OA
ENDROOT
BRANCH   2   5
ATOM      5  C   UNL     1     -10.581  13.226  64.584  0.00  0.00    +0.138 C 
BRANCH   5   6
ATOM      6  C   UNL     1     -10.415  12.105  63.598  0.00  0.00    +0.092 C 
ATOM      7  S   UNL     1      -9.985  10.537  64.398  0.00  0.00    -0.080 S 
ENDBRANCH   5   6
ENDBRANCH   2   5
TORSDOF 2
ENDMDL
MODEL 6
REMARK VINA RESULT:      -3.3      9.397      9.927
REMARK  Name = 
REMARK  2 active torsions:
REMARK  status: ('A' for Active; 'I' for Inactive)
REMARK    1  A    between atoms: S_2  and  C_5
REMARK    2  A    between atoms: C_5  and  C_6
REMARK                            x       y       z     vdW  Elec       q    Type
REMARK                         _______ _______ _______ _____ _____    ______ ____
ROOT
ATOM      1  O   UNL     1      -3.625  20.023  72.487  0.00  0.00    -0.371 OA
ATOM      2  S   UNL     1      -4.540  20.924  71.690  0.00  0.00    -0.106 S 
ATOM      3  O   UNL     1      -6.140  20.410  71.794  0.00  0.00    -0.291 OA
ATOM      4  O   UNL     1      -4.383  22.305  72.287  0.00  0.00    -0.371 OA
ENDROOT
BRANCH   2   5
ATOM      5  C   UNL     1      -4.107  21.027  69.998  0.00  0.00    +0.138 C 
BRANCH   5   6
ATOM      6  C   UNL     1      -5.259  20.841  69.051  0.00  0.00    +0.092 C 
ATOM      7  S   UNL     1      -5.374  19.144  68.425  0.00  0.00    -0.080 S 
ENDBRANCH   5   6
ENDBRANCH   2   5
TORSDOF 2
ENDMDL
MODEL 7
REMARK VINA RESULT:      -3.3      6.899      7.804
REMARK  Name = 
REMARK  2 active torsions:
REMARK  status: ('A' for Active; 'I' for Inactive)
REMARK    1  A    between atoms: S_2  and  C_5
REMARK    2  A    between atoms: C_5  and  C_6
REMARK                            x       y       z     vdW  Elec       q    Type
REMARK                         _______ _______ _______ _____ _____    ______ ____
ROOT
ATOM      1  O   UNL     1     -12.225  12.090  66.187  0.00  0.00    -0.371 OA
ATOM      2  S   UNL     1     -12.285  12.999  64.981  0.00  0.00    -0.106 S 
ATOM      3  O   UNL     1     -12.808  12.163  63.616  0.00  0.00    -0.291 OA
ATOM      4  O   UNL     1     -13.260  14.098  65.339  0.00  0.00    -0.371 OA
ENDROOT
BRANCH   2   5
ATOM      5  C   UNL     1     -10.752  13.754  64.606  0.00  0.00    +0.138 C 
BRANCH   5   6
ATOM      6  C   UNL     1     -10.630  15.176  65.074  0.00  0.00    +0.092 C 
ATOM      7  S   UNL     1     -10.113  15.294  66.807  0.00  0.00    -0.080 S 
ENDBRANCH   5   6
ENDBRANCH   2   5
TORSDOF 2
ENDMDL
MODEL 8
REMARK VINA RESULT:      -3.2      9.654     10.092
REMARK  Name = 
REMARK  2 active torsions:
REMARK  status: ('A' for Active; 'I' for Inactive)
REMARK    1  A    between atoms: S_2  and  C_5
REMARK    2  A    between atoms: C_5  and  C_6
REMARK                            x       y       z     vdW  Elec       q    Type
REMARK                         _______ _______ _______ _____ _____    ______ ____
ROOT
ATOM      1  O   UNL     1      -4.495  22.451  72.332  0.00  0.00    -0.371 OA
ATOM      2  S   UNL     1      -4.454  21.073  71.712  0.00  0.00    -0.106 S 
ATOM      3  O   UNL     1      -3.421  20.053  72.565  0.00  0.00    -0.291 OA
ATOM      4  O   UNL     1      -5.875  20.555  71.761  0.00  0.00    -0.371 OA
ENDROOT
BRANCH   2   5
ATOM      5  C   UNL     1      -3.953  21.082  70.036  0.00  0.00    +0.138 C 
BRANCH   5   6
ATOM      6  C   UNL     1      -4.713  20.130  69.155  0.00  0.00    +0.092 C 
ATOM      7  S   UNL     1      -5.690  20.986  67.892  0.00  0.00    -0.080 S 
ENDBRANCH   5   6
ENDBRANCH   2   5
TORSDOF 2
ENDMDL
MODEL 9
REMARK VINA RESULT:      -3.2      7.135      8.128
REMARK  Name = 
REMARK  2 active torsions:
REMARK  status: ('A' for Active; 'I' for Inactive)
REMARK    1  A    between atoms: S_2  and  C_5
REMARK    2  A    between atoms: C_5  and  C_6
REMARK                            x       y       z     vdW  Elec       q    Type
REMARK                         _______ _______ _______ _____ _____    ______ ____
ROOT
ATOM      1  O   UNL     1     -10.821  12.564  63.469  0.00  0.00    -0.371 OA
ATOM      2  S   UNL     1     -12.105  12.962  64.160  0.00  0.00    -0.106 S 
ATOM      3  O   UNL     1     -12.514  14.558  63.811  0.00  0.00    -0.291 OA
ATOM      4  O   UNL     1     -13.164  12.014  63.641  0.00  0.00    -0.371 OA
ENDROOT
BRANCH   2   5
ATOM      5  C   UNL     1     -12.040  12.781  65.899  0.00  0.00    +0.138 C 
BRANCH   5   6
ATOM      6  C   UNL     1     -12.091  14.076  66.660  0.00  0.00    +0.092 C 
ATOM      7  S   UNL     1     -11.797  13.850  68.433  0.00  0.00    -0.080 S 
ENDBRANCH   5   6
ENDBRANCH   2   5
TORSDOF 2
ENDMDL
