MODEL 1
REMARK VINA RESULT:      -5.6      0.000      0.000
REMARK  Name = 
REMARK  10 active torsions:
REMARK  status: ('A' for Active; 'I' for Inactive)
REMARK    1  A    between atoms: C_2  and  C_3
REMARK    2  A    between atoms: C_3  and  C_4
REMARK    3  A    between atoms: C_4  and  C_5
REMARK    4  A    between atoms: C_5  and  C_6
REMARK    5  A    between atoms: C_5  and  C_8
REMARK    6  A    between atoms: C_8  and  O_9
REMARK    7  A    between atoms: O_9  and  C_10
REMARK    8  A    between atoms: C_10  and  C_12
REMARK    9  A    between atoms: C_13  and  C_14
REMARK   10  A    between atoms: C_17  and  O_18
REMARK                            x       y       z     vdW  Elec       q    Type
REMARK                         _______ _______ _______ _____ _____    ______ ____
ROOT
ATOM      1  C   UNL     1     -11.573  12.114  67.328  0.00  0.00    +0.341 C 
ATOM      2  O   UNL     1     -12.211  12.141  66.241  0.00  0.00    -0.245 OA
ENDROOT
BRANCH   1   3
ATOM      3  C   UNL     1     -11.698  10.919  68.138  0.00  0.00    +0.082 C 
ATOM      4  C   UNL     1     -10.893  10.559  69.104  0.00  0.00    +0.007 C 
BRANCH   4   5
ATOM      5  C   UNL     1     -11.324  10.362  70.497  0.00  0.00    +0.000 A 
ATOM      6  C   UNL     1     -11.217   9.113  71.099  0.00  0.00    +0.003 A 
ATOM      7  C   UNL     1     -12.187   8.654  71.983  0.00  0.00    +0.037 A 
ATOM      8  C   UNL     1     -13.398   9.323  72.104  0.00  0.00    +0.139 A 
ATOM      9  C   UNL     1     -13.383  10.652  71.757  0.00  0.00    +0.037 A 
ATOM     10  C   UNL     1     -12.338  11.169  71.003  0.00  0.00    +0.003 A 
BRANCH   8  11
ATOM     11  O   UNL     1     -14.584   8.663  72.325  0.00  0.00    -0.471 OA
ATOM     12  C   UNL     1     -14.746   7.316  71.896  0.00  0.00    +0.252 C 
ENDBRANCH   8  11
ENDBRANCH   4   5
ENDBRANCH   1   3
BRANCH   1  13
ATOM     13  O   UNL     1     -10.999  13.289  67.759  0.00  0.00    -0.445 OA
BRANCH  13  14
ATOM     14  C   UNL     1     -11.817  14.340  68.258  0.00  0.00    +0.209 C 
BRANCH  14  15
ATOM     15  C   UNL     1     -11.080  14.591  69.719  0.00  0.00    +0.044 C 
BRANCH  15  16
ATOM     16  C   UNL     1     -11.117  16.235  69.515  0.00  0.00    +0.004 C 
ATOM     17  C   UNL     1      -9.821  16.558  68.829  0.00  0.00    +0.000 C 
ENDBRANCH  15  16
BRANCH  15  18
ATOM     18  C   UNL     1     -12.534  14.608  70.512  0.00  0.00    +0.004 C 
BRANCH  18  19
ATOM     19  C   UNL     1     -12.182  15.448  71.706  0.00  0.00    +0.000 C 
BRANCH  19  21
ATOM     20  C   UNL     1     -12.486  15.463  74.170  0.00  0.00    +0.000 C 
ATOM     21  C   UNL     1     -13.047  15.047  72.868  0.00  0.00    +0.000 C 
ENDBRANCH  19  21
ENDBRANCH  18  19
ENDBRANCH  15  18
ENDBRANCH  14  15
ENDBRANCH  13  14
ENDBRANCH   1  13
TORSDOF 10
ENDMDL
MODEL 2
REMARK VINA RESULT:      -5.5      4.540      6.208
REMARK  Name = 
REMARK  10 active torsions:
REMARK  status: ('A' for Active; 'I' for Inactive)
REMARK    1  A    between atoms: C_2  and  C_3
REMARK    2  A    between atoms: C_3  and  C_4
REMARK    3  A    between atoms: C_4  and  C_5
REMARK    4  A    between atoms: C_5  and  C_6
REMARK    5  A    between atoms: C_5  and  C_8
REMARK    6  A    between atoms: C_8  and  O_9
REMARK    7  A    between atoms: O_9  and  C_10
REMARK    8  A    between atoms: C_10  and  C_12
REMARK    9  A    between atoms: C_13  and  C_14
REMARK   10  A    between atoms: C_17  and  O_18
REMARK                            x       y       z     vdW  Elec       q    Type
REMARK                         _______ _______ _______ _____ _____    ______ ____
ROOT
ATOM      1  C   UNL     1     -10.886  16.188  64.984  0.00  0.00    +0.341 C 
ATOM      2  O   UNL     1     -11.602  16.501  63.996  0.00  0.00    -0.245 OA
ENDROOT
BRANCH   1   3
ATOM      3  C   UNL     1     -11.287  15.024  65.749  0.00  0.00    +0.082 C 
ATOM      4  C   UNL     1     -12.278  14.221  65.461  0.00  0.00    +0.007 C 
BRANCH   4   5
ATOM      5  C   UNL     1     -12.118  12.781  65.207  0.00  0.00    +0.000 A 
ATOM      6  C   UNL     1     -11.419  11.978  66.103  0.00  0.00    +0.003 A 
ATOM      7  C   UNL     1     -10.609  10.940  65.659  0.00  0.00    +0.037 A 
ATOM      8  C   UNL     1     -10.291  10.826  64.312  0.00  0.00    +0.139 A 
ATOM      9  C   UNL     1     -11.178  11.403  63.438  0.00  0.00    +0.037 A 
ATOM     10  C   UNL     1     -12.105  12.332  63.890  0.00  0.00    +0.003 A 
BRANCH   8  11
ATOM     11  O   UNL     1      -9.063  10.379  63.883  0.00  0.00    -0.471 OA
ATOM     12  C   UNL     1      -8.771  10.313  62.491  0.00  0.00    +0.252 C 
ENDBRANCH   8  11
ENDBRANCH   4   5
ENDBRANCH   1   3
BRANCH   1  13
ATOM     13  O   UNL     1      -9.927  17.089  65.388  0.00  0.00    -0.445 OA
BRANCH  13  14
ATOM     14  C   UNL     1     -10.235  18.063  66.378  0.00  0.00    +0.209 C 
BRANCH  14  15
ATOM     15  C   UNL     1      -9.108  17.657  67.522  0.00  0.00    +0.044 C 
BRANCH  15  16
ATOM     16  C   UNL     1      -8.749  19.249  67.807  0.00  0.00    +0.004 C 
ATOM     17  C   UNL     1     -10.058  19.966  67.640  0.00  0.00    +0.000 C 
ENDBRANCH  15  16
BRANCH  15  18
ATOM     18  C   UNL     1     -10.250  17.650  68.722  0.00  0.00    +0.004 C 
BRANCH  18  19
ATOM     19  C   UNL     1     -10.287  16.185  69.052  0.00  0.00    +0.000 C 
BRANCH  19  21
ATOM     20  C   UNL     1     -11.909  14.323  69.306  0.00  0.00    +0.000 C 
ATOM     21  C   UNL     1     -11.699  15.784  69.373  0.00  0.00    +0.000 C 
ENDBRANCH  19  21
ENDBRANCH  18  19
ENDBRANCH  15  18
ENDBRANCH  14  15
ENDBRANCH  13  14
ENDBRANCH   1  13
TORSDOF 10
ENDMDL
MODEL 3
REMARK VINA RESULT:      -5.5      2.353      4.289
REMARK  Name = 
REMARK  10 active torsions:
REMARK  status: ('A' for Active; 'I' for Inactive)
REMARK    1  A    between atoms: C_2  and  C_3
REMARK    2  A    between atoms: C_3  and  C_4
REMARK    3  A    between atoms: C_4  and  C_5
REMARK    4  A    between atoms: C_5  and  C_6
REMARK    5  A    between atoms: C_5  and  C_8
REMARK    6  A    between atoms: C_8  and  O_9
REMARK    7  A    between atoms: O_9  and  C_10
REMARK    8  A    between atoms: C_10  and  C_12
REMARK    9  A    between atoms: C_13  and  C_14
REMARK   10  A    between atoms: C_17  and  O_18
REMARK                            x       y       z     vdW  Elec       q    Type
REMARK                         _______ _______ _______ _____ _____    ______ ____
ROOT
ATOM      1  C   UNL     1     -13.412  15.178  71.393  0.00  0.00    +0.341 C 
ATOM      2  O   UNL     1     -14.400  15.585  72.061  0.00  0.00    -0.245 OA
ENDROOT
BRANCH   1   3
ATOM      3  C   UNL     1     -12.785  13.945  71.827  0.00  0.00    +0.082 C 
ATOM      4  C   UNL     1     -13.389  12.802  72.018  0.00  0.00    +0.007 C 
BRANCH   4   5
ATOM      5  C   UNL     1     -13.053  11.567  71.292  0.00  0.00    +0.000 A 
ATOM      6  C   UNL     1     -13.110  10.333  71.932  0.00  0.00    +0.003 A 
ATOM      7  C   UNL     1     -12.178   9.338  71.662  0.00  0.00    +0.037 A 
ATOM      8  C   UNL     1     -11.034   9.628  70.930  0.00  0.00    +0.139 A 
ATOM      9  C   UNL     1     -11.123  10.708  70.087  0.00  0.00    +0.037 A 
ATOM     10  C   UNL     1     -12.144  11.637  70.241  0.00  0.00    +0.003 A 
BRANCH   8  11
ATOM     11  O   UNL     1      -9.822   9.035  71.194  0.00  0.00    -0.471 OA
ATOM     12  C   UNL     1      -8.679   9.360  70.410  0.00  0.00    +0.252 C 
ENDBRANCH   8  11
ENDBRANCH   4   5
ENDBRANCH   1   3
BRANCH   1  13
ATOM     13  O   UNL     1     -12.876  16.035  70.460  0.00  0.00    -0.445 OA
BRANCH  13  14
ATOM     14  C   UNL     1     -11.464  16.131  70.308  0.00  0.00    +0.209 C 
BRANCH  14  15
ATOM     15  C   UNL     1     -11.349  15.902  68.672  0.00  0.00    +0.044 C 
BRANCH  15  16
ATOM     16  C   UNL     1     -10.201  17.089  68.534  0.00  0.00    +0.004 C 
ATOM     17  C   UNL     1     -10.181  17.425  67.071  0.00  0.00    +0.000 C 
ENDBRANCH  15  16
BRANCH  15  18
ATOM     18  C   UNL     1     -10.188  14.735  68.862  0.00  0.00    +0.004 C 
BRANCH  18  19
ATOM     19  C   UNL     1     -10.510  13.841  67.699  0.00  0.00    +0.000 C 
BRANCH  19  21
ATOM     20  C   UNL     1     -12.257  13.731  65.938  0.00  0.00    +0.000 C 
ATOM     21  C   UNL     1     -11.971  13.961  67.369  0.00  0.00    +0.000 C 
ENDBRANCH  19  21
ENDBRANCH  18  19
ENDBRANCH  15  18
ENDBRANCH  14  15
ENDBRANCH  13  14
ENDBRANCH   1  13
TORSDOF 10
ENDMDL
MODEL 4
REMARK VINA RESULT:      -5.5      3.826      6.471
REMARK  Name = 
REMARK  10 active torsions:
REMARK  status: ('A' for Active; 'I' for Inactive)
REMARK    1  A    between atoms: C_2  and  C_3
REMARK    2  A    between atoms: C_3  and  C_4
REMARK    3  A    between atoms: C_4  and  C_5
REMARK    4  A    between atoms: C_5  and  C_6
REMARK    5  A    between atoms: C_5  and  C_8
REMARK    6  A    between atoms: C_8  and  O_9
REMARK    7  A    between atoms: O_9  and  C_10
REMARK    8  A    between atoms: C_10  and  C_12
REMARK    9  A    between atoms: C_13  and  C_14
REMARK   10  A    between atoms: C_17  and  O_18
REMARK                            x       y       z     vdW  Elec       q    Type
REMARK                         _______ _______ _______ _____ _____    ______ ____
ROOT
ATOM      1  C   UNL     1     -10.742  16.381  65.292  0.00  0.00    +0.341 C 
ATOM      2  O   UNL     1     -11.387  16.515  64.217  0.00  0.00    -0.245 OA
ENDROOT
BRANCH   1   3
ATOM      3  C   UNL     1     -11.100  15.263  66.141  0.00  0.00    +0.082 C 
ATOM      4  C   UNL     1     -10.296  14.626  66.952  0.00  0.00    +0.007 C 
BRANCH   4   5
ATOM      5  C   UNL     1     -10.506  14.528  68.405  0.00  0.00    +0.000 A 
ATOM      6  C   UNL     1     -11.405  13.605  68.929  0.00  0.00    +0.003 A 
ATOM      7  C   UNL     1     -12.192  13.912  70.032  0.00  0.00    +0.037 A 
ATOM      8  C   UNL     1     -12.275  15.220  70.491  0.00  0.00    +0.139 A 
ATOM      9  C   UNL     1     -11.211  16.031  70.182  0.00  0.00    +0.037 A 
ATOM     10  C   UNL     1     -10.317  15.665  69.184  0.00  0.00    +0.003 A 
BRANCH   8  11
ATOM     11  O   UNL     1     -13.435  15.744  71.013  0.00  0.00    -0.471 OA
ATOM     12  C   UNL     1     -13.757  15.547  72.385  0.00  0.00    +0.252 C 
ENDBRANCH   8  11
ENDBRANCH   4   5
ENDBRANCH   1   3
BRANCH   1  13
ATOM     13  O   UNL     1      -9.920  17.416  65.675  0.00  0.00    -0.445 OA
BRANCH  13  14
ATOM     14  C   UNL     1     -10.356  18.347  66.659  0.00  0.00    +0.209 C 
BRANCH  14  15
ATOM     15  C   UNL     1      -9.541  19.693  66.143  0.00  0.00    +0.044 C 
BRANCH  15  16
ATOM     16  C   UNL     1      -9.750  20.444  67.605  0.00  0.00    +0.004 C 
ATOM     17  C   UNL     1      -9.630  19.339  68.616  0.00  0.00    +0.000 C 
ENDBRANCH  15  16
BRANCH  15  18
ATOM     18  C   UNL     1      -8.086  19.061  66.622  0.00  0.00    +0.004 C 
BRANCH  18  19
ATOM     19  C   UNL     1      -7.148  19.862  65.765  0.00  0.00    +0.000 C 
BRANCH  19  21
ATOM     20  C   UNL     1      -6.065  21.143  67.595  0.00  0.00    +0.000 C 
ATOM     21  C   UNL     1      -5.885  20.133  66.532  0.00  0.00    +0.000 C 
ENDBRANCH  19  21
ENDBRANCH  18  19
ENDBRANCH  15  18
ENDBRANCH  14  15
ENDBRANCH  13  14
ENDBRANCH   1  13
TORSDOF 10
ENDMDL
MODEL 5
REMARK VINA RESULT:      -5.4      5.092      6.851
REMARK  Name = 
REMARK  10 active torsions:
REMARK  status: ('A' for Active; 'I' for Inactive)
REMARK    1  A    between atoms: C_2  and  C_3
REMARK    2  A    between atoms: C_3  and  C_4
REMARK    3  A    between atoms: C_4  and  C_5
REMARK    4  A    between atoms: C_5  and  C_6
REMARK    5  A    between atoms: C_5  and  C_8
REMARK    6  A    between atoms: C_8  and  O_9
REMARK    7  A    between atoms: O_9  and  C_10
REMARK    8  A    between atoms: C_10  and  C_12
REMARK    9  A    between atoms: C_13  and  C_14
REMARK   10  A    between atoms: C_17  and  O_18
REMARK                            x       y       z     vdW  Elec       q    Type
REMARK                         _______ _______ _______ _____ _____    ______ ____
ROOT
ATOM      1  C   UNL     1     -10.931  16.508  64.883  0.00  0.00    +0.341 C 
ATOM      2  O   UNL     1     -11.688  16.488  63.876  0.00  0.00    -0.245 OA
ENDROOT
BRANCH   1   3
ATOM      3  C   UNL     1     -10.712  15.250  65.569  0.00  0.00    +0.082 C 
ATOM      4  C   UNL     1     -11.641  14.460  66.040  0.00  0.00    +0.007 C 
BRANCH   4   5
ATOM      5  C   UNL     1     -11.825  13.066  65.610  0.00  0.00    +0.000 A 
ATOM      6  C   UNL     1     -11.017  12.055  66.121  0.00  0.00    +0.003 A 
ATOM      7  C   UNL     1     -10.594  10.999  65.323  0.00  0.00    +0.037 A 
ATOM      8  C   UNL     1     -10.768  11.047  63.945  0.00  0.00    +0.139 A 
ATOM      9  C   UNL     1     -11.783  11.858  63.500  0.00  0.00    +0.037 A 
ATOM     10  C   UNL     1     -12.330  12.821  64.337  0.00  0.00    +0.003 A 
BRANCH   8  11
ATOM     11  O   UNL     1      -9.851  10.515  63.069  0.00  0.00    -0.471 OA
ATOM     12  C   UNL     1      -8.605  10.022  63.549  0.00  0.00    +0.252 C 
ENDBRANCH   8  11
ENDBRANCH   4   5
ENDBRANCH   1   3
BRANCH   1  13
ATOM     13  O   UNL     1     -10.560  17.738  65.377  0.00  0.00    -0.445 OA
BRANCH  13  14
ATOM     14  C   UNL     1      -9.628  17.823  66.449  0.00  0.00    +0.209 C 
BRANCH  14  15
ATOM     15  C   UNL     1     -10.556  18.635  67.554  0.00  0.00    +0.044 C 
BRANCH  15  16
ATOM     16  C   UNL     1      -9.948  17.735  68.805  0.00  0.00    +0.004 C 
ATOM     17  C   UNL     1     -10.950  16.633  68.997  0.00  0.00    +0.000 C 
ENDBRANCH  15  16
BRANCH  15  18
ATOM     18  C   UNL     1      -9.392  19.796  67.760  0.00  0.00    +0.004 C 
BRANCH  18  19
ATOM     19  C   UNL     1      -8.237  18.945  68.205  0.00  0.00    +0.000 C 
BRANCH  19  21
ATOM     20  C   UNL     1      -6.914  20.813  67.244  0.00  0.00    +0.000 C 
ATOM     21  C   UNL     1      -7.004  19.798  68.314  0.00  0.00    +0.000 C 
ENDBRANCH  19  21
ENDBRANCH  18  19
ENDBRANCH  15  18
ENDBRANCH  14  15
ENDBRANCH  13  14
ENDBRANCH   1  13
TORSDOF 10
ENDMDL
MODEL 6
REMARK VINA RESULT:      -5.4      2.437      4.450
REMARK  Name = 
REMARK  10 active torsions:
REMARK  status: ('A' for Active; 'I' for Inactive)
REMARK    1  A    between atoms: C_2  and  C_3
REMARK    2  A    between atoms: C_3  and  C_4
REMARK    3  A    between atoms: C_4  and  C_5
REMARK    4  A    between atoms: C_5  and  C_6
REMARK    5  A    between atoms: C_5  and  C_8
REMARK    6  A    between atoms: C_8  and  O_9
REMARK    7  A    between atoms: O_9  and  C_10
REMARK    8  A    between atoms: C_10  and  C_12
REMARK    9  A    between atoms: C_13  and  C_14
REMARK   10  A    between atoms: C_17  and  O_18
REMARK                            x       y       z     vdW  Elec       q    Type
REMARK                         _______ _______ _______ _____ _____    ______ ____
ROOT
ATOM      1  C   UNL     1     -10.926  16.018  64.746  0.00  0.00    +0.341 C 
ATOM      2  O   UNL     1     -11.634  16.713  63.968  0.00  0.00    -0.245 OA
ENDROOT
BRANCH   1   3
ATOM      3  C   UNL     1     -11.316  14.635  64.935  0.00  0.00    +0.082 C 
ATOM      4  C   UNL     1     -10.535  13.594  64.815  0.00  0.00    +0.007 C 
BRANCH   4   5
ATOM      5  C   UNL     1     -10.266  12.642  65.903  0.00  0.00    +0.000 A 
ATOM      6  C   UNL     1     -11.155  11.607  66.173  0.00  0.00    +0.003 A 
ATOM      7  C   UNL     1     -11.411  11.199  67.477  0.00  0.00    +0.037 A 
ATOM      8  C   UNL     1     -10.972  11.965  68.550  0.00  0.00    +0.139 A 
ATOM      9  C   UNL     1      -9.893  12.776  68.303  0.00  0.00    +0.037 A 
ATOM     10  C   UNL     1      -9.521  13.072  66.997  0.00  0.00    +0.003 A 
BRANCH   8  11
ATOM     11  O   UNL     1     -11.700  12.089  69.711  0.00  0.00    -0.471 OA
ATOM     12  C   UNL     1     -11.997  10.940  70.496  0.00  0.00    +0.252 C 
ENDBRANCH   8  11
ENDBRANCH   4   5
ENDBRANCH   1   3
BRANCH   1  13
ATOM     13  O   UNL     1      -9.990  16.674  65.513  0.00  0.00    -0.445 OA
BRANCH  13  14
ATOM     14  C   UNL     1     -10.392  17.370  66.686  0.00  0.00    +0.209 C 
BRANCH  14  15
ATOM     15  C   UNL     1      -9.460  16.583  67.805  0.00  0.00    +0.044 C 
BRANCH  15  16
ATOM     16  C   UNL     1      -8.606  17.962  68.142  0.00  0.00    +0.004 C 
ATOM     17  C   UNL     1      -9.640  18.934  68.632  0.00  0.00    +0.000 C 
ENDBRANCH  15  16
BRANCH  15  18
ATOM     18  C   UNL     1     -10.546  16.902  69.015  0.00  0.00    +0.004 C 
BRANCH  18  19
ATOM     19  C   UNL     1     -11.606  15.885  68.702  0.00  0.00    +0.000 C 
BRANCH  19  21
ATOM     20  C   UNL     1     -11.473  15.565  71.161  0.00  0.00    +0.000 C 
ATOM     21  C   UNL     1     -12.339  15.528  69.965  0.00  0.00    +0.000 C 
ENDBRANCH  19  21
ENDBRANCH  18  19
ENDBRANCH  15  18
ENDBRANCH  14  15
ENDBRANCH  13  14
ENDBRANCH   1  13
TORSDOF 10
ENDMDL
MODEL 7
REMARK VINA RESULT:      -5.4      3.794      5.746
REMARK  Name = 
REMARK  10 active torsions:
REMARK  status: ('A' for Active; 'I' for Inactive)
REMARK    1  A    between atoms: C_2  and  C_3
REMARK    2  A    between atoms: C_3  and  C_4
REMARK    3  A    between atoms: C_4  and  C_5
REMARK    4  A    between atoms: C_5  and  C_6
REMARK    5  A    between atoms: C_5  and  C_8
REMARK    6  A    between atoms: C_8  and  O_9
REMARK    7  A    between atoms: O_9  and  C_10
REMARK    8  A    between atoms: C_10  and  C_12
REMARK    9  A    between atoms: C_13  and  C_14
REMARK   10  A    between atoms: C_17  and  O_18
REMARK                            x       y       z     vdW  Elec       q    Type
REMARK                         _______ _______ _______ _____ _____    ______ ____
ROOT
ATOM      1  C   UNL     1     -10.578  16.145  65.407  0.00  0.00    +0.341 C 
ATOM      2  O   UNL     1     -11.178  16.302  64.310  0.00  0.00    -0.245 OA
ENDROOT
BRANCH   1   3
ATOM      3  C   UNL     1     -11.106  15.143  66.311  0.00  0.00    +0.082 C 
ATOM      4  C   UNL     1     -10.411  14.433  67.161  0.00  0.00    +0.007 C 
BRANCH   4   5
ATOM      5  C   UNL     1     -10.634  14.448  68.615  0.00  0.00    +0.000 A 
ATOM      6  C   UNL     1     -11.485  13.522  69.209  0.00  0.00    +0.003 A 
ATOM      7  C   UNL     1     -12.302  13.876  70.276  0.00  0.00    +0.037 A 
ATOM      8  C   UNL     1     -12.466  15.211  70.621  0.00  0.00    +0.139 A 
ATOM      9  C   UNL     1     -11.445  16.053  70.252  0.00  0.00    +0.037 A 
ATOM     10  C   UNL     1     -10.519  15.656  69.296  0.00  0.00    +0.003 A 
BRANCH   8  11
ATOM     11  O   UNL     1     -13.660  15.710  71.086  0.00  0.00    -0.471 OA
ATOM     12  C   UNL     1     -14.610  14.842  71.695  0.00  0.00    +0.252 C 
ENDBRANCH   8  11
ENDBRANCH   4   5
ENDBRANCH   1   3
BRANCH   1  13
ATOM     13  O   UNL     1      -9.624  17.076  65.750  0.00  0.00    -0.445 OA
BRANCH  13  14
ATOM     14  C   UNL     1      -9.991  18.232  66.492  0.00  0.00    +0.209 C 
BRANCH  14  15
ATOM     15  C   UNL     1      -8.495  18.911  66.699  0.00  0.00    +0.044 C 
BRANCH  15  16
ATOM     16  C   UNL     1      -9.156  20.335  67.230  0.00  0.00    +0.004 C 
ATOM     17  C   UNL     1     -10.068  19.930  68.352  0.00  0.00    +0.000 C 
ENDBRANCH  15  16
BRANCH  15  18
ATOM     18  C   UNL     1      -8.384  18.330  68.246  0.00  0.00    +0.004 C 
BRANCH  18  19
ATOM     19  C   UNL     1      -7.008  17.731  68.213  0.00  0.00    +0.000 C 
BRANCH  19  21
ATOM     20  C   UNL     1      -6.875  15.404  67.357  0.00  0.00    +0.000 C 
ATOM     21  C   UNL     1      -7.095  16.266  68.537  0.00  0.00    +0.000 C 
ENDBRANCH  19  21
ENDBRANCH  18  19
ENDBRANCH  15  18
ENDBRANCH  14  15
ENDBRANCH  13  14
ENDBRANCH   1  13
TORSDOF 10
ENDMDL
MODEL 8
REMARK VINA RESULT:      -5.4      2.703      6.057
REMARK  Name = 
REMARK  10 active torsions:
REMARK  status: ('A' for Active; 'I' for Inactive)
REMARK    1  A    between atoms: C_2  and  C_3
REMARK    2  A    between atoms: C_3  and  C_4
REMARK    3  A    between atoms: C_4  and  C_5
REMARK    4  A    between atoms: C_5  and  C_6
REMARK    5  A    between atoms: C_5  and  C_8
REMARK    6  A    between atoms: C_8  and  O_9
REMARK    7  A    between atoms: O_9  and  C_10
REMARK    8  A    between atoms: C_10  and  C_12
REMARK    9  A    between atoms: C_13  and  C_14
REMARK   10  A    between atoms: C_17  and  O_18
REMARK                            x       y       z     vdW  Elec       q    Type
REMARK                         _______ _______ _______ _____ _____    ______ ____
ROOT
ATOM      1  C   UNL     1     -11.026  15.914  64.991  0.00  0.00    +0.341 C 
ATOM      2  O   UNL     1     -11.206  16.961  64.313  0.00  0.00    -0.245 OA
ENDROOT
BRANCH   1   3
ATOM      3  C   UNL     1     -10.300  16.051  66.238  0.00  0.00    +0.082 C 
ATOM      4  C   UNL     1     -10.792  16.486  67.369  0.00  0.00    +0.007 C 
BRANCH   4   5
ATOM      5  C   UNL     1     -10.818  15.694  68.608  0.00  0.00    +0.000 A 
ATOM      6  C   UNL     1     -11.367  14.416  68.619  0.00  0.00    +0.003 A 
ATOM      7  C   UNL     1     -12.093  13.953  69.711  0.00  0.00    +0.037 A 
ATOM      8  C   UNL     1     -12.489  14.830  70.712  0.00  0.00    +0.139 A 
ATOM      9  C   UNL     1     -11.728  15.966  70.847  0.00  0.00    +0.037 A 
ATOM     10  C   UNL     1     -10.874  16.363  69.827  0.00  0.00    +0.003 A 
BRANCH   8  11
ATOM     11  O   UNL     1     -13.690  14.701  71.370  0.00  0.00    -0.471 OA
ATOM     12  C   UNL     1     -14.005  15.559  72.461  0.00  0.00    +0.252 C 
ENDBRANCH   8  11
ENDBRANCH   4   5
ENDBRANCH   1   3
BRANCH   1  13
ATOM     13  O   UNL     1     -11.329  14.710  64.397  0.00  0.00    -0.445 OA
BRANCH  13  14
ATOM     14  C   UNL     1     -10.637  13.529  64.786  0.00  0.00    +0.209 C 
BRANCH  14  15
ATOM     15  C   UNL     1     -11.930  12.562  65.153  0.00  0.00    +0.044 C 
BRANCH  15  16
ATOM     16  C   UNL     1     -11.981  11.957  63.611  0.00  0.00    +0.004 C 
ATOM     17  C   UNL     1     -10.640  11.311  63.416  0.00  0.00    +0.000 C 
ENDBRANCH  15  16
BRANCH  15  18
ATOM     18  C   UNL     1     -10.938  11.333  65.654  0.00  0.00    +0.004 C 
BRANCH  18  19
ATOM     19  C   UNL     1     -11.105  11.439  67.142  0.00  0.00    +0.000 C 
BRANCH  19  21
ATOM     20  C   UNL     1     -11.093  10.093  69.228  0.00  0.00    +0.000 C 
ATOM     21  C   UNL     1     -10.982  10.073  67.755  0.00  0.00    +0.000 C 
ENDBRANCH  19  21
ENDBRANCH  18  19
ENDBRANCH  15  18
ENDBRANCH  14  15
ENDBRANCH  13  14
ENDBRANCH   1  13
TORSDOF 10
ENDMDL
MODEL 9
REMARK VINA RESULT:      -5.4      2.654      5.568
REMARK  Name = 
REMARK  10 active torsions:
REMARK  status: ('A' for Active; 'I' for Inactive)
REMARK    1  A    between atoms: C_2  and  C_3
REMARK    2  A    between atoms: C_3  and  C_4
REMARK    3  A    between atoms: C_4  and  C_5
REMARK    4  A    between atoms: C_5  and  C_6
REMARK    5  A    between atoms: C_5  and  C_8
REMARK    6  A    between atoms: C_8  and  O_9
REMARK    7  A    between atoms: O_9  and  C_10
REMARK    8  A    between atoms: C_10  and  C_12
REMARK    9  A    between atoms: C_13  and  C_14
REMARK   10  A    between atoms: C_17  and  O_18
REMARK                            x       y       z     vdW  Elec       q    Type
REMARK                         _______ _______ _______ _____ _____    ______ ____
ROOT
ATOM      1  C   UNL     1     -10.765  16.366  69.007  0.00  0.00    +0.341 C 
ATOM      2  O   UNL     1     -10.986  17.514  68.537  0.00  0.00    -0.245 OA
ENDROOT
BRANCH   1   3
ATOM      3  C   UNL     1     -10.346  15.339  68.075  0.00  0.00    +0.082 C 
ATOM      4  C   UNL     1     -10.266  14.059  68.327  0.00  0.00    +0.007 C 
BRANCH   4   5
ATOM      5  C   UNL     1     -11.025  13.031  67.598  0.00  0.00    +0.000 A 
ATOM      6  C   UNL     1     -10.425  11.826  67.246  0.00  0.00    +0.003 A 
ATOM      7  C   UNL     1     -10.713  11.205  66.036  0.00  0.00    +0.037 A 
ATOM      8  C   UNL     1     -11.419  11.883  65.051  0.00  0.00    +0.139 A 
ATOM      9  C   UNL     1     -12.229  12.901  65.490  0.00  0.00    +0.037 A 
ATOM     10  C   UNL     1     -12.060  13.433  66.761  0.00  0.00    +0.003 A 
BRANCH   8  11
ATOM     11  O   UNL     1     -11.156  11.715  63.711  0.00  0.00    -0.471 OA
ATOM     12  C   UNL     1     -10.130  10.825  63.288  0.00  0.00    +0.252 C 
ENDBRANCH   8  11
ENDBRANCH   4   5
ENDBRANCH   1   3
BRANCH   1  13
ATOM     13  O   UNL     1     -11.149  16.125  70.307  0.00  0.00    -0.445 OA
BRANCH  13  14
ATOM     14  C   UNL     1     -12.487  15.738  70.594  0.00  0.00    +0.209 C 
BRANCH  14  15
ATOM     15  C   UNL     1     -12.214  14.754  71.898  0.00  0.00    +0.044 C 
BRANCH  15  16
ATOM     16  C   UNL     1     -12.929  15.835  72.930  0.00  0.00    +0.004 C 
ATOM     17  C   UNL     1     -12.458  15.420  74.294  0.00  0.00    +0.000 C 
ENDBRANCH  15  16
BRANCH  15  18
ATOM     18  C   UNL     1     -13.646  13.955  71.664  0.00  0.00    +0.004 C 
BRANCH  18  19
ATOM     19  C   UNL     1     -13.220  12.545  71.953  0.00  0.00    +0.000 C 
BRANCH  19  21
ATOM     20  C   UNL     1     -12.529  10.571  70.616  0.00  0.00    +0.000 C 
ATOM     21  C   UNL     1     -12.397  12.030  70.807  0.00  0.00    +0.000 C 
ENDBRANCH  19  21
ENDBRANCH  18  19
ENDBRANCH  15  18
ENDBRANCH  14  15
ENDBRANCH  13  14
ENDBRANCH   1  13
TORSDOF 10
ENDMDL
