MODEL 1
REMARK VINA RESULT:      -6.6      0.000      0.000
REMARK  Name = 
REMARK  4 active torsions:
REMARK  status: ('A' for Active; 'I' for Inactive)
REMARK    1  A    between atoms: C_5  and  N_6
REMARK    2  A    between atoms: N_6  and  C_7
REMARK    3  A    between atoms: N_6  and  C_13
REMARK    4  A    between atoms: C_7  and  C_8
REMARK                            x       y       z     vdW  Elec       q    Type
REMARK                         _______ _______ _______ _____ _____    ______ ____
ROOT
ATOM      1  N   UNL     1     -11.479  14.985  69.077  0.00  0.00    -0.276 N 
ENDROOT
BRANCH   1   6
ATOM      2  C   UNL     1      -9.981  11.436  65.150  0.00  0.00    +0.031 C 
ATOM      3  C   UNL     1     -10.673  12.097  66.294  0.00  0.00    -0.022 A 
ATOM      4  C   UNL     1     -10.310  11.845  67.611  0.00  0.00    -0.003 A 
ATOM      5  C   UNL     1     -10.572  12.842  68.543  0.00  0.00    +0.015 A 
ATOM      6  C   UNL     1     -11.612  13.746  68.368  0.00  0.00    +0.052 A 
ATOM      7  C   UNL     1     -12.237  13.701  67.127  0.00  0.00    +0.015 A 
ATOM      8  C   UNL     1     -11.839  12.831  66.128  0.00  0.00    -0.003 A 
ENDBRANCH   1   6
BRANCH   1   9
ATOM      9  C   UNL     1     -11.947  14.973  70.431  0.00  0.00    +0.055 A 
ATOM     10  C   UNL     1     -12.848  14.031  70.896  0.00  0.00    +0.057 A 
ATOM     11  C   UNL     1     -13.258  14.015  72.223  0.00  0.00    +0.197 A 
ATOM     12  O   UNL     1     -14.319  13.186  72.598  0.00  0.00    -0.287 OA
ATOM     13  C   UNL     1     -13.056  15.151  72.993  0.00  0.00    +0.042 A 
ATOM     14  C   UNL     1     -12.151  16.093  72.567  0.00  0.00    +0.005 A 
ATOM     15  C   UNL     1     -11.473  15.865  71.383  0.00  0.00    +0.015 A 
ENDBRANCH   1   9
BRANCH   1  16
ATOM     16  C   UNL     1     -10.204  15.662  68.866  0.00  0.00    +0.217 C 
BRANCH  16  17
ATOM     17  C   UNL     1     -10.339  16.873  68.034  0.00  0.00    +0.353 C 
ATOM     18  N   UNL     1     -10.350  16.771  66.603  0.00  0.00    -0.029 NA
ATOM     19  C   UNL     1     -10.227  18.097  66.048  0.00  0.00    +0.308 C 
ATOM     20  C   UNL     1     -10.250  18.952  67.296  0.00  0.00    +0.318 C 
ATOM     21  N   UNL     1     -10.803  18.039  68.290  0.00  0.00    -0.060 NA
ENDBRANCH  16  17
ENDBRANCH   1  16
TORSDOF 4
ENDMDL
MODEL 2
REMARK VINA RESULT:      -6.4      2.373      5.751
REMARK  Name = 
REMARK  4 active torsions:
REMARK  status: ('A' for Active; 'I' for Inactive)
REMARK    1  A    between atoms: C_5  and  N_6
REMARK    2  A    between atoms: N_6  and  C_7
REMARK    3  A    between atoms: N_6  and  C_13
REMARK    4  A    between atoms: C_7  and  C_8
REMARK                            x       y       z     vdW  Elec       q    Type
REMARK                         _______ _______ _______ _____ _____    ______ ____
ROOT
ATOM      1  N   UNL     1     -10.895  15.624  68.733  0.00  0.00    -0.276 N 
ENDROOT
BRANCH   1   6
ATOM      2  C   UNL     1      -7.065  19.565  68.979  0.00  0.00    +0.031 C 
ATOM      3  C   UNL     1      -8.097  18.600  68.502  0.00  0.00    -0.022 A 
ATOM      4  C   UNL     1      -7.753  17.350  68.006  0.00  0.00    -0.003 A 
ATOM      5  C   UNL     1      -8.705  16.343  68.108  0.00  0.00    +0.015 A 
ATOM      6  C   UNL     1     -10.064  16.627  68.132  0.00  0.00    +0.052 A 
ATOM      7  C   UNL     1     -10.388  17.975  68.238  0.00  0.00    +0.015 A 
ATOM      8  C   UNL     1      -9.425  18.963  68.333  0.00  0.00    -0.003 A 
ENDBRANCH   1   6
BRANCH   1   9
ATOM      9  C   UNL     1     -11.113  14.451  67.942  0.00  0.00    +0.055 A 
ATOM     10  C   UNL     1     -11.885  14.464  66.793  0.00  0.00    +0.057 A 
ATOM     11  C   UNL     1     -12.053  13.322  66.019  0.00  0.00    +0.197 A 
ATOM     12  O   UNL     1     -13.001  13.327  64.993  0.00  0.00    -0.287 OA
ATOM     13  C   UNL     1     -11.755  12.090  66.585  0.00  0.00    +0.042 A 
ATOM     14  C   UNL     1     -10.973  12.045  67.713  0.00  0.00    +0.005 A 
ATOM     15  C   UNL     1     -10.509  13.237  68.239  0.00  0.00    +0.015 A 
ENDBRANCH   1   9
BRANCH   1  16
ATOM     16  C   UNL     1     -10.611  15.378  70.143  0.00  0.00    +0.217 C 
BRANCH  16  17
ATOM     17  C   UNL     1     -11.828  15.414  70.978  0.00  0.00    +0.353 C 
ATOM     18  N   UNL     1     -11.732  15.299  72.404  0.00  0.00    -0.029 NA
ATOM     19  C   UNL     1     -13.056  15.100  72.939  0.00  0.00    +0.308 C 
ATOM     20  C   UNL     1     -13.907  15.215  71.692  0.00  0.00    +0.318 C 
ATOM     21  N   UNL     1     -13.002  15.874  70.756  0.00  0.00    -0.060 NA
ENDBRANCH  16  17
ENDBRANCH   1  16
TORSDOF 4
ENDMDL
MODEL 3
REMARK VINA RESULT:      -6.3      2.709      4.982
REMARK  Name = 
REMARK  4 active torsions:
REMARK  status: ('A' for Active; 'I' for Inactive)
REMARK    1  A    between atoms: C_5  and  N_6
REMARK    2  A    between atoms: N_6  and  C_7
REMARK    3  A    between atoms: N_6  and  C_13
REMARK    4  A    between atoms: C_7  and  C_8
REMARK                            x       y       z     vdW  Elec       q    Type
REMARK                         _______ _______ _______ _____ _____    ______ ____
ROOT
ATOM      1  N   UNL     1     -11.167  14.717  69.036  0.00  0.00    -0.276 N 
ENDROOT
BRANCH   1   6
ATOM      2  C   UNL     1     -10.676   9.536  67.254  0.00  0.00    +0.031 C 
ATOM      3  C   UNL     1     -11.220  10.859  67.677  0.00  0.00    -0.022 A 
ATOM      4  C   UNL     1     -11.643  11.091  68.979  0.00  0.00    -0.003 A 
ATOM      5  C   UNL     1     -11.602  12.403  69.434  0.00  0.00    +0.015 A 
ATOM      6  C   UNL     1     -11.716  13.479  68.564  0.00  0.00    +0.052 A 
ATOM      7  C   UNL     1     -11.684  13.157  67.212  0.00  0.00    +0.015 A 
ATOM      8  C   UNL     1     -11.527  11.858  66.764  0.00  0.00    -0.003 A 
ENDBRANCH   1   6
BRANCH   1   9
ATOM      9  C   UNL     1     -10.099  15.256  68.249  0.00  0.00    +0.055 A 
ATOM     10  C   UNL     1     -10.241  16.408  67.495  0.00  0.00    +0.057 A 
ATOM     11  C   UNL     1      -9.180  16.935  66.769  0.00  0.00    +0.197 A 
ATOM     12  O   UNL     1      -9.421  17.971  65.863  0.00  0.00    -0.287 OA
ATOM     13  C   UNL     1      -8.091  16.118  66.503  0.00  0.00    +0.042 A 
ATOM     14  C   UNL     1      -7.911  14.979  67.249  0.00  0.00    +0.005 A 
ATOM     15  C   UNL     1      -8.830  14.695  68.245  0.00  0.00    +0.015 A 
ENDBRANCH   1   9
BRANCH   1  16
ATOM     16  C   UNL     1     -12.166  15.686  69.474  0.00  0.00    +0.217 C 
BRANCH  16  17
ATOM     17  C   UNL     1     -12.407  15.628  70.930  0.00  0.00    +0.353 C 
ATOM     18  N   UNL     1     -13.745  15.579  71.441  0.00  0.00    -0.029 NA
ATOM     19  C   UNL     1     -13.700  15.793  72.867  0.00  0.00    +0.308 C 
ATOM     20  C   UNL     1     -12.209  15.864  73.116  0.00  0.00    +0.318 C 
ATOM     21  N   UNL     1     -11.662  15.262  71.905  0.00  0.00    -0.060 NA
ENDBRANCH  16  17
ENDBRANCH   1  16
TORSDOF 4
ENDMDL
MODEL 4
REMARK VINA RESULT:      -6.3      2.095      5.014
REMARK  Name = 
REMARK  4 active torsions:
REMARK  status: ('A' for Active; 'I' for Inactive)
REMARK    1  A    between atoms: C_5  and  N_6
REMARK    2  A    between atoms: N_6  and  C_7
REMARK    3  A    between atoms: N_6  and  C_13
REMARK    4  A    between atoms: C_7  and  C_8
REMARK                            x       y       z     vdW  Elec       q    Type
REMARK                         _______ _______ _______ _____ _____    ______ ____
ROOT
ATOM      1  N   UNL     1     -10.685  15.061  68.015  0.00  0.00    -0.276 N 
ENDROOT
BRANCH   1   6
ATOM      2  C   UNL     1     -13.738  14.115  72.492  0.00  0.00    +0.031 C 
ATOM      3  C   UNL     1     -12.613  14.186  71.515  0.00  0.00    -0.022 A 
ATOM      4  C   UNL     1     -12.327  13.134  70.654  0.00  0.00    -0.003 A 
ATOM      5  C   UNL     1     -11.689  13.448  69.461  0.00  0.00    +0.015 A 
ATOM      6  C   UNL     1     -10.865  14.559  69.346  0.00  0.00    +0.052 A 
ATOM      7  C   UNL     1     -10.877  15.422  70.436  0.00  0.00    +0.015 A 
ATOM      8  C   UNL     1     -11.669  15.202  71.547  0.00  0.00    -0.003 A 
ENDBRANCH   1   6
BRANCH   1   9
ATOM      9  C   UNL     1     -10.786  14.086  66.971  0.00  0.00    +0.055 A 
ATOM     10  C   UNL     1     -11.962  13.862  66.277  0.00  0.00    +0.057 A 
ATOM     11  C   UNL     1     -12.027  12.938  65.241  0.00  0.00    +0.197 A 
ATOM     12  O   UNL     1     -13.274  12.594  64.712  0.00  0.00    -0.287 OA
ATOM     13  C   UNL     1     -11.025  11.983  65.143  0.00  0.00    +0.042 A 
ATOM     14  C   UNL     1      -9.839  12.189  65.803  0.00  0.00    +0.005 A 
ATOM     15  C   UNL     1      -9.691  13.350  66.541  0.00  0.00    +0.015 A 
ENDBRANCH   1   9
BRANCH   1  16
ATOM     16  C   UNL     1     -11.367  16.324  67.754  0.00  0.00    +0.217 C 
BRANCH  16  17
ATOM     17  C   UNL     1     -10.429  17.413  67.420  0.00  0.00    +0.353 C 
ATOM     18  N   UNL     1     -10.843  18.783  67.521  0.00  0.00    -0.029 NA
ATOM     19  C   UNL     1      -9.842  19.612  66.895  0.00  0.00    +0.308 C 
ATOM     20  C   UNL     1      -8.788  18.591  66.528  0.00  0.00    +0.318 C 
ATOM     21  N   UNL     1      -9.150  17.453  67.367  0.00  0.00    -0.060 NA
ENDBRANCH  16  17
ENDBRANCH   1  16
TORSDOF 4
ENDMDL
MODEL 5
REMARK VINA RESULT:      -6.3      2.730      4.938
REMARK  Name = 
REMARK  4 active torsions:
REMARK  status: ('A' for Active; 'I' for Inactive)
REMARK    1  A    between atoms: C_5  and  N_6
REMARK    2  A    between atoms: N_6  and  C_7
REMARK    3  A    between atoms: N_6  and  C_13
REMARK    4  A    between atoms: C_7  and  C_8
REMARK                            x       y       z     vdW  Elec       q    Type
REMARK                         _______ _______ _______ _____ _____    ______ ____
ROOT
ATOM      1  N   UNL     1     -10.622  15.522  68.899  0.00  0.00    -0.276 N 
ENDROOT
BRANCH   1   6
ATOM      2  C   UNL     1     -12.582  12.521  64.726  0.00  0.00    +0.031 C 
ATOM      3  C   UNL     1     -11.713  13.087  65.798  0.00  0.00    -0.022 A 
ATOM      4  C   UNL     1     -10.794  14.096  65.536  0.00  0.00    -0.003 A 
ATOM      5  C   UNL     1     -10.447  14.927  66.593  0.00  0.00    +0.015 A 
ATOM      6  C   UNL     1     -10.501  14.491  67.910  0.00  0.00    +0.052 A 
ATOM      7  C   UNL     1     -11.097  13.249  68.101  0.00  0.00    +0.015 A 
ATOM      8  C   UNL     1     -11.619  12.510  67.056  0.00  0.00    -0.003 A 
ENDBRANCH   1   6
BRANCH   1   9
ATOM      9  C   UNL     1      -9.767  16.656  68.714  0.00  0.00    +0.055 A 
ATOM     10  C   UNL     1      -8.391  16.576  68.840  0.00  0.00    +0.057 A 
ATOM     11  C   UNL     1      -7.578  17.681  68.618  0.00  0.00    +0.197 A 
ATOM     12  O   UNL     1      -6.225  17.610  68.958  0.00  0.00    -0.287 OA
ATOM     13  C   UNL     1      -8.157  18.942  68.631  0.00  0.00    +0.042 A 
ATOM     14  C   UNL     1      -9.518  19.053  68.486  0.00  0.00    +0.005 A 
ATOM     15  C   UNL     1     -10.259  17.895  68.329  0.00  0.00    +0.015 A 
ENDBRANCH   1   9
BRANCH   1  16
ATOM     16  C   UNL     1     -11.998  15.835  69.271  0.00  0.00    +0.217 C 
BRANCH  16  17
ATOM     17  C   UNL     1     -12.244  15.661  70.717  0.00  0.00    +0.353 C 
ATOM     18  N   UNL     1     -13.585  15.607  71.222  0.00  0.00    -0.029 NA
ATOM     19  C   UNL     1     -13.538  15.699  72.660  0.00  0.00    +0.308 C 
ATOM     20  C   UNL     1     -12.046  15.706  72.915  0.00  0.00    +0.318 C 
ATOM     21  N   UNL     1     -11.512  15.193  71.657  0.00  0.00    -0.060 NA
ENDBRANCH  16  17
ENDBRANCH   1  16
TORSDOF 4
ENDMDL
MODEL 6
REMARK VINA RESULT:      -6.2      2.683      5.465
REMARK  Name = 
REMARK  4 active torsions:
REMARK  status: ('A' for Active; 'I' for Inactive)
REMARK    1  A    between atoms: C_5  and  N_6
REMARK    2  A    between atoms: N_6  and  C_7
REMARK    3  A    between atoms: N_6  and  C_13
REMARK    4  A    between atoms: C_7  and  C_8
REMARK                            x       y       z     vdW  Elec       q    Type
REMARK                         _______ _______ _______ _____ _____    ______ ____
ROOT
ATOM      1  N   UNL     1     -10.718  15.535  68.262  0.00  0.00    -0.276 N 
ENDROOT
BRANCH   1   6
ATOM      2  C   UNL     1     -14.401  14.167  72.113  0.00  0.00    +0.031 C 
ATOM      3  C   UNL     1     -13.133  14.475  71.389  0.00  0.00    -0.022 A 
ATOM      4  C   UNL     1     -12.373  13.478  70.793  0.00  0.00    -0.003 A 
ATOM      5  C   UNL     1     -11.571  13.847  69.720  0.00  0.00    +0.015 A 
ATOM      6  C   UNL     1     -11.076  15.138  69.593  0.00  0.00    +0.052 A 
ATOM      7  C   UNL     1     -11.586  16.062  70.497  0.00  0.00    +0.015 A 
ATOM      8  C   UNL     1     -12.536  15.726  71.443  0.00  0.00    -0.003 A 
ENDBRANCH   1   6
BRANCH   1   9
ATOM      9  C   UNL     1      -9.993  16.766  68.161  0.00  0.00    +0.055 A 
ATOM     10  C   UNL     1      -8.673  16.884  68.561  0.00  0.00    +0.057 A 
ATOM     11  C   UNL     1      -7.977  18.078  68.418  0.00  0.00    +0.197 A 
ATOM     12  O   UNL     1      -6.724  18.213  69.023  0.00  0.00    -0.287 OA
ATOM     13  C   UNL     1      -8.700  19.246  68.218  0.00  0.00    +0.042 A 
ATOM     14  C   UNL     1     -10.005  19.160  67.799  0.00  0.00    +0.005 A 
ATOM     15  C   UNL     1     -10.546  17.903  67.590  0.00  0.00    +0.015 A 
ENDBRANCH   1   9
BRANCH   1  16
ATOM     16  C   UNL     1     -10.217  14.448  67.428  0.00  0.00    +0.217 C 
BRANCH  16  17
ATOM     17  C   UNL     1     -11.115  14.148  66.295  0.00  0.00    +0.353 C 
ATOM     18  N   UNL     1     -11.898  12.946  66.290  0.00  0.00    -0.029 NA
ATOM     19  C   UNL     1     -12.468  12.775  64.977  0.00  0.00    +0.308 C 
ATOM     20  C   UNL     1     -12.015  14.041  64.282  0.00  0.00    +0.318 C 
ATOM     21  N   UNL     1     -11.646  14.898  65.404  0.00  0.00    -0.060 NA
ENDBRANCH  16  17
ENDBRANCH   1  16
TORSDOF 4
ENDMDL
MODEL 7
REMARK VINA RESULT:      -6.2      2.567      4.803
REMARK  Name = 
REMARK  4 active torsions:
REMARK  status: ('A' for Active; 'I' for Inactive)
REMARK    1  A    between atoms: C_5  and  N_6
REMARK    2  A    between atoms: N_6  and  C_7
REMARK    3  A    between atoms: N_6  and  C_13
REMARK    4  A    between atoms: C_7  and  C_8
REMARK                            x       y       z     vdW  Elec       q    Type
REMARK                         _______ _______ _______ _____ _____    ______ ____
ROOT
ATOM      1  N   UNL     1     -11.227  12.633  68.886  0.00  0.00    -0.276 N 
ENDROOT
BRANCH   1   6
ATOM      2  C   UNL     1     -12.200  12.154  63.492  0.00  0.00    +0.031 C 
ATOM      3  C   UNL     1     -11.735  12.633  64.826  0.00  0.00    -0.022 A 
ATOM      4  C   UNL     1     -12.470  13.547  65.570  0.00  0.00    -0.003 A 
ATOM      5  C   UNL     1     -12.303  13.523  66.949  0.00  0.00    +0.015 A 
ATOM      6  C   UNL     1     -11.119  13.089  67.530  0.00  0.00    +0.052 A 
ATOM      7  C   UNL     1     -10.204  12.512  66.657  0.00  0.00    +0.015 A 
ATOM      8  C   UNL     1     -10.462  12.362  65.307  0.00  0.00    -0.003 A 
ENDBRANCH   1   6
BRANCH   1   9
ATOM      9  C   UNL     1     -11.669  13.613  69.832  0.00  0.00    +0.055 A 
ATOM     10  C   UNL     1     -12.557  13.313  70.850  0.00  0.00    +0.057 A 
ATOM     11  C   UNL     1     -12.943  14.270  71.781  0.00  0.00    +0.197 A 
ATOM     12  O   UNL     1     -13.992  13.985  72.658  0.00  0.00    -0.287 OA
ATOM     13  C   UNL     1     -12.731  15.608  71.479  0.00  0.00    +0.042 A 
ATOM     14  C   UNL     1     -11.839  15.937  70.488  0.00  0.00    +0.005 A 
ATOM     15  C   UNL     1     -11.182  14.912  69.830  0.00  0.00    +0.015 A 
ENDBRANCH   1   9
BRANCH   1  16
ATOM     16  C   UNL     1     -11.836  11.314  69.026  0.00  0.00    +0.217 C 
BRANCH  16  17
ATOM     17  C   UNL     1     -10.938  10.346  69.685  0.00  0.00    +0.353 C 
ATOM     18  N   UNL     1     -11.344   9.685  70.890  0.00  0.00    -0.029 NA
ATOM     19  C   UNL     1     -10.200   9.010  71.453  0.00  0.00    +0.308 C 
ATOM     20  C   UNL     1      -9.146   9.272  70.399  0.00  0.00    +0.318 C 
ATOM     21  N   UNL     1      -9.949   9.662  69.244  0.00  0.00    -0.060 NA
ENDBRANCH  16  17
ENDBRANCH   1  16
TORSDOF 4
ENDMDL
MODEL 8
REMARK VINA RESULT:      -6.2      1.544      4.169
REMARK  Name = 
REMARK  4 active torsions:
REMARK  status: ('A' for Active; 'I' for Inactive)
REMARK    1  A    between atoms: C_5  and  N_6
REMARK    2  A    between atoms: N_6  and  C_7
REMARK    3  A    between atoms: N_6  and  C_13
REMARK    4  A    between atoms: C_7  and  C_8
REMARK                            x       y       z     vdW  Elec       q    Type
REMARK                         _______ _______ _______ _____ _____    ______ ____
ROOT
ATOM      1  N   UNL     1     -11.058  14.668  69.440  0.00  0.00    -0.276 N 
ENDROOT
BRANCH   1   6
ATOM      2  C   UNL     1      -7.477  17.313  66.208  0.00  0.00    +0.031 C 
ATOM      3  C   UNL     1      -8.339  16.903  67.355  0.00  0.00    -0.022 A 
ATOM      4  C   UNL     1      -9.607  17.438  67.543  0.00  0.00    -0.003 A 
ATOM      5  C   UNL     1     -10.526  16.661  68.236  0.00  0.00    +0.015 A 
ATOM      6  C   UNL     1     -10.123  15.724  69.178  0.00  0.00    +0.052 A 
ATOM      7  C   UNL     1      -8.754  15.491  69.237  0.00  0.00    +0.015 A 
ATOM      8  C   UNL     1      -7.857  16.132  68.402  0.00  0.00    -0.003 A 
ENDBRANCH   1   6
BRANCH   1   9
ATOM      9  C   UNL     1     -11.761  14.763  70.684  0.00  0.00    +0.055 A 
ATOM     10  C   UNL     1     -12.688  13.818  71.086  0.00  0.00    +0.057 A 
ATOM     11  C   UNL     1     -13.330  13.909  72.315  0.00  0.00    +0.197 A 
ATOM     12  O   UNL     1     -14.403  13.057  72.589  0.00  0.00    -0.287 OA
ATOM     13  C   UNL     1     -13.320  15.128  72.978  0.00  0.00    +0.042 A 
ATOM     14  C   UNL     1     -12.396  16.077  72.616  0.00  0.00    +0.005 A 
ATOM     15  C   UNL     1     -11.507  15.774  71.600  0.00  0.00    +0.015 A 
ENDBRANCH   1   9
BRANCH   1  16
ATOM     16  C   UNL     1     -11.877  14.296  68.291  0.00  0.00    +0.217 C 
BRANCH  16  17
ATOM     17  C   UNL     1     -11.364  13.098  67.598  0.00  0.00    +0.353 C 
ATOM     18  N   UNL     1     -11.917  11.805  67.879  0.00  0.00    -0.029 NA
ATOM     19  C   UNL     1     -11.073  10.803  67.277  0.00  0.00    +0.308 C 
ATOM     20  C   UNL     1     -10.057  11.658  66.551  0.00  0.00    +0.318 C 
ATOM     21  N   UNL     1     -10.722  12.956  66.499  0.00  0.00    -0.060 NA
ENDBRANCH  16  17
ENDBRANCH   1  16
TORSDOF 4
ENDMDL
MODEL 9
REMARK VINA RESULT:      -6.2      3.214      5.484
REMARK  Name = 
REMARK  4 active torsions:
REMARK  status: ('A' for Active; 'I' for Inactive)
REMARK    1  A    between atoms: C_5  and  N_6
REMARK    2  A    between atoms: N_6  and  C_7
REMARK    3  A    between atoms: N_6  and  C_13
REMARK    4  A    between atoms: C_7  and  C_8
REMARK                            x       y       z     vdW  Elec       q    Type
REMARK                         _______ _______ _______ _____ _____    ______ ____
ROOT
ATOM      1  N   UNL     1     -11.989  13.016  70.171  0.00  0.00    -0.276 N 
ENDROOT
BRANCH   1   6
ATOM      2  C   UNL     1     -10.811   8.137  72.422  0.00  0.00    +0.031 C 
ATOM      3  C   UNL     1     -11.306   9.213  71.516  0.00  0.00    -0.022 A 
ATOM      4  C   UNL     1     -12.600   9.710  71.611  0.00  0.00    -0.003 A 
ATOM      5  C   UNL     1     -12.814  11.009  71.168  0.00  0.00    +0.015 A 
ATOM      6  C   UNL     1     -12.021  11.582  70.183  0.00  0.00    +0.052 A 
ATOM      7  C   UNL     1     -10.902  10.843  69.816  0.00  0.00    +0.015 A 
ATOM      8  C   UNL     1     -10.588   9.633  70.405  0.00  0.00    -0.003 A 
ENDBRANCH   1   6
BRANCH   1   9
ATOM      9  C   UNL     1     -11.463  13.610  68.978  0.00  0.00    +0.055 A 
ATOM     10  C   UNL     1     -12.128  13.554  67.766  0.00  0.00    +0.057 A 
ATOM     11  C   UNL     1     -11.617  14.170  66.630  0.00  0.00    +0.197 A 
ATOM     12  O   UNL     1     -12.209  13.913  65.391  0.00  0.00    -0.287 OA
ATOM     13  C   UNL     1     -10.276  14.525  66.617  0.00  0.00    +0.042 A 
ATOM     14  C   UNL     1      -9.596  14.611  67.807  0.00  0.00    +0.005 A 
ATOM     15  C   UNL     1     -10.283  14.340  68.977  0.00  0.00    +0.015 A 
ENDBRANCH   1   9
BRANCH   1  16
ATOM     16  C   UNL     1     -13.195  13.645  70.699  0.00  0.00    +0.217 C 
BRANCH  16  17
ATOM     17  C   UNL     1     -12.919  14.493  71.875  0.00  0.00    +0.353 C 
ATOM     18  N   UNL     1     -12.499  15.854  71.705  0.00  0.00    -0.029 NA
ATOM     19  C   UNL     1     -12.052  16.360  72.979  0.00  0.00    +0.308 C 
ATOM     20  C   UNL     1     -12.355  15.192  73.893  0.00  0.00    +0.318 C 
ATOM     21  N   UNL     1     -13.295  14.409  73.096  0.00  0.00    -0.060 NA
ENDBRANCH  16  17
ENDBRANCH   1  16
TORSDOF 4
ENDMDL
