MODEL 1
REMARK VINA RESULT:      -6.8      0.000      0.000
REMARK  Name = 
REMARK  8 active torsions:
REMARK  status: ('A' for Active; 'I' for Inactive)
REMARK    1  A    between atoms: C_2  and  C_3
REMARK    2  A    between atoms: C_2  and  N_11
REMARK    3  A    between atoms: C_3  and  C_4
REMARK    4  A    between atoms: C_4  and  C_5
REMARK    5  A    between atoms: N_11  and  C_12
REMARK    6  A    between atoms: C_12  and  C_13
REMARK    7  A    between atoms: C_13  and  C_15
REMARK    8  A    between atoms: C_20  and  C_21
REMARK                            x       y       z     vdW  Elec       q    Type
REMARK                         _______ _______ _______ _____ _____    ______ ____
ROOT
ATOM      1  C   UNL     1     -11.257  12.417  68.960  0.00  0.00    +0.126 C 
ENDROOT
BRANCH   1   2
ATOM      2  C   UNL     1     -10.668  10.879  68.800  0.00  0.00    +0.192 C 
ATOM      3  O   UNL     1     -11.695  10.546  67.724  0.00  0.00    -0.217 OA
BRANCH   2   4
ATOM      4  C   UNL     1     -11.645  10.340  69.979  0.00  0.00    +0.009 A 
ATOM      5  C   UNL     1     -11.093   9.342  70.743  0.00  0.00    +0.006 A 
ATOM      6  C   UNL     1     -11.912   8.818  71.738  0.00  0.00    +0.095 A 
ATOM      7  C   UNL     1     -13.065   9.512  72.101  0.00  0.00    +0.200 A 
ATOM      8  O   UNL     1     -14.127   8.864  72.739  0.00  0.00    -0.286 OA
ATOM      9  C   UNL     1     -13.150  10.834  71.678  0.00  0.00    +0.042 A 
ATOM     10  C   UNL     1     -12.359  11.304  70.632  0.00  0.00    +0.001 A 
BRANCH   6  11
ATOM     11  C   UNL     1     -11.839   7.401  72.115  0.00  0.00    +0.287 C 
ATOM     12  O   UNL     1     -11.974   6.479  71.255  0.00  0.00    -0.267 OA
ATOM     13  N   UNL     1     -10.966   7.089  73.201  0.00  0.00    -0.084 NA
ENDBRANCH   6  11
ENDBRANCH   2   4
ENDBRANCH   1   2
BRANCH   1  14
ATOM     14  N   UNL     1     -11.466  12.688  67.536  0.00  0.00    -0.216 NA
BRANCH  14  16
ATOM     15  C   UNL     1     -10.686  14.710  66.717  0.00  0.00    +0.019 C 
ATOM     16  C   UNL     1     -11.979  14.175  67.575  0.00  0.00    +0.073 C 
BRANCH  16  17
ATOM     17  C   UNL     1     -11.252  14.519  69.013  0.00  0.00    +0.022 C 
BRANCH  17  18
ATOM     18  C   UNL     1     -11.946  15.681  69.515  0.00  0.00    +0.028 C 
BRANCH  18  19
ATOM     19  C   UNL     1     -12.619  15.774  70.770  0.00  0.00    -0.022 A 
ATOM     20  C   UNL     1     -13.394  14.659  71.099  0.00  0.00    -0.004 A 
ATOM     21  C   UNL     1     -13.780  14.454  72.411  0.00  0.00    -0.000 A 
ATOM     22  C   UNL     1     -13.034  15.016  73.412  0.00  0.00    -0.000 A 
ATOM     23  C   UNL     1     -12.106  15.994  73.139  0.00  0.00    -0.000 A 
ATOM     24  C   UNL     1     -11.780  16.178  71.815  0.00  0.00    -0.004 A 
ENDBRANCH  18  19
ENDBRANCH  17  18
ENDBRANCH  16  17
ENDBRANCH  14  16
ENDBRANCH   1  14
TORSDOF 8
ENDMDL
MODEL 2
REMARK VINA RESULT:      -6.8      4.277      5.703
REMARK  Name = 
REMARK  8 active torsions:
REMARK  status: ('A' for Active; 'I' for Inactive)
REMARK    1  A    between atoms: C_2  and  C_3
REMARK    2  A    between atoms: C_2  and  N_11
REMARK    3  A    between atoms: C_3  and  C_4
REMARK    4  A    between atoms: C_4  and  C_5
REMARK    5  A    between atoms: N_11  and  C_12
REMARK    6  A    between atoms: C_12  and  C_13
REMARK    7  A    between atoms: C_13  and  C_15
REMARK    8  A    between atoms: C_20  and  C_21
REMARK                            x       y       z     vdW  Elec       q    Type
REMARK                         _______ _______ _______ _____ _____    ______ ____
ROOT
ATOM      1  C   UNL     1      -8.961  16.532  67.460  0.00  0.00    +0.126 C 
ENDROOT
BRANCH   1   2
ATOM      2  C   UNL     1      -8.716  15.966  65.924  0.00  0.00    +0.192 C 
ATOM      3  O   UNL     1      -9.948  16.697  65.407  0.00  0.00    -0.217 OA
BRANCH   2   4
ATOM      4  C   UNL     1      -9.574  14.624  66.240  0.00  0.00    +0.009 A 
ATOM      5  C   UNL     1     -10.417  14.254  65.221  0.00  0.00    +0.006 A 
ATOM      6  C   UNL     1     -11.205  13.135  65.466  0.00  0.00    +0.095 A 
ATOM      7  C   UNL     1     -10.888  12.303  66.538  0.00  0.00    +0.200 A 
ATOM      8  O   UNL     1     -11.845  11.452  67.102  0.00  0.00    -0.286 OA
ATOM      9  C   UNL     1      -9.622  12.464  67.091  0.00  0.00    +0.042 A 
ATOM     10  C   UNL     1      -8.890  13.629  66.877  0.00  0.00    +0.001 A 
BRANCH   6  11
ATOM     11  C   UNL     1     -12.563  13.027  64.918  0.00  0.00    +0.287 C 
ATOM     12  O   UNL     1     -13.459  13.881  65.193  0.00  0.00    -0.267 OA
ATOM     13  N   UNL     1     -12.667  12.444  63.618  0.00  0.00    -0.084 NA
ENDBRANCH   6  11
ENDBRANCH   2   4
ENDBRANCH   1   2
BRANCH   1  14
ATOM     14  N   UNL     1     -10.372  16.889  67.306  0.00  0.00    -0.216 NA
BRANCH  14  16
ATOM     15  C   UNL     1      -9.486  16.173  69.324  0.00  0.00    +0.019 C 
ATOM     16  C   UNL     1     -10.847  16.931  68.807  0.00  0.00    +0.073 C 
BRANCH  16  17
ATOM     17  C   UNL     1     -11.681  15.514  68.712  0.00  0.00    +0.022 C 
BRANCH  17  18
ATOM     18  C   UNL     1     -11.342  14.799  69.920  0.00  0.00    +0.028 C 
BRANCH  18  19
ATOM     19  C   UNL     1     -12.154  14.705  71.090  0.00  0.00    -0.022 A 
ATOM     20  C   UNL     1     -11.612  15.314  72.225  0.00  0.00    -0.004 A 
ATOM     21  C   UNL     1     -12.431  15.625  73.294  0.00  0.00    -0.000 A 
ATOM     22  C   UNL     1     -13.770  15.799  73.069  0.00  0.00    -0.000 A 
ATOM     23  C   UNL     1     -14.347  15.393  71.888  0.00  0.00    -0.000 A 
ATOM     24  C   UNL     1     -13.487  15.067  70.865  0.00  0.00    -0.004 A 
ENDBRANCH  18  19
ENDBRANCH  17  18
ENDBRANCH  16  17
ENDBRANCH  14  16
ENDBRANCH   1  14
TORSDOF 8
ENDMDL
MODEL 3
REMARK VINA RESULT:      -6.7      3.902      5.457
REMARK  Name = 
REMARK  8 active torsions:
REMARK  status: ('A' for Active; 'I' for Inactive)
REMARK    1  A    between atoms: C_2  and  C_3
REMARK    2  A    between atoms: C_2  and  N_11
REMARK    3  A    between atoms: C_3  and  C_4
REMARK    4  A    between atoms: C_4  and  C_5
REMARK    5  A    between atoms: N_11  and  C_12
REMARK    6  A    between atoms: C_12  and  C_13
REMARK    7  A    between atoms: C_13  and  C_15
REMARK    8  A    between atoms: C_20  and  C_21
REMARK                            x       y       z     vdW  Elec       q    Type
REMARK                         _______ _______ _______ _____ _____    ______ ____
ROOT
ATOM      1  C   UNL     1      -9.238  15.694  67.381  0.00  0.00    +0.126 C 
ENDROOT
BRANCH   1   2
ATOM      2  C   UNL     1      -8.973  15.854  65.756  0.00  0.00    +0.192 C 
ATOM      3  O   UNL     1      -9.881  17.076  65.680  0.00  0.00    -0.217 OA
BRANCH   2   4
ATOM      4  C   UNL     1     -10.202  14.849  65.417  0.00  0.00    +0.009 A 
ATOM      5  C   UNL     1     -10.415  13.891  66.378  0.00  0.00    +0.006 A 
ATOM      6  C   UNL     1     -11.430  12.980  66.108  0.00  0.00    +0.095 A 
ATOM      7  C   UNL     1     -12.340  13.260  65.091  0.00  0.00    +0.200 A 
ATOM      8  O   UNL     1     -13.081  12.242  64.482  0.00  0.00    -0.286 OA
ATOM      9  C   UNL     1     -12.371  14.573  64.633  0.00  0.00    +0.042 A 
ATOM     10  C   UNL     1     -11.304  15.438  64.867  0.00  0.00    +0.001 A 
BRANCH   6  11
ATOM     11  C   UNL     1     -11.335  11.583  66.552  0.00  0.00    +0.287 C 
ATOM     12  O   UNL     1     -10.345  10.854  66.240  0.00  0.00    -0.267 OA
ATOM     13  N   UNL     1     -11.922  11.291  67.821  0.00  0.00    -0.084 NA
ENDBRANCH   6  11
ENDBRANCH   2   4
ENDBRANCH   1   2
BRANCH   1  14
ATOM     14  N   UNL     1      -9.766  17.038  67.620  0.00  0.00    -0.216 NA
BRANCH  14  16
ATOM     15  C   UNL     1      -9.133  15.664  69.374  0.00  0.00    +0.019 C 
ATOM     16  C   UNL     1     -10.099  16.973  69.157  0.00  0.00    +0.073 C 
BRANCH  16  17
ATOM     17  C   UNL     1     -11.438  16.035  68.954  0.00  0.00    +0.022 C 
BRANCH  17  18
ATOM     18  C   UNL     1     -11.316  14.989  69.942  0.00  0.00    +0.028 C 
BRANCH  18  19
ATOM     19  C   UNL     1     -12.091  14.872  71.134  0.00  0.00    -0.022 A 
ATOM     20  C   UNL     1     -11.678  15.702  72.180  0.00  0.00    -0.004 A 
ATOM     21  C   UNL     1     -12.541  15.966  73.228  0.00  0.00    -0.000 A 
ATOM     22  C   UNL     1     -13.889  15.846  73.016  0.00  0.00    -0.000 A 
ATOM     23  C   UNL     1     -14.376  15.204  71.902  0.00  0.00    -0.000 A 
ATOM     24  C   UNL     1     -13.470  14.938  70.902  0.00  0.00    -0.004 A 
ENDBRANCH  18  19
ENDBRANCH  17  18
ENDBRANCH  16  17
ENDBRANCH  14  16
ENDBRANCH   1  14
TORSDOF 8
ENDMDL
MODEL 4
REMARK VINA RESULT:      -6.4      3.162      5.267
REMARK  Name = 
REMARK  8 active torsions:
REMARK  status: ('A' for Active; 'I' for Inactive)
REMARK    1  A    between atoms: C_2  and  C_3
REMARK    2  A    between atoms: C_2  and  N_11
REMARK    3  A    between atoms: C_3  and  C_4
REMARK    4  A    between atoms: C_4  and  C_5
REMARK    5  A    between atoms: N_11  and  C_12
REMARK    6  A    between atoms: C_12  and  C_13
REMARK    7  A    between atoms: C_13  and  C_15
REMARK    8  A    between atoms: C_20  and  C_21
REMARK                            x       y       z     vdW  Elec       q    Type
REMARK                         _______ _______ _______ _____ _____    ______ ____
ROOT
ATOM      1  C   UNL     1     -11.577  12.519  67.300  0.00  0.00    +0.126 C 
ENDROOT
BRANCH   1   2
ATOM      2  C   UNL     1     -10.282  12.707  68.313  0.00  0.00    +0.192 C 
ATOM      3  O   UNL     1     -10.138  11.200  68.488  0.00  0.00    -0.217 OA
BRANCH   2   4
ATOM      4  C   UNL     1     -11.258  12.822  69.604  0.00  0.00    +0.009 A 
ATOM      5  C   UNL     1     -12.026  13.960  69.618  0.00  0.00    +0.006 A 
ATOM      6  C   UNL     1     -12.846  14.123  70.729  0.00  0.00    +0.095 A 
ATOM      7  C   UNL     1     -13.077  13.034  71.567  0.00  0.00    +0.200 A 
ATOM      8  O   UNL     1     -13.500  13.213  72.888  0.00  0.00    -0.286 OA
ATOM      9  C   UNL     1     -12.738  11.783  71.061  0.00  0.00    +0.042 A 
ATOM     10  C   UNL     1     -11.860  11.658  69.987  0.00  0.00    +0.001 A 
BRANCH   6  11
ATOM     11  C   UNL     1     -13.131  15.456  71.275  0.00  0.00    +0.287 C 
ATOM     12  O   UNL     1     -14.291  15.774  71.677  0.00  0.00    -0.267 OA
ATOM     13  N   UNL     1     -12.058  16.085  71.977  0.00  0.00    -0.084 NA
ENDBRANCH   6  11
ENDBRANCH   2   4
ENDBRANCH   1   2
BRANCH   1  14
ATOM     14  N   UNL     1     -10.999  13.184  66.130  0.00  0.00    -0.216 NA
BRANCH  14  16
ATOM     15  C   UNL     1     -12.080  14.444  64.513  0.00  0.00    +0.019 C 
ATOM     16  C   UNL     1     -11.791  14.545  66.125  0.00  0.00    +0.073 C 
BRANCH  16  17
ATOM     17  C   UNL     1     -10.447  15.468  65.894  0.00  0.00    +0.022 C 
BRANCH  17  18
ATOM     18  C   UNL     1     -10.280  16.202  67.127  0.00  0.00    +0.028 C 
BRANCH  18  19
ATOM     19  C   UNL     1     -10.561  17.587  67.319  0.00  0.00    -0.022 A 
ATOM     20  C   UNL     1      -9.915  18.166  68.415  0.00  0.00    -0.004 A 
ATOM     21  C   UNL     1      -9.795  19.541  68.493  0.00  0.00    -0.000 A 
ATOM     22  C   UNL     1      -9.845  20.273  67.337  0.00  0.00    -0.000 A 
ATOM     23  C   UNL     1     -10.294  19.713  66.164  0.00  0.00    -0.000 A 
ATOM     24  C   UNL     1     -10.425  18.343  66.149  0.00  0.00    -0.004 A 
ENDBRANCH  18  19
ENDBRANCH  17  18
ENDBRANCH  16  17
ENDBRANCH  14  16
ENDBRANCH   1  14
TORSDOF 8
ENDMDL
MODEL 5
REMARK VINA RESULT:      -6.3      2.934      6.388
REMARK  Name = 
REMARK  8 active torsions:
REMARK  status: ('A' for Active; 'I' for Inactive)
REMARK    1  A    between atoms: C_2  and  C_3
REMARK    2  A    between atoms: C_2  and  N_11
REMARK    3  A    between atoms: C_3  and  C_4
REMARK    4  A    between atoms: C_4  and  C_5
REMARK    5  A    between atoms: N_11  and  C_12
REMARK    6  A    between atoms: C_12  and  C_13
REMARK    7  A    between atoms: C_13  and  C_15
REMARK    8  A    between atoms: C_20  and  C_21
REMARK                            x       y       z     vdW  Elec       q    Type
REMARK                         _______ _______ _______ _____ _____    ______ ____
ROOT
ATOM      1  C   UNL     1     -12.467  15.567  69.917  0.00  0.00    +0.126 C 
ENDROOT
BRANCH   1   2
ATOM      2  C   UNL     1     -10.893  15.845  69.487  0.00  0.00    +0.192 C 
ATOM      3  O   UNL     1     -11.317  16.745  68.333  0.00  0.00    -0.217 OA
BRANCH   2   4
ATOM      4  C   UNL     1     -10.881  14.531  68.533  0.00  0.00    +0.009 A 
ATOM      5  C   UNL     1     -11.325  14.770  67.256  0.00  0.00    +0.006 A 
ATOM      6  C   UNL     1     -11.375  13.663  66.416  0.00  0.00    +0.095 A 
ATOM      7  C   UNL     1     -10.705  12.500  66.788  0.00  0.00    +0.200 A 
ATOM      8  O   UNL     1     -11.059  11.258  66.250  0.00  0.00    -0.286 OA
ATOM      9  C   UNL     1      -9.769  12.625  67.809  0.00  0.00    +0.042 A 
ATOM     10  C   UNL     1      -9.794  13.717  68.673  0.00  0.00    +0.001 A 
BRANCH   6  11
ATOM     11  C   UNL     1     -12.416  13.534  65.389  0.00  0.00    +0.287 C 
ATOM     12  O   UNL     1     -13.553  14.080  65.525  0.00  0.00    -0.267 OA
ATOM     13  N   UNL     1     -11.955  13.434  64.041  0.00  0.00    -0.084 NA
ENDBRANCH   6  11
ENDBRANCH   2   4
ENDBRANCH   1   2
BRANCH   1  14
ATOM     14  N   UNL     1     -12.198  14.666  71.040  0.00  0.00    -0.216 NA
BRANCH  14  16
ATOM     15  C   UNL     1     -13.188  15.100  73.090  0.00  0.00    +0.019 C 
ATOM     16  C   UNL     1     -13.642  14.479  71.640  0.00  0.00    +0.073 C 
BRANCH  16  17
ATOM     17  C   UNL     1     -13.369  12.934  72.140  0.00  0.00    +0.022 C 
BRANCH  17  18
ATOM     18  C   UNL     1     -12.720  12.288  71.023  0.00  0.00    +0.028 C 
BRANCH  18  19
ATOM     19  C   UNL     1     -12.601  10.880  70.827  0.00  0.00    -0.022 A 
ATOM     20  C   UNL     1     -11.331  10.453  70.430  0.00  0.00    -0.004 A 
ATOM     21  C   UNL     1     -10.980   9.123  70.571  0.00  0.00    -0.000 A 
ATOM     22  C   UNL     1     -11.633   8.365  71.505  0.00  0.00    -0.000 A 
ATOM     23  C   UNL     1     -12.798   8.807  72.086  0.00  0.00    -0.000 A 
ATOM     24  C   UNL     1     -13.117  10.131  71.890  0.00  0.00    -0.004 A 
ENDBRANCH  18  19
ENDBRANCH  17  18
ENDBRANCH  16  17
ENDBRANCH  14  16
ENDBRANCH   1  14
TORSDOF 8
ENDMDL
MODEL 6
REMARK VINA RESULT:      -6.3      3.358      6.206
REMARK  Name = 
REMARK  8 active torsions:
REMARK  status: ('A' for Active; 'I' for Inactive)
REMARK    1  A    between atoms: C_2  and  C_3
REMARK    2  A    between atoms: C_2  and  N_11
REMARK    3  A    between atoms: C_3  and  C_4
REMARK    4  A    between atoms: C_4  and  C_5
REMARK    5  A    between atoms: N_11  and  C_12
REMARK    6  A    between atoms: C_12  and  C_13
REMARK    7  A    between atoms: C_13  and  C_15
REMARK    8  A    between atoms: C_20  and  C_21
REMARK                            x       y       z     vdW  Elec       q    Type
REMARK                         _______ _______ _______ _____ _____    ______ ____
ROOT
ATOM      1  C   UNL     1      -9.698  10.957  67.037  0.00  0.00    +0.126 C 
ENDROOT
BRANCH   1   2
ATOM      2  C   UNL     1     -10.110  10.231  65.608  0.00  0.00    +0.192 C 
ATOM      3  O   UNL     1      -8.787  10.632  64.967  0.00  0.00    -0.217 OA
BRANCH   2   4
ATOM      4  C   UNL     1     -10.839  11.585  65.086  0.00  0.00    +0.009 A 
ATOM      5  C   UNL     1     -10.108  12.727  65.307  0.00  0.00    +0.006 A 
ATOM      6  C   UNL     1     -10.713  13.916  64.916  0.00  0.00    +0.095 A 
ATOM      7  C   UNL     1     -11.823  13.868  64.076  0.00  0.00    +0.200 A 
ATOM      8  O   UNL     1     -12.722  14.937  64.003  0.00  0.00    -0.286 OA
ATOM      9  C   UNL     1     -12.054  12.661  63.425  0.00  0.00    +0.042 A 
ATOM     10  C   UNL     1     -11.482  11.478  63.887  0.00  0.00    +0.001 A 
BRANCH   6  11
ATOM     11  C   UNL     1     -10.497  15.161  65.666  0.00  0.00    +0.287 C 
ATOM     12  O   UNL     1     -10.378  16.277  65.076  0.00  0.00    -0.267 OA
ATOM     13  N   UNL     1     -11.103  15.224  66.957  0.00  0.00    -0.084 NA
ENDBRANCH   6  11
ENDBRANCH   2   4
ENDBRANCH   1   2
BRANCH   1  14
ATOM     14  N   UNL     1     -10.833  10.475  67.827  0.00  0.00    -0.216 NA
BRANCH  14  16
ATOM     15  C   UNL     1     -11.586  10.129  69.991  0.00  0.00    +0.019 C 
ATOM     16  C   UNL     1     -10.540  11.136  69.226  0.00  0.00    +0.073 C 
BRANCH  16  17
ATOM     17  C   UNL     1     -11.686  12.305  69.053  0.00  0.00    +0.022 C 
BRANCH  17  18
ATOM     18  C   UNL     1     -12.201  12.525  70.384  0.00  0.00    +0.028 C 
BRANCH  18  19
ATOM     19  C   UNL     1     -12.650  13.773  70.910  0.00  0.00    -0.022 A 
ATOM     20  C   UNL     1     -13.164  13.707  72.207  0.00  0.00    -0.004 A 
ATOM     21  C   UNL     1     -13.277  14.860  72.961  0.00  0.00    -0.000 A 
ATOM     22  C   UNL     1     -12.469  15.924  72.661  0.00  0.00    -0.000 A 
ATOM     23  C   UNL     1     -11.775  15.972  71.475  0.00  0.00    -0.000 A 
ATOM     24  C   UNL     1     -11.718  14.805  70.749  0.00  0.00    -0.004 A 
ENDBRANCH  18  19
ENDBRANCH  17  18
ENDBRANCH  16  17
ENDBRANCH  14  16
ENDBRANCH   1  14
TORSDOF 8
ENDMDL
MODEL 7
REMARK VINA RESULT:      -6.3      5.780      8.921
REMARK  Name = 
REMARK  8 active torsions:
REMARK  status: ('A' for Active; 'I' for Inactive)
REMARK    1  A    between atoms: C_2  and  C_3
REMARK    2  A    between atoms: C_2  and  N_11
REMARK    3  A    between atoms: C_3  and  C_4
REMARK    4  A    between atoms: C_4  and  C_5
REMARK    5  A    between atoms: N_11  and  C_12
REMARK    6  A    between atoms: C_12  and  C_13
REMARK    7  A    between atoms: C_13  and  C_15
REMARK    8  A    between atoms: C_20  and  C_21
REMARK                            x       y       z     vdW  Elec       q    Type
REMARK                         _______ _______ _______ _____ _____    ______ ____
ROOT
ATOM      1  C   UNL     1      -9.407  17.042  67.996  0.00  0.00    +0.126 C 
ENDROOT
BRANCH   1   2
ATOM      2  C   UNL     1     -10.012  18.344  68.819  0.00  0.00    +0.192 C 
ATOM      3  O   UNL     1     -10.925  18.715  67.656  0.00  0.00    -0.217 OA
BRANCH   2   4
ATOM      4  C   UNL     1      -8.822  19.298  68.264  0.00  0.00    +0.009 A 
ATOM      5  C   UNL     1      -7.617  19.103  68.894  0.00  0.00    +0.006 A 
ATOM      6  C   UNL     1      -6.579  19.931  68.482  0.00  0.00    +0.095 A 
ATOM      7  C   UNL     1      -6.715  20.650  67.296  0.00  0.00    +0.200 A 
ATOM      8  O   UNL     1      -5.948  21.794  67.051  0.00  0.00    -0.286 OA
ATOM      9  C   UNL     1      -7.737  20.247  66.443  0.00  0.00    +0.042 A 
ATOM     10  C   UNL     1      -8.796  19.473  66.910  0.00  0.00    +0.001 A 
BRANCH   6  11
ATOM     11  C   UNL     1      -5.551  20.389  69.426  0.00  0.00    +0.287 C 
ATOM     12  O   UNL     1      -5.856  20.821  70.578  0.00  0.00    -0.267 OA
ATOM     13  N   UNL     1      -4.290  19.724  69.346  0.00  0.00    -0.084 NA
ENDBRANCH   6  11
ENDBRANCH   2   4
ENDBRANCH   1   2
BRANCH   1  14
ATOM     14  N   UNL     1     -10.690  16.463  67.590  0.00  0.00    -0.216 NA
BRANCH  14  16
ATOM     15  C   UNL     1     -10.891  14.830  65.959  0.00  0.00    +0.019 C 
ATOM     16  C   UNL     1     -10.324  14.935  67.495  0.00  0.00    +0.073 C 
BRANCH  16  17
ATOM     17  C   UNL     1     -11.756  14.425  68.130  0.00  0.00    +0.022 C 
BRANCH  17  18
ATOM     18  C   UNL     1     -11.500  14.253  69.540  0.00  0.00    +0.028 C 
BRANCH  18  19
ATOM     19  C   UNL     1     -12.314  14.747  70.603  0.00  0.00    -0.022 A 
ATOM     20  C   UNL     1     -12.896  13.757  71.399  0.00  0.00    -0.004 A 
ATOM     21  C   UNL     1     -13.380  14.081  72.653  0.00  0.00    -0.000 A 
ATOM     22  C   UNL     1     -12.870  15.180  73.292  0.00  0.00    -0.000 A 
ATOM     23  C   UNL     1     -12.121  16.110  72.610  0.00  0.00    -0.000 A 
ATOM     24  C   UNL     1     -11.689  15.749  71.355  0.00  0.00    -0.004 A 
ENDBRANCH  18  19
ENDBRANCH  17  18
ENDBRANCH  16  17
ENDBRANCH  14  16
ENDBRANCH   1  14
TORSDOF 8
ENDMDL
MODEL 8
REMARK VINA RESULT:      -6.3      3.687      5.063
REMARK  Name = 
REMARK  8 active torsions:
REMARK  status: ('A' for Active; 'I' for Inactive)
REMARK    1  A    between atoms: C_2  and  C_3
REMARK    2  A    between atoms: C_2  and  N_11
REMARK    3  A    between atoms: C_3  and  C_4
REMARK    4  A    between atoms: C_4  and  C_5
REMARK    5  A    between atoms: N_11  and  C_12
REMARK    6  A    between atoms: C_12  and  C_13
REMARK    7  A    between atoms: C_13  and  C_15
REMARK    8  A    between atoms: C_20  and  C_21
REMARK                            x       y       z     vdW  Elec       q    Type
REMARK                         _______ _______ _______ _____ _____    ______ ____
ROOT
ATOM      1  C   UNL     1     -11.335  14.807  66.415  0.00  0.00    +0.126 C 
ENDROOT
BRANCH   1   2
ATOM      2  C   UNL     1     -11.843  14.608  64.853  0.00  0.00    +0.192 C 
ATOM      3  O   UNL     1     -13.176  14.027  65.310  0.00  0.00    -0.217 OA
BRANCH   2   4
ATOM      4  C   UNL     1     -11.162  13.136  64.777  0.00  0.00    +0.009 A 
ATOM      5  C   UNL     1     -11.302  12.401  65.929  0.00  0.00    +0.006 A 
ATOM      6  C   UNL     1     -10.696  11.150  65.925  0.00  0.00    +0.095 A 
ATOM      7  C   UNL     1     -10.278  10.603  64.714  0.00  0.00    +0.200 A 
ATOM      8  O   UNL     1      -9.300   9.603  64.671  0.00  0.00    -0.286 OA
ATOM      9  C   UNL     1     -10.784  11.194  63.561  0.00  0.00    +0.042 A 
ATOM     10  C   UNL     1     -11.325  12.477  63.593  0.00  0.00    +0.001 A 
BRANCH   6  11
ATOM     11  C   UNL     1     -10.114  10.584  67.149  0.00  0.00    +0.287 C 
ATOM     12  O   UNL     1      -9.083  11.090  67.688  0.00  0.00    -0.267 OA
ATOM     13  N   UNL     1     -11.037   9.985  68.059  0.00  0.00    -0.084 NA
ENDBRANCH   6  11
ENDBRANCH   2   4
ENDBRANCH   1   2
BRANCH   1  14
ATOM     14  N   UNL     1     -10.591  16.052  66.214  0.00  0.00    -0.216 NA
BRANCH  14  16
ATOM     15  C   UNL     1      -9.237  14.864  67.671  0.00  0.00    +0.019 C 
ATOM     16  C   UNL     1     -10.018  16.307  67.658  0.00  0.00    +0.073 C 
BRANCH  16  17
ATOM     17  C   UNL     1     -11.332  15.679  68.426  0.00  0.00    +0.022 C 
BRANCH  17  18
ATOM     18  C   UNL     1     -11.134  15.988  69.822  0.00  0.00    +0.028 C 
BRANCH  18  19
ATOM     19  C   UNL     1     -11.892  15.462  70.910  0.00  0.00    -0.022 A 
ATOM     20  C   UNL     1     -11.765  16.174  72.106  0.00  0.00    -0.004 A 
ATOM     21  C   UNL     1     -12.707  16.012  73.105  0.00  0.00    -0.000 A 
ATOM     22  C   UNL     1     -13.960  15.578  72.763  0.00  0.00    -0.000 A 
ATOM     23  C   UNL     1     -14.208  15.036  71.524  0.00  0.00    -0.000 A 
ATOM     24  C   UNL     1     -13.225  15.199  70.575  0.00  0.00    -0.004 A 
ENDBRANCH  18  19
ENDBRANCH  17  18
ENDBRANCH  16  17
ENDBRANCH  14  16
ENDBRANCH   1  14
TORSDOF 8
ENDMDL
MODEL 9
REMARK VINA RESULT:      -6.2      2.430      5.108
REMARK  Name = 
REMARK  8 active torsions:
REMARK  status: ('A' for Active; 'I' for Inactive)
REMARK    1  A    between atoms: C_2  and  C_3
REMARK    2  A    between atoms: C_2  and  N_11
REMARK    3  A    between atoms: C_3  and  C_4
REMARK    4  A    between atoms: C_4  and  C_5
REMARK    5  A    between atoms: N_11  and  C_12
REMARK    6  A    between atoms: C_12  and  C_13
REMARK    7  A    between atoms: C_13  and  C_15
REMARK    8  A    between atoms: C_20  and  C_21
REMARK                            x       y       z     vdW  Elec       q    Type
REMARK                         _______ _______ _______ _____ _____    ______ ____
ROOT
ATOM      1  C   UNL     1     -11.293  15.597  70.165  0.00  0.00    +0.126 C 
ENDROOT
BRANCH   1   2
ATOM      2  C   UNL     1     -12.835  15.678  70.759  0.00  0.00    +0.192 C 
ATOM      3  O   UNL     1     -12.329  15.778  72.193  0.00  0.00    -0.217 OA
BRANCH   2   4
ATOM      4  C   UNL     1     -12.929  14.059  70.845  0.00  0.00    +0.009 A 
ATOM      5  C   UNL     1     -11.910  13.410  70.193  0.00  0.00    +0.006 A 
ATOM      6  C   UNL     1     -11.974  12.021  70.202  0.00  0.00    +0.095 A 
ATOM      7  C   UNL     1     -12.839  11.389  71.092  0.00  0.00    +0.200 A 
ATOM      8  O   UNL     1     -13.278  10.080  70.867  0.00  0.00    -0.286 OA
ATOM      9  C   UNL     1     -13.336  12.169  72.131  0.00  0.00    +0.042 A 
ATOM     10  C   UNL     1     -13.314  13.559  72.055  0.00  0.00    +0.001 A 
BRANCH   6  11
ATOM     11  C   UNL     1     -11.497  11.231  69.059  0.00  0.00    +0.287 C 
ATOM     12  O   UNL     1     -12.178  11.128  67.995  0.00  0.00    -0.267 OA
ATOM     13  N   UNL     1     -10.082  11.193  68.875  0.00  0.00    -0.084 NA
ENDBRANCH   6  11
ENDBRANCH   2   4
ENDBRANCH   1   2
BRANCH   1  14
ATOM     14  N   UNL     1     -11.498  16.448  68.991  0.00  0.00    -0.216 NA
BRANCH  14  16
ATOM     15  C   UNL     1     -10.542  17.958  67.516  0.00  0.00    +0.019 C 
ATOM     16  C   UNL     1     -10.040  16.985  68.738  0.00  0.00    +0.073 C 
BRANCH  16  17
ATOM     17  C   UNL     1      -9.641  15.771  67.698  0.00  0.00    +0.022 C 
BRANCH  17  18
ATOM     18  C   UNL     1     -10.885  15.391  67.072  0.00  0.00    +0.028 C 
BRANCH  18  19
ATOM     19  C   UNL     1     -11.218  14.087  66.598  0.00  0.00    -0.022 A 
ATOM     20  C   UNL     1     -12.375  14.029  65.817  0.00  0.00    -0.004 A 
ATOM     21  C   UNL     1     -12.598  12.935  65.001  0.00  0.00    -0.000 A 
ATOM     22  C   UNL     1     -11.524  12.194  64.586  0.00  0.00    -0.000 A 
ATOM     23  C   UNL     1     -10.294  12.334  65.185  0.00  0.00    -0.000 A 
ATOM     24  C   UNL     1     -10.135  13.422  66.012  0.00  0.00    -0.004 A 
ENDBRANCH  18  19
ENDBRANCH  17  18
ENDBRANCH  16  17
ENDBRANCH  14  16
ENDBRANCH   1  14
TORSDOF 8
ENDMDL
