MODEL 1
REMARK VINA RESULT:      -6.9      0.000      0.000
REMARK  Name = 
REMARK  6 active torsions:
REMARK  status: ('A' for Active; 'I' for Inactive)
REMARK    1  A    between atoms: O_2  and  C_3
REMARK    2  A    between atoms: C_8  and  O_9
REMARK    3  A    between atoms: C_13  and  C_14
REMARK    4  A    between atoms: C_14  and  C_15
REMARK    5  A    between atoms: N_18  and  C_19
REMARK    6  A    between atoms: C_19  and  C_20
REMARK                            x       y       z     vdW  Elec       q    Type
REMARK                         _______ _______ _______ _____ _____    ______ ____
ROOT
ATOM      1  C   UNL     1     -10.799   7.025  70.016  0.00  0.00    +0.172 A 
ATOM      2  C   UNL     1     -11.203   7.344  71.306  0.00  0.00    +0.172 A 
ATOM      3  C   UNL     1     -11.393   8.692  71.583  0.00  0.00    +0.043 A 
ATOM      4  C   UNL     1     -11.210   9.682  70.628  0.00  0.00    +0.034 A 
ATOM      5  C   UNL     1     -11.728  11.047  70.434  0.00  0.00    +0.173 C 
ATOM      6  C   UNL     1     -11.848  11.137  68.810  0.00  0.00    +0.066 C 
ATOM      7  C   UNL     1     -10.319  10.512  68.643  0.00  0.00    +0.034 C 
ATOM      8  O   UNL     1     -12.825  11.369  70.993  0.00  0.00    -0.291 OA
ATOM      9  C   UNL     1     -10.459   9.312  69.523  0.00  0.00    -0.016 A 
ATOM     10  C   UNL     1     -10.183   7.984  69.221  0.00  0.00    +0.036 A 
ENDROOT
BRANCH   1  12
ATOM     11  C   UNL     1     -10.161   4.989  69.226  0.00  0.00    +0.253 C 
ATOM     12  O   UNL     1     -11.102   5.790  69.430  0.00  0.00    -0.468 OA
ENDBRANCH   1  12
BRANCH   2  13
ATOM     13  O   UNL     1     -11.928   6.353  71.962  0.00  0.00    -0.468 OA
ATOM     14  C   UNL     1     -11.358   5.439  72.870  0.00  0.00    +0.253 C 
ENDBRANCH   2  13
BRANCH   6  15
ATOM     15  C   UNL     1     -11.246  12.682  68.758  0.00  0.00    +0.008 C 
BRANCH  15  16
ATOM     16  C   UNL     1     -11.022  13.007  67.323  0.00  0.00    +0.003 C 
ATOM     17  C   UNL     1     -11.927  14.198  67.016  0.00  0.00    +0.017 C 
ATOM     18  C   UNL     1     -11.775  15.112  68.228  0.00  0.00    +0.072 C 
ATOM     19  N   UNL     1     -10.390  15.578  68.263  0.00  0.00    -0.269 NA
ATOM     20  C   UNL     1      -9.444  14.487  68.388  0.00  0.00    +0.072 C 
ATOM     21  C   UNL     1      -9.607  13.559  67.190  0.00  0.00    +0.017 C 
BRANCH  19  22
ATOM     22  C   UNL     1     -10.143  16.186  66.957  0.00  0.00    +0.099 C 
BRANCH  22  23
ATOM     23  C   UNL     1     -10.104  17.644  67.180  0.00  0.00    -0.006 A 
ATOM     24  C   UNL     1     -10.547  18.444  66.143  0.00  0.00    -0.003 A 
ATOM     25  C   UNL     1     -10.330  19.796  66.255  0.00  0.00    -0.000 A 
ATOM     26  C   UNL     1      -9.713  20.305  67.368  0.00  0.00    -0.000 A 
ATOM     27  C   UNL     1      -9.571  19.515  68.500  0.00  0.00    -0.000 A 
ATOM     28  C   UNL     1     -10.055  18.214  68.448  0.00  0.00    -0.003 A 
ENDBRANCH  22  23
ENDBRANCH  19  22
ENDBRANCH  15  16
ENDBRANCH   6  15
TORSDOF 6
ENDMDL
MODEL 2
REMARK VINA RESULT:      -6.7      3.751      6.426
REMARK  Name = 
REMARK  6 active torsions:
REMARK  status: ('A' for Active; 'I' for Inactive)
REMARK    1  A    between atoms: O_2  and  C_3
REMARK    2  A    between atoms: C_8  and  O_9
REMARK    3  A    between atoms: C_13  and  C_14
REMARK    4  A    between atoms: C_14  and  C_15
REMARK    5  A    between atoms: N_18  and  C_19
REMARK    6  A    between atoms: C_19  and  C_20
REMARK                            x       y       z     vdW  Elec       q    Type
REMARK                         _______ _______ _______ _____ _____    ______ ____
ROOT
ATOM      1  C   UNL     1     -12.615  14.689  72.102  0.00  0.00    +0.172 A 
ATOM      2  C   UNL     1     -12.925  13.645  71.239  0.00  0.00    +0.172 A 
ATOM      3  C   UNL     1     -12.316  13.668  69.990  0.00  0.00    +0.043 A 
ATOM      4  C   UNL     1     -11.429  14.666  69.612  0.00  0.00    +0.034 A 
ATOM      5  C   UNL     1     -10.325  14.761  68.642  0.00  0.00    +0.173 C 
ATOM      6  C   UNL     1      -9.279  15.745  69.414  0.00  0.00    +0.066 C 
ATOM      7  C   UNL     1     -10.510  16.798  69.780  0.00  0.00    +0.034 C 
ATOM      8  O   UNL     1      -9.752  13.690  68.263  0.00  0.00    -0.291 OA
ATOM      9  C   UNL     1     -11.482  15.827  70.367  0.00  0.00    -0.016 A 
ATOM     10  C   UNL     1     -12.124  15.887  71.597  0.00  0.00    +0.036 A 
ENDROOT
BRANCH   1  12
ATOM     11  C   UNL     1     -12.487  15.555  74.202  0.00  0.00    +0.253 C 
ATOM     12  O   UNL     1     -12.661  14.537  73.493  0.00  0.00    -0.468 OA
ENDBRANCH   1  12
BRANCH   2  13
ATOM     13  O   UNL     1     -13.277  12.449  71.859  0.00  0.00    -0.468 OA
ATOM     14  C   UNL     1     -12.872  11.181  71.400  0.00  0.00    +0.253 C 
ENDBRANCH   2  13
BRANCH   6  15
ATOM     15  C   UNL     1      -8.924  16.602  68.038  0.00  0.00    +0.008 C 
BRANCH  15  16
ATOM     16  C   UNL     1      -8.183  17.819  68.470  0.00  0.00    +0.003 C 
ATOM     17  C   UNL     1      -6.739  17.613  68.020  0.00  0.00    +0.017 C 
ATOM     18  C   UNL     1      -6.860  17.026  66.617  0.00  0.00    +0.072 C 
ATOM     19  N   UNL     1      -7.471  18.040  65.762  0.00  0.00    -0.269 NA
ATOM     20  C   UNL     1      -8.795  18.419  66.215  0.00  0.00    +0.072 C 
ATOM     21  C   UNL     1      -8.683  18.986  67.626  0.00  0.00    +0.017 C 
BRANCH  19  22
ATOM     22  C   UNL     1      -6.636  19.230  65.897  0.00  0.00    +0.099 C 
BRANCH  22  23
ATOM     23  C   UNL     1      -6.112  19.525  64.549  0.00  0.00    -0.006 A 
ATOM     24  C   UNL     1      -6.356  20.790  64.048  0.00  0.00    -0.003 A 
ATOM     25  C   UNL     1      -6.054  21.012  62.727  0.00  0.00    -0.000 A 
ATOM     26  C   UNL     1      -5.518  20.009  61.964  0.00  0.00    -0.000 A 
ATOM     27  C   UNL     1      -5.007  18.873  62.578  0.00  0.00    -0.000 A 
ATOM     28  C   UNL     1      -5.081  18.796  63.963  0.00  0.00    -0.003 A 
ENDBRANCH  22  23
ENDBRANCH  19  22
ENDBRANCH  15  16
ENDBRANCH   6  15
TORSDOF 6
ENDMDL
MODEL 3
REMARK VINA RESULT:      -6.7      3.063      5.674
REMARK  Name = 
REMARK  6 active torsions:
REMARK  status: ('A' for Active; 'I' for Inactive)
REMARK    1  A    between atoms: O_2  and  C_3
REMARK    2  A    between atoms: C_8  and  O_9
REMARK    3  A    between atoms: C_13  and  C_14
REMARK    4  A    between atoms: C_14  and  C_15
REMARK    5  A    between atoms: N_18  and  C_19
REMARK    6  A    between atoms: C_19  and  C_20
REMARK                            x       y       z     vdW  Elec       q    Type
REMARK                         _______ _______ _______ _____ _____    ______ ____
ROOT
ATOM      1  C   UNL     1     -11.845  12.063  69.218  0.00  0.00    +0.172 A 
ATOM      2  C   UNL     1     -11.870  11.698  67.878  0.00  0.00    +0.172 A 
ATOM      3  C   UNL     1     -11.634  12.708  66.953  0.00  0.00    +0.043 A 
ATOM      4  C   UNL     1     -11.370  14.017  67.330  0.00  0.00    +0.034 A 
ATOM      5  C   UNL     1     -10.667  15.153  66.712  0.00  0.00    +0.173 C 
ATOM      6  C   UNL     1      -9.992  15.881  68.007  0.00  0.00    +0.066 C 
ATOM      7  C   UNL     1     -11.434  15.799  68.827  0.00  0.00    +0.034 C 
ATOM      8  O   UNL     1      -9.796  14.918  65.814  0.00  0.00    -0.291 OA
ATOM      9  C   UNL     1     -11.737  14.349  68.625  0.00  0.00    -0.016 A 
ATOM     10  C   UNL     1     -12.041  13.390  69.582  0.00  0.00    +0.036 A 
ENDROOT
BRANCH   1  12
ATOM     11  C   UNL     1     -12.408  10.758  70.994  0.00  0.00    +0.253 C 
ATOM     12  O   UNL     1     -11.501  11.154  70.226  0.00  0.00    -0.468 OA
ENDBRANCH   1  12
BRANCH   2  13
ATOM     13  O   UNL     1     -11.527  10.374  67.619  0.00  0.00    -0.468 OA
ATOM     14  C   UNL     1     -10.316   9.983  67.015  0.00  0.00    +0.253 C 
ENDBRANCH   2  13
BRANCH   6  15
ATOM     15  C   UNL     1     -10.363  17.403  67.462  0.00  0.00    +0.008 C 
BRANCH  15  16
ATOM     16  C   UNL     1      -9.848  18.359  68.481  0.00  0.00    +0.003 C 
ATOM     17  C   UNL     1      -8.327  18.236  68.441  0.00  0.00    +0.017 C 
ATOM     18  C   UNL     1      -7.991  18.163  66.954  0.00  0.00    +0.072 C 
ATOM     19  N   UNL     1      -8.368  19.439  66.351  0.00  0.00    -0.269 NA
ATOM     20  C   UNL     1      -9.784  19.718  66.488  0.00  0.00    +0.072 C 
ATOM     21  C   UNL     1     -10.130  19.769  67.972  0.00  0.00    +0.017 C 
BRANCH  19  22
ATOM     22  C   UNL     1      -7.672  20.465  67.124  0.00  0.00    +0.099 C 
BRANCH  22  23
ATOM     23  C   UNL     1      -6.406  20.732  66.414  0.00  0.00    -0.006 A 
ATOM     24  C   UNL     1      -6.430  20.624  65.035  0.00  0.00    -0.003 A 
ATOM     25  C   UNL     1      -5.224  20.671  64.380  0.00  0.00    -0.000 A 
ATOM     26  C   UNL     1      -4.062  20.836  65.087  0.00  0.00    -0.000 A 
ATOM     27  C   UNL     1      -4.112  21.248  66.411  0.00  0.00    -0.000 A 
ATOM     28  C   UNL     1      -5.363  21.461  66.977  0.00  0.00    -0.003 A 
ENDBRANCH  22  23
ENDBRANCH  19  22
ENDBRANCH  15  16
ENDBRANCH   6  15
TORSDOF 6
ENDMDL
MODEL 4
REMARK VINA RESULT:      -6.7      3.993      6.769
REMARK  Name = 
REMARK  6 active torsions:
REMARK  status: ('A' for Active; 'I' for Inactive)
REMARK    1  A    between atoms: O_2  and  C_3
REMARK    2  A    between atoms: C_8  and  O_9
REMARK    3  A    between atoms: C_13  and  C_14
REMARK    4  A    between atoms: C_14  and  C_15
REMARK    5  A    between atoms: N_18  and  C_19
REMARK    6  A    between atoms: C_19  and  C_20
REMARK                            x       y       z     vdW  Elec       q    Type
REMARK                         _______ _______ _______ _____ _____    ______ ____
ROOT
ATOM      1  C   UNL     1     -11.192  12.142  66.391  0.00  0.00    +0.172 A 
ATOM      2  C   UNL     1     -12.208  12.713  65.633  0.00  0.00    +0.172 A 
ATOM      3  C   UNL     1     -12.190  14.097  65.511  0.00  0.00    +0.043 A 
ATOM      4  C   UNL     1     -11.209  14.884  66.095  0.00  0.00    +0.034 A 
ATOM      5  C   UNL     1     -10.642  16.214  65.817  0.00  0.00    +0.173 C 
ATOM      6  C   UNL     1      -9.078  16.012  66.232  0.00  0.00    +0.066 C 
ATOM      7  C   UNL     1      -9.530  15.290  67.657  0.00  0.00    +0.034 C 
ATOM      8  O   UNL     1     -10.746  16.689  64.641  0.00  0.00    -0.291 OA
ATOM      9  C   UNL     1     -10.489  14.280  67.115  0.00  0.00    -0.016 A 
ATOM     10  C   UNL     1     -10.508  12.907  67.327  0.00  0.00    +0.036 A 
ENDROOT
BRANCH   1  12
ATOM     11  C   UNL     1     -10.619  10.073  67.143  0.00  0.00    +0.253 C 
ATOM     12  O   UNL     1     -10.740  10.838  66.158  0.00  0.00    -0.468 OA
ENDBRANCH   1  12
BRANCH   2  13
ATOM     13  O   UNL     1     -12.731  11.896  64.634  0.00  0.00    -0.468 OA
ATOM     14  C   UNL     1     -12.480  12.083  63.261  0.00  0.00    +0.253 C 
ENDBRANCH   2  13
BRANCH   6  15
ATOM     15  C   UNL     1      -8.988  17.488  66.982  0.00  0.00    +0.008 C 
BRANCH  15  16
ATOM     16  C   UNL     1      -7.990  18.293  66.225  0.00  0.00    +0.003 C 
ATOM     17  C   UNL     1      -8.216  19.744  66.645  0.00  0.00    +0.017 C 
ATOM     18  C   UNL     1      -8.427  19.673  68.154  0.00  0.00    +0.072 C 
ATOM     19  N   UNL     1      -7.181  19.205  68.756  0.00  0.00    -0.269 NA
ATOM     20  C   UNL     1      -6.800  17.889  68.284  0.00  0.00    +0.072 C 
ATOM     21  C   UNL     1      -6.609  17.948  66.773  0.00  0.00    +0.017 C 
BRANCH  19  22
ATOM     22  C   UNL     1      -6.145  20.123  68.289  0.00  0.00    +0.099 C 
BRANCH  22  23
ATOM     23  C   UNL     1      -5.267  20.382  69.446  0.00  0.00    -0.006 A 
ATOM     24  C   UNL     1      -5.809  20.168  70.700  0.00  0.00    -0.003 A 
ATOM     25  C   UNL     1      -5.079  20.594  71.782  0.00  0.00    -0.000 A 
ATOM     26  C   UNL     1      -3.857  21.188  71.598  0.00  0.00    -0.000 A 
ATOM     27  C   UNL     1      -3.225  21.098  70.366  0.00  0.00    -0.000 A 
ATOM     28  C   UNL     1      -3.879  20.413  69.350  0.00  0.00    -0.003 A 
ENDBRANCH  22  23
ENDBRANCH  19  22
ENDBRANCH  15  16
ENDBRANCH   6  15
TORSDOF 6
ENDMDL
MODEL 5
REMARK VINA RESULT:      -6.6      2.780      4.817
REMARK  Name = 
REMARK  6 active torsions:
REMARK  status: ('A' for Active; 'I' for Inactive)
REMARK    1  A    between atoms: O_2  and  C_3
REMARK    2  A    between atoms: C_8  and  O_9
REMARK    3  A    between atoms: C_13  and  C_14
REMARK    4  A    between atoms: C_14  and  C_15
REMARK    5  A    between atoms: N_18  and  C_19
REMARK    6  A    between atoms: C_19  and  C_20
REMARK                            x       y       z     vdW  Elec       q    Type
REMARK                         _______ _______ _______ _____ _____    ______ ____
ROOT
ATOM      1  C   UNL     1     -11.287  11.423  68.597  0.00  0.00    +0.172 A 
ATOM      2  C   UNL     1     -11.893  11.647  69.827  0.00  0.00    +0.172 A 
ATOM      3  C   UNL     1     -11.879  12.955  70.298  0.00  0.00    +0.043 A 
ATOM      4  C   UNL     1     -11.308  13.998  69.585  0.00  0.00    +0.034 A 
ATOM      5  C   UNL     1     -11.502  15.457  69.544  0.00  0.00    +0.173 C 
ATOM      6  C   UNL     1     -11.248  15.790  67.967  0.00  0.00    +0.066 C 
ATOM      7  C   UNL     1      -9.866  14.869  67.977  0.00  0.00    +0.034 C 
ATOM      8  O   UNL     1     -12.613  15.936  69.939  0.00  0.00    -0.291 OA
ATOM      9  C   UNL     1     -10.420  13.622  68.588  0.00  0.00    -0.016 A 
ATOM     10  C   UNL     1     -10.342  12.320  68.112  0.00  0.00    +0.036 A 
ENDROOT
BRANCH   1  12
ATOM     11  C   UNL     1     -10.792   9.659  67.248  0.00  0.00    +0.253 C 
ATOM     12  O   UNL     1     -11.684  10.377  67.756  0.00  0.00    -0.468 OA
ENDBRANCH   1  12
BRANCH   2  13
ATOM     13  O   UNL     1     -12.918  10.763  70.151  0.00  0.00    -0.468 OA
ATOM     14  C   UNL     1     -13.055  10.154  71.414  0.00  0.00    +0.253 C 
ENDBRANCH   2  13
BRANCH   6  15
ATOM     15  C   UNL     1     -10.367  17.155  68.302  0.00  0.00    +0.008 C 
BRANCH  15  16
ATOM     16  C   UNL     1     -10.407  18.002  67.078  0.00  0.00    +0.003 C 
ATOM     17  C   UNL     1     -10.562  19.440  67.567  0.00  0.00    +0.017 C 
ATOM     18  C   UNL     1      -9.612  19.540  68.756  0.00  0.00    +0.072 C 
ATOM     19  N   UNL     1      -8.251  19.365  68.255  0.00  0.00    -0.269 NA
ATOM     20  C   UNL     1      -8.058  18.076  67.621  0.00  0.00    +0.072 C 
ATOM     21  C   UNL     1      -9.021  17.962  66.444  0.00  0.00    +0.017 C 
BRANCH  19  22
ATOM     22  C   UNL     1      -8.083  20.367  67.205  0.00  0.00    +0.099 C 
BRANCH  22  23
ATOM     23  C   UNL     1      -6.630  20.569  67.052  0.00  0.00    -0.006 A 
ATOM     24  C   UNL     1      -6.141  20.633  65.760  0.00  0.00    -0.003 A 
ATOM     25  C   UNL     1      -4.777  20.618  65.602  0.00  0.00    -0.000 A 
ATOM     26  C   UNL     1      -3.957  20.559  66.699  0.00  0.00    -0.000 A 
ATOM     27  C   UNL     1      -4.474  20.810  67.962  0.00  0.00    -0.000 A 
ATOM     28  C   UNL     1      -5.830  21.097  68.062  0.00  0.00    -0.003 A 
ENDBRANCH  22  23
ENDBRANCH  19  22
ENDBRANCH  15  16
ENDBRANCH   6  15
TORSDOF 6
ENDMDL
MODEL 6
REMARK VINA RESULT:      -6.5      1.657      2.243
REMARK  Name = 
REMARK  6 active torsions:
REMARK  status: ('A' for Active; 'I' for Inactive)
REMARK    1  A    between atoms: O_2  and  C_3
REMARK    2  A    between atoms: C_8  and  O_9
REMARK    3  A    between atoms: C_13  and  C_14
REMARK    4  A    between atoms: C_14  and  C_15
REMARK    5  A    between atoms: N_18  and  C_19
REMARK    6  A    between atoms: C_19  and  C_20
REMARK                            x       y       z     vdW  Elec       q    Type
REMARK                         _______ _______ _______ _____ _____    ______ ____
ROOT
ATOM      1  C   UNL     1     -10.482   7.079  67.472  0.00  0.00    +0.172 A 
ATOM      2  C   UNL     1     -10.527   7.331  68.838  0.00  0.00    +0.172 A 
ATOM      3  C   UNL     1     -10.525   8.666  69.225  0.00  0.00    +0.043 A 
ATOM      4  C   UNL     1     -10.494   9.707  68.310  0.00  0.00    +0.034 A 
ATOM      5  C   UNL     1     -10.922  11.116  68.325  0.00  0.00    +0.173 C 
ATOM      6  C   UNL     1     -11.428  11.334  66.790  0.00  0.00    +0.066 C 
ATOM      7  C   UNL     1     -10.048  10.614  66.212  0.00  0.00    +0.034 C 
ATOM      8  O   UNL     1     -11.815  11.474  69.157  0.00  0.00    -0.291 OA
ATOM      9  C   UNL     1     -10.074   9.366  67.033  0.00  0.00    -0.016 A 
ATOM     10  C   UNL     1      -9.998   8.048  66.602  0.00  0.00    +0.036 A 
ENDROOT
BRANCH   1  12
ATOM     11  C   UNL     1     -10.243   5.092  66.392  0.00  0.00    +0.253 C 
ATOM     12  O   UNL     1     -11.027   5.916  66.916  0.00  0.00    -0.468 OA
ENDBRANCH   1  12
BRANCH   2  13
ATOM     13  O   UNL     1     -11.154   6.349  69.600  0.00  0.00    -0.468 OA
ATOM     14  C   UNL     1     -11.900   6.620  70.764  0.00  0.00    +0.253 C 
ENDBRANCH   2  13
BRANCH   6  15
ATOM     15  C   UNL     1     -10.724  12.831  66.671  0.00  0.00    +0.008 C 
BRANCH  15  16
ATOM     16  C   UNL     1     -11.827  13.809  66.462  0.00  0.00    +0.003 C 
ATOM     17  C   UNL     1     -11.642  14.886  67.528  0.00  0.00    +0.017 C 
ATOM     18  C   UNL     1     -10.139  15.145  67.547  0.00  0.00    +0.072 C 
ATOM     19  N   UNL     1      -9.768  15.707  66.251  0.00  0.00    -0.269 NA
ATOM     20  C   UNL     1     -10.063  14.807  65.154  0.00  0.00    +0.072 C 
ATOM     21  C   UNL     1     -11.562  14.527  65.143  0.00  0.00    +0.017 C 
BRANCH  19  22
ATOM     22  C   UNL     1     -10.625  16.876  66.064  0.00  0.00    +0.099 C 
BRANCH  22  23
ATOM     23  C   UNL     1      -9.854  18.037  66.549  0.00  0.00    -0.006 A 
ATOM     24  C   UNL     1     -10.482  18.864  67.463  0.00  0.00    -0.003 A 
ATOM     25  C   UNL     1      -9.860  20.050  67.767  0.00  0.00    -0.000 A 
ATOM     26  C   UNL     1      -8.660  20.368  67.189  0.00  0.00    -0.000 A 
ATOM     27  C   UNL     1      -7.929  19.387  66.533  0.00  0.00    -0.000 A 
ATOM     28  C   UNL     1      -8.466  18.107  66.476  0.00  0.00    -0.003 A 
ENDBRANCH  22  23
ENDBRANCH  19  22
ENDBRANCH  15  16
ENDBRANCH   6  15
TORSDOF 6
ENDMDL
MODEL 7
REMARK VINA RESULT:      -6.5      4.035      9.979
REMARK  Name = 
REMARK  6 active torsions:
REMARK  status: ('A' for Active; 'I' for Inactive)
REMARK    1  A    between atoms: O_2  and  C_3
REMARK    2  A    between atoms: C_8  and  O_9
REMARK    3  A    between atoms: C_13  and  C_14
REMARK    4  A    between atoms: C_14  and  C_15
REMARK    5  A    between atoms: N_18  and  C_19
REMARK    6  A    between atoms: C_19  and  C_20
REMARK                            x       y       z     vdW  Elec       q    Type
REMARK                         _______ _______ _______ _____ _____    ______ ____
ROOT
ATOM      1  C   UNL     1      -7.188  20.355  66.761  0.00  0.00    +0.172 A 
ATOM      2  C   UNL     1      -6.886  20.207  68.109  0.00  0.00    +0.172 A 
ATOM      3  C   UNL     1      -7.447  19.112  68.755  0.00  0.00    +0.043 A 
ATOM      4  C   UNL     1      -8.256  18.195  68.101  0.00  0.00    +0.034 A 
ATOM      5  C   UNL     1      -8.610  16.782  68.317  0.00  0.00    +0.173 C 
ATOM      6  C   UNL     1      -8.745  16.227  66.789  0.00  0.00    +0.066 C 
ATOM      7  C   UNL     1      -9.676  17.539  66.375  0.00  0.00    +0.034 C 
ATOM      8  O   UNL     1      -7.822  16.053  69.001  0.00  0.00    -0.291 OA
ATOM      9  C   UNL     1      -8.794  18.626  66.898  0.00  0.00    -0.016 A 
ATOM     10  C   UNL     1      -8.318  19.747  66.229  0.00  0.00    +0.036 A 
ENDROOT
BRANCH   1  12
ATOM     11  C   UNL     1      -6.007  20.411  64.817  0.00  0.00    +0.253 C 
ATOM     12  O   UNL     1      -6.318  21.003  65.876  0.00  0.00    -0.468 OA
ENDBRANCH   1  12
BRANCH   2  13
ATOM     13  O   UNL     1      -5.664  20.743  68.505  0.00  0.00    -0.468 OA
ATOM     14  C   UNL     1      -5.242  20.820  69.846  0.00  0.00    +0.253 C 
ENDBRANCH   2  13
BRANCH   6  15
ATOM     15  C   UNL     1     -10.105  15.342  67.131  0.00  0.00    +0.008 C 
BRANCH  15  16
ATOM     16  C   UNL     1      -9.902  13.995  66.530  0.00  0.00    +0.003 C 
ATOM     17  C   UNL     1      -9.316  13.124  67.638  0.00  0.00    +0.017 C 
ATOM     18  C   UNL     1     -10.123  13.495  68.879  0.00  0.00    +0.072 C 
ATOM     19  N   UNL     1     -11.506  13.084  68.649  0.00  0.00    -0.269 NA
ATOM     20  C   UNL     1     -12.096  13.746  67.502  0.00  0.00    +0.072 C 
ATOM     21  C   UNL     1     -11.279  13.397  66.263  0.00  0.00    +0.017 C 
BRANCH  19  22
ATOM     22  C   UNL     1     -11.447  11.663  68.314  0.00  0.00    +0.099 C 
BRANCH  22  23
ATOM     23  C   UNL     1     -11.613  10.930  69.585  0.00  0.00    -0.006 A 
ATOM     24  C   UNL     1     -10.625  10.020  69.913  0.00  0.00    -0.003 A 
ATOM     25  C   UNL     1     -10.863   9.192  70.981  0.00  0.00    -0.000 A 
ATOM     26  C   UNL     1     -12.033   9.296  71.687  0.00  0.00    -0.000 A 
ATOM     27  C   UNL     1     -12.842  10.412  71.521  0.00  0.00    -0.000 A 
ATOM     28  C   UNL     1     -12.430  11.383  70.617  0.00  0.00    -0.003 A 
ENDBRANCH  22  23
ENDBRANCH  19  22
ENDBRANCH  15  16
ENDBRANCH   6  15
TORSDOF 6
ENDMDL
MODEL 8
REMARK VINA RESULT:      -6.3      5.729     10.213
REMARK  Name = 
REMARK  6 active torsions:
REMARK  status: ('A' for Active; 'I' for Inactive)
REMARK    1  A    between atoms: O_2  and  C_3
REMARK    2  A    between atoms: C_8  and  O_9
REMARK    3  A    between atoms: C_13  and  C_14
REMARK    4  A    between atoms: C_14  and  C_15
REMARK    5  A    between atoms: N_18  and  C_19
REMARK    6  A    between atoms: C_19  and  C_20
REMARK                            x       y       z     vdW  Elec       q    Type
REMARK                         _______ _______ _______ _____ _____    ______ ____
ROOT
ATOM      1  C   UNL     1      -6.009  20.302  68.806  0.00  0.00    +0.172 A 
ATOM      2  C   UNL     1      -5.995  20.606  67.450  0.00  0.00    +0.172 A 
ATOM      3  C   UNL     1      -6.963  19.991  66.665  0.00  0.00    +0.043 A 
ATOM      4  C   UNL     1      -7.913  19.129  67.192  0.00  0.00    +0.034 A 
ATOM      5  C   UNL     1      -9.264  18.701  66.791  0.00  0.00    +0.173 C 
ATOM      6  C   UNL     1     -10.006  18.523  68.233  0.00  0.00    +0.066 C 
ATOM      7  C   UNL     1      -8.711  17.661  68.815  0.00  0.00    +0.034 C 
ATOM      8  O   UNL     1      -9.939  19.453  66.018  0.00  0.00    -0.291 OA
ATOM      9  C   UNL     1      -7.614  18.606  68.441  0.00  0.00    -0.016 A 
ATOM     10  C   UNL     1      -6.619  19.136  69.252  0.00  0.00    +0.036 A 
ENDROOT
BRANCH   1  12
ATOM     11  C   UNL     1      -4.390  20.996  70.246  0.00  0.00    +0.253 C 
ATOM     12  O   UNL     1      -5.531  21.198  69.769  0.00  0.00    -0.468 OA
ENDBRANCH   1  12
BRANCH   2  13
ATOM     13  O   UNL     1      -5.479  21.858  67.129  0.00  0.00    -0.468 OA
ATOM     14  C   UNL     1      -4.301  22.050  66.381  0.00  0.00    +0.253 C 
ENDBRANCH   2  13
BRANCH   6  15
ATOM     15  C   UNL     1     -10.763  17.120  67.776  0.00  0.00    +0.008 C 
BRANCH  15  16
ATOM     16  C   UNL     1      -9.803  16.012  68.034  0.00  0.00    +0.003 C 
ATOM     17  C   UNL     1     -10.567  14.979  68.859  0.00  0.00    +0.017 C 
ATOM     18  C   UNL     1     -11.941  14.907  68.199  0.00  0.00    +0.072 C 
ATOM     19  N   UNL     1     -11.759  14.379  66.849  0.00  0.00    -0.269 NA
ATOM     20  C   UNL     1     -10.903  15.222  66.037  0.00  0.00    +0.072 C 
ATOM     21  C   UNL     1      -9.535  15.315  66.704  0.00  0.00    +0.017 C 
BRANCH  19  22
ATOM     22  C   UNL     1     -11.050  13.112  67.010  0.00  0.00    +0.099 C 
BRANCH  22  23
ATOM     23  C   UNL     1     -11.158  12.409  65.717  0.00  0.00    -0.006 A 
ATOM     24  C   UNL     1     -10.247  11.396  65.481  0.00  0.00    -0.003 A 
ATOM     25  C   UNL     1     -10.204  10.872  64.213  0.00  0.00    -0.000 A 
ATOM     26  C   UNL     1     -11.054  11.340  63.245  0.00  0.00    -0.000 A 
ATOM     27  C   UNL     1     -12.145  12.120  63.602  0.00  0.00    -0.000 A 
ATOM     28  C   UNL     1     -12.319  12.413  64.950  0.00  0.00    -0.003 A 
ENDBRANCH  22  23
ENDBRANCH  19  22
ENDBRANCH  15  16
ENDBRANCH   6  15
TORSDOF 6
ENDMDL
MODEL 9
REMARK VINA RESULT:      -6.2      4.204     10.033
REMARK  Name = 
REMARK  6 active torsions:
REMARK  status: ('A' for Active; 'I' for Inactive)
REMARK    1  A    between atoms: O_2  and  C_3
REMARK    2  A    between atoms: C_8  and  O_9
REMARK    3  A    between atoms: C_13  and  C_14
REMARK    4  A    between atoms: C_14  and  C_15
REMARK    5  A    between atoms: N_18  and  C_19
REMARK    6  A    between atoms: C_19  and  C_20
REMARK                            x       y       z     vdW  Elec       q    Type
REMARK                         _______ _______ _______ _____ _____    ______ ____
ROOT
ATOM      1  C   UNL     1      -7.146  20.525  67.641  0.00  0.00    +0.172 A 
ATOM      2  C   UNL     1      -6.595  19.901  68.754  0.00  0.00    +0.172 A 
ATOM      3  C   UNL     1      -7.134  18.671  69.108  0.00  0.00    +0.043 A 
ATOM      4  C   UNL     1      -8.160  18.072  68.391  0.00  0.00    +0.034 A 
ATOM      5  C   UNL     1      -8.623  16.688  68.199  0.00  0.00    +0.173 C 
ATOM      6  C   UNL     1      -9.130  16.711  66.648  0.00  0.00    +0.066 C 
ATOM      7  C   UNL     1      -9.968  18.118  66.924  0.00  0.00    +0.034 C 
ATOM      8  O   UNL     1      -7.801  15.736  68.398  0.00  0.00    -0.291 OA
ATOM      9  C   UNL     1      -8.878  18.919  67.561  0.00  0.00    -0.016 A 
ATOM     10  C   UNL     1      -8.423  20.184  67.214  0.00  0.00    +0.036 A 
ENDROOT
BRANCH   1  12
ATOM     11  C   UNL     1      -6.018  21.010  65.726  0.00  0.00    +0.253 C 
ATOM     12  O   UNL     1      -6.406  21.410  66.848  0.00  0.00    -0.468 OA
ENDBRANCH   1  12
BRANCH   2  13
ATOM     13  O   UNL     1      -5.264  20.219  69.012  0.00  0.00    -0.468 OA
ATOM     14  C   UNL     1      -4.855  21.114  70.019  0.00  0.00    +0.253 C 
ENDBRANCH   2  13
BRANCH   6  15
ATOM     15  C   UNL     1     -10.484  15.813  66.980  0.00  0.00    +0.008 C 
BRANCH  15  16
ATOM     16  C   UNL     1     -10.927  15.213  65.691  0.00  0.00    +0.003 C 
ATOM     17  C   UNL     1      -9.906  14.126  65.362  0.00  0.00    +0.017 C 
ATOM     18  C   UNL     1      -9.655  13.427  66.694  0.00  0.00    +0.072 C 
ATOM     19  N   UNL     1     -10.902  12.784  67.102  0.00  0.00    -0.269 NA
ATOM     20  C   UNL     1     -11.980  13.735  67.281  0.00  0.00    +0.072 C 
ATOM     21  C   UNL     1     -12.222  14.453  65.957  0.00  0.00    +0.017 C 
BRANCH  19  22
ATOM     22  C   UNL     1     -11.291  11.928  65.984  0.00  0.00    +0.099 C 
BRANCH  22  23
ATOM     23  C   UNL     1     -10.688  10.606  66.243  0.00  0.00    -0.006 A 
ATOM     24  C   UNL     1      -9.714  10.182  65.359  0.00  0.00    -0.003 A 
ATOM     25  C   UNL     1      -9.291   8.880  65.468  0.00  0.00    -0.000 A 
ATOM     26  C   UNL     1      -9.816   8.063  66.434  0.00  0.00    -0.000 A 
ATOM     27  C   UNL     1     -10.546   8.611  67.480  0.00  0.00    -0.000 A 
ATOM     28  C   UNL     1     -10.729   9.988  67.490  0.00  0.00    -0.003 A 
ENDBRANCH  22  23
ENDBRANCH  19  22
ENDBRANCH  15  16
ENDBRANCH   6  15
TORSDOF 6
ENDMDL
