MODEL 1
REMARK VINA RESULT:      -4.6      0.000      0.000
REMARK  Name = 
REMARK  2 active torsions:
REMARK  status: ('A' for Active; 'I' for Inactive)
REMARK    1  A    between atoms: C_2  and  C_4
REMARK    2  A    between atoms: C_4  and  C_5
REMARK                            x       y       z     vdW  Elec       q    Type
REMARK                         _______ _______ _______ _____ _____    ______ ____
ROOT
ATOM      1  C   UNL     1     -12.598  13.944  71.468  0.00  0.00    -0.011 A 
ATOM      2  C   UNL     1     -12.165  13.658  70.179  0.00  0.00    -0.004 A 
ATOM      3  C   UNL     1     -11.943  12.338  69.805  0.00  0.00    -0.000 A 
ATOM      4  C   UNL     1     -12.186  11.313  70.712  0.00  0.00    -0.000 A 
ATOM      5  C   UNL     1     -13.139  11.609  71.682  0.00  0.00    -0.000 A 
ATOM      6  C   UNL     1     -13.275  12.925  72.105  0.00  0.00    -0.004 A 
ENDROOT
BRANCH   1   7
ATOM      7  C   UNL     1     -12.160  15.190  72.140  0.00  0.00    +0.140 C 
BRANCH   7   9
ATOM      8  O   UNL     1     -12.929  16.018  74.177  0.00  0.00    -0.245 OA
ATOM      9  C   UNL     1     -13.205  15.809  72.968  0.00  0.00    +0.369 C 
ATOM     10  O   UNL     1     -14.482  16.027  72.439  0.00  0.00    -0.245 OA
ENDBRANCH   7   9
ENDBRANCH   1   7
TORSDOF 2
ENDMDL
MODEL 2
REMARK VINA RESULT:      -4.5      5.103      6.345
REMARK  Name = 
REMARK  2 active torsions:
REMARK  status: ('A' for Active; 'I' for Inactive)
REMARK    1  A    between atoms: C_2  and  C_4
REMARK    2  A    between atoms: C_4  and  C_5
REMARK                            x       y       z     vdW  Elec       q    Type
REMARK                         _______ _______ _______ _____ _____    ______ ____
ROOT
ATOM      1  C   UNL     1     -11.467  13.874  66.378  0.00  0.00    -0.011 A 
ATOM      2  C   UNL     1     -11.563  12.487  66.371  0.00  0.00    -0.004 A 
ATOM      3  C   UNL     1     -11.539  11.789  67.572  0.00  0.00    -0.000 A 
ATOM      4  C   UNL     1     -11.453  12.485  68.773  0.00  0.00    -0.000 A 
ATOM      5  C   UNL     1     -11.958  13.781  68.732  0.00  0.00    -0.000 A 
ATOM      6  C   UNL     1     -11.883  14.490  67.540  0.00  0.00    -0.004 A 
ENDROOT
BRANCH   1   7
ATOM      7  C   UNL     1     -10.769  14.576  65.276  0.00  0.00    +0.140 C 
BRANCH   7   9
ATOM      8  O   UNL     1     -12.664  14.905  63.962  0.00  0.00    -0.245 OA
ATOM      9  C   UNL     1     -11.651  15.441  64.479  0.00  0.00    +0.369 C 
ATOM     10  O   UNL     1     -11.287  16.767  64.222  0.00  0.00    -0.245 OA
ENDBRANCH   7   9
ENDBRANCH   1   7
TORSDOF 2
ENDMDL
MODEL 3
REMARK VINA RESULT:      -4.5      6.542      7.318
REMARK  Name = 
REMARK  2 active torsions:
REMARK  status: ('A' for Active; 'I' for Inactive)
REMARK    1  A    between atoms: C_2  and  C_4
REMARK    2  A    between atoms: C_4  and  C_5
REMARK                            x       y       z     vdW  Elec       q    Type
REMARK                         _______ _______ _______ _____ _____    ______ ____
ROOT
ATOM      1  C   UNL     1     -11.139  13.975  65.631  0.00  0.00    -0.011 A 
ATOM      2  C   UNL     1     -12.395  13.380  65.629  0.00  0.00    -0.004 A 
ATOM      3  C   UNL     1     -12.785  12.600  64.546  0.00  0.00    -0.000 A 
ATOM      4  C   UNL     1     -11.903  12.395  63.491  0.00  0.00    -0.000 A 
ATOM      5  C   UNL     1     -10.557  12.489  63.830  0.00  0.00    -0.000 A 
ATOM      6  C   UNL     1     -10.185  13.349  64.856  0.00  0.00    -0.004 A 
ENDROOT
BRANCH   1   7
ATOM      7  C   UNL     1     -10.945  15.297  66.270  0.00  0.00    +0.140 C 
BRANCH   7   9
ATOM      8  O   UNL     1      -9.478  16.985  65.616  0.00  0.00    -0.245 OA
ATOM      9  C   UNL     1     -10.523  16.347  65.331  0.00  0.00    +0.369 C 
ATOM     10  O   UNL     1     -11.338  16.683  64.244  0.00  0.00    -0.245 OA
ENDBRANCH   7   9
ENDBRANCH   1   7
TORSDOF 2
ENDMDL
MODEL 4
REMARK VINA RESULT:      -4.5      6.631      7.404
REMARK  Name = 
REMARK  2 active torsions:
REMARK  status: ('A' for Active; 'I' for Inactive)
REMARK    1  A    between atoms: C_2  and  C_4
REMARK    2  A    between atoms: C_4  and  C_5
REMARK                            x       y       z     vdW  Elec       q    Type
REMARK                         _______ _______ _______ _____ _____    ______ ____
ROOT
ATOM      1  C   UNL     1     -12.069  13.012  64.893  0.00  0.00    -0.011 A 
ATOM      2  C   UNL     1     -11.868  12.420  63.651  0.00  0.00    -0.004 A 
ATOM      3  C   UNL     1     -10.890  11.444  63.505  0.00  0.00    -0.000 A 
ATOM      4  C   UNL     1     -10.144  11.044  64.608  0.00  0.00    -0.000 A 
ATOM      5  C   UNL     1     -10.782  11.210  65.833  0.00  0.00    -0.000 A 
ATOM      6  C   UNL     1     -11.686  12.254  65.979  0.00  0.00    -0.004 A 
ENDROOT
BRANCH   1   7
ATOM      7  C   UNL     1     -12.474  14.434  64.980  0.00  0.00    +0.140 C 
BRANCH   7   9
ATOM      8  O   UNL     1     -10.265  15.159  65.129  0.00  0.00    -0.245 OA
ATOM      9  C   UNL     1     -11.399  15.374  64.630  0.00  0.00    +0.369 C 
ATOM     10  O   UNL     1     -11.686  16.517  63.874  0.00  0.00    -0.245 OA
ENDBRANCH   7   9
ENDBRANCH   1   7
TORSDOF 2
ENDMDL
MODEL 5
REMARK VINA RESULT:      -4.5      1.216      2.138
REMARK  Name = 
REMARK  2 active torsions:
REMARK  status: ('A' for Active; 'I' for Inactive)
REMARK    1  A    between atoms: C_2  and  C_4
REMARK    2  A    between atoms: C_4  and  C_5
REMARK                            x       y       z     vdW  Elec       q    Type
REMARK                         _______ _______ _______ _____ _____    ______ ____
ROOT
ATOM      1  C   UNL     1     -12.199  15.183  71.003  0.00  0.00    -0.011 A 
ATOM      2  C   UNL     1     -12.101  15.754  69.740  0.00  0.00    -0.004 A 
ATOM      3  C   UNL     1     -11.655  14.987  68.671  0.00  0.00    -0.000 A 
ATOM      4  C   UNL     1     -11.342  13.646  68.867  0.00  0.00    -0.000 A 
ATOM      5  C   UNL     1     -12.013  13.040  69.925  0.00  0.00    -0.000 A 
ATOM      6  C   UNL     1     -12.364  13.814  71.024  0.00  0.00    -0.004 A 
ENDROOT
BRANCH   1   7
ATOM      7  C   UNL     1     -11.932  16.000  72.210  0.00  0.00    +0.140 C 
BRANCH   7   9
ATOM      8  O   UNL     1     -14.194  16.073  72.762  0.00  0.00    -0.245 OA
ATOM      9  C   UNL     1     -13.020  15.961  73.199  0.00  0.00    +0.369 C 
ATOM     10  O   UNL     1     -12.724  15.927  74.566  0.00  0.00    -0.245 OA
ENDBRANCH   7   9
ENDBRANCH   1   7
TORSDOF 2
ENDMDL
MODEL 6
REMARK VINA RESULT:      -4.4      6.710      8.133
REMARK  Name = 
REMARK  2 active torsions:
REMARK  status: ('A' for Active; 'I' for Inactive)
REMARK    1  A    between atoms: C_2  and  C_4
REMARK    2  A    between atoms: C_4  and  C_5
REMARK                            x       y       z     vdW  Elec       q    Type
REMARK                         _______ _______ _______ _____ _____    ______ ____
ROOT
ATOM      1  C   UNL     1     -10.270  17.611  66.551  0.00  0.00    -0.011 A 
ATOM      2  C   UNL     1     -10.243  17.522  67.938  0.00  0.00    -0.004 A 
ATOM      3  C   UNL     1      -9.871  18.630  68.691  0.00  0.00    -0.000 A 
ATOM      4  C   UNL     1      -9.562  19.826  68.053  0.00  0.00    -0.000 A 
ATOM      5  C   UNL     1     -10.174  20.001  66.816  0.00  0.00    -0.000 A 
ATOM      6  C   UNL     1     -10.449  18.880  66.042  0.00  0.00    -0.004 A 
ENDROOT
BRANCH   1   7
ATOM      7  C   UNL     1      -9.921  16.432  65.725  0.00  0.00    +0.140 C 
BRANCH   7   9
ATOM      8  O   UNL     1     -11.459  14.729  65.323  0.00  0.00    -0.245 OA
ATOM      9  C   UNL     1     -11.064  15.874  64.986  0.00  0.00    +0.369 C 
ATOM     10  O   UNL     1     -11.585  16.556  63.881  0.00  0.00    -0.245 OA
ENDBRANCH   7   9
ENDBRANCH   1   7
TORSDOF 2
ENDMDL
MODEL 7
REMARK VINA RESULT:      -4.4      1.484      2.887
REMARK  Name = 
REMARK  2 active torsions:
REMARK  status: ('A' for Active; 'I' for Inactive)
REMARK    1  A    between atoms: C_2  and  C_4
REMARK    2  A    between atoms: C_4  and  C_5
REMARK                            x       y       z     vdW  Elec       q    Type
REMARK                         _______ _______ _______ _____ _____    ______ ____
ROOT
ATOM      1  C   UNL     1     -12.079  14.535  71.091  0.00  0.00    -0.011 A 
ATOM      2  C   UNL     1     -12.089  13.666  70.006  0.00  0.00    -0.004 A 
ATOM      3  C   UNL     1     -11.872  14.162  68.726  0.00  0.00    -0.000 A 
ATOM      4  C   UNL     1     -11.615  15.517  68.545  0.00  0.00    -0.000 A 
ATOM      5  C   UNL     1     -11.042  16.152  69.642  0.00  0.00    -0.000 A 
ATOM      6  C   UNL     1     -11.351  15.693  70.916  0.00  0.00    -0.004 A 
ENDROOT
BRANCH   1   7
ATOM      7  C   UNL     1     -12.969  14.287  72.249  0.00  0.00    +0.140 C 
BRANCH   7   9
ATOM      8  O   UNL     1     -14.722  15.786  71.921  0.00  0.00    -0.245 OA
ATOM      9  C   UNL     1     -13.751  15.465  72.652  0.00  0.00    +0.369 C 
ATOM     10  O   UNL     1     -13.332  16.247  73.734  0.00  0.00    -0.245 OA
ENDBRANCH   7   9
ENDBRANCH   1   7
TORSDOF 2
ENDMDL
MODEL 8
REMARK VINA RESULT:      -4.3      0.955      1.936
REMARK  Name = 
REMARK  2 active torsions:
REMARK  status: ('A' for Active; 'I' for Inactive)
REMARK    1  A    between atoms: C_2  and  C_4
REMARK    2  A    between atoms: C_4  and  C_5
REMARK                            x       y       z     vdW  Elec       q    Type
REMARK                         _______ _______ _______ _____ _____    ______ ____
ROOT
ATOM      1  C   UNL     1     -12.698  13.030  71.230  0.00  0.00    -0.011 A 
ATOM      2  C   UNL     1     -12.424  11.677  71.069  0.00  0.00    -0.004 A 
ATOM      3  C   UNL     1     -12.025  11.199  69.826  0.00  0.00    -0.000 A 
ATOM      4  C   UNL     1     -11.872  12.083  68.764  0.00  0.00    -0.000 A 
ATOM      5  C   UNL     1     -11.575  13.391  69.133  0.00  0.00    -0.000 A 
ATOM      6  C   UNL     1     -12.067  13.873  70.340  0.00  0.00    -0.004 A 
ENDROOT
BRANCH   1   7
ATOM      7  C   UNL     1     -13.758  13.466  72.170  0.00  0.00    +0.140 C 
BRANCH   7   9
ATOM      8  O   UNL     1     -12.663  14.868  73.673  0.00  0.00    -0.245 OA
ATOM      9  C   UNL     1     -13.516  14.794  72.752  0.00  0.00    +0.369 C 
ATOM     10  O   UNL     1     -14.304  15.883  72.366  0.00  0.00    -0.245 OA
ENDBRANCH   7   9
ENDBRANCH   1   7
TORSDOF 2
ENDMDL
MODEL 9
REMARK VINA RESULT:      -4.3      3.117      4.169
REMARK  Name = 
REMARK  2 active torsions:
REMARK  status: ('A' for Active; 'I' for Inactive)
REMARK    1  A    between atoms: C_2  and  C_4
REMARK    2  A    between atoms: C_4  and  C_5
REMARK                            x       y       z     vdW  Elec       q    Type
REMARK                         _______ _______ _______ _____ _____    ______ ____
ROOT
ATOM      1  C   UNL     1     -11.934  15.360  70.958  0.00  0.00    -0.011 A 
ATOM      2  C   UNL     1     -12.919  14.390  71.103  0.00  0.00    -0.004 A 
ATOM      3  C   UNL     1     -13.382  14.064  72.372  0.00  0.00    -0.000 A 
ATOM      4  C   UNL     1     -12.881  14.735  73.483  0.00  0.00    -0.000 A 
ATOM      5  C   UNL     1     -12.408  16.017  73.224  0.00  0.00    -0.000 A 
ATOM      6  C   UNL     1     -11.863  16.288  71.975  0.00  0.00    -0.004 A 
ENDROOT
BRANCH   1   7
ATOM      7  C   UNL     1     -10.927  15.240  69.878  0.00  0.00    +0.140 C 
BRANCH   7   9
ATOM      8  O   UNL     1     -11.812  14.985  67.738  0.00  0.00    -0.245 OA
ATOM      9  C   UNL     1     -11.374  15.797  68.593  0.00  0.00    +0.369 C 
ATOM     10  O   UNL     1     -11.191  17.156  68.316  0.00  0.00    -0.245 OA
ENDBRANCH   7   9
ENDBRANCH   1   7
TORSDOF 2
ENDMDL
