MODEL 1
REMARK VINA RESULT:      -7.6      0.000      0.000
REMARK  Name = 
REMARK  5 active torsions:
REMARK  status: ('A' for Active; 'I' for Inactive)
REMARK    1  A    between atoms: C_2  and  N_4
REMARK    2  A    between atoms: N_4  and  C_5
REMARK    3  A    between atoms: C_15  and  C_17
REMARK    4  A    between atoms: C_21  and  N_22
REMARK    5  A    between atoms: N_22  and  S_23
REMARK                            x       y       z     vdW  Elec       q    Type
REMARK                         _______ _______ _______ _____ _____    ______ ____
ROOT
ATOM      1  C   UNL     1      -6.687  20.207  67.780  0.00  0.00    +0.097 A 
ATOM      2  C   UNL     1      -7.769  19.893  66.967  0.00  0.00    +0.147 A 
ATOM      3  N   UNL     1      -8.963  19.377  67.568  0.00  0.00    -0.289 N 
ATOM      4  C   UNL     1     -10.028  18.970  66.654  0.00  0.00    +0.114 C 
ATOM      5  C   UNL     1      -9.770  17.564  66.127  0.00  0.00    +0.115 C 
ATOM      6  N   UNL     1      -9.479  16.729  67.291  0.00  0.00    -0.271 N 
ATOM      7  C   UNL     1     -10.626  16.402  68.090  0.00  0.00    +0.267 C 
ATOM      8  O   UNL     1     -11.220  17.399  68.604  0.00  0.00    -0.268 OA
ATOM      9  C   UNL     1      -8.318  17.153  68.073  0.00  0.00    +0.115 C 
ATOM     10  C   UNL     1      -8.734  18.480  68.699  0.00  0.00    +0.114 C 
ATOM     11  N   UNL     1      -7.516  19.753  65.643  0.00  0.00    -0.228 NA
ATOM     12  C   UNL     1      -6.431  20.273  65.048  0.00  0.00    +0.100 A 
ATOM     13  C   UNL     1      -5.638  21.114  65.808  0.00  0.00    +0.022 A 
ATOM     14  C   UNL     1      -5.713  20.999  67.184  0.00  0.00    +0.021 A 
ENDROOT
BRANCH   7  15
ATOM     15  C   UNL     1     -11.126  15.051  68.230  0.00  0.00    +0.135 A 
ATOM     16  N   UNL     1     -11.123  14.021  67.359  0.00  0.00    -0.241 NA
ATOM     17  C   UNL     1     -11.350  12.886  68.061  0.00  0.00    +0.082 A 
ATOM     18  C   UNL     1     -11.787  13.227  69.321  0.00  0.00    +0.021 A 
ATOM     19  C   UNL     1     -12.060  12.278  70.296  0.00  0.00    +0.020 A 
ATOM     20  C   UNL     1     -12.002  10.936  69.990  0.00  0.00    +0.091 A 
ATOM     21  C   UNL     1     -11.674  10.602  68.692  0.00  0.00    +0.020 A 
ATOM     22  C   UNL     1     -11.263  11.540  67.782  0.00  0.00    +0.020 A 
ATOM     23  C   UNL     1     -11.786  14.605  69.362  0.00  0.00    +0.025 A 
BRANCH  20  24
ATOM     24  N   UNL     1     -12.768  10.014  70.775  0.00  0.00    -0.101 NA
BRANCH  24  25
ATOM     25  S   UNL     1     -12.068   8.671  71.585  0.00  0.00    +0.075 S 
ATOM     26  O   UNL     1     -12.336   7.434  70.784  0.00  0.00    -0.153 OA
ATOM     27  O   UNL     1     -12.732   8.462  72.929  0.00  0.00    -0.153 OA
ATOM     28  C   UNL     1     -10.317   8.841  71.768  0.00  0.00    +0.202 C 
ENDBRANCH  24  25
ENDBRANCH  20  24
ENDBRANCH   7  15
BRANCH   1  29
ATOM     29  N   UNL     1      -6.708  20.059  69.189  0.00  0.00    -0.237 NA
BRANCH  29  31
ATOM     30  C   UNL     1      -5.180  18.301  69.887  0.00  0.00    +0.023 C 
ATOM     31  C   UNL     1      -5.531  19.766  69.972  0.00  0.00    +0.093 C 
ATOM     32  C   UNL     1      -5.797  20.088  71.428  0.00  0.00    +0.023 C 
ENDBRANCH  29  31
ENDBRANCH   1  29
TORSDOF 5
ENDMDL
MODEL 2
REMARK VINA RESULT:      -7.1      3.988      9.893
REMARK  Name = 
REMARK  5 active torsions:
REMARK  status: ('A' for Active; 'I' for Inactive)
REMARK    1  A    between atoms: C_2  and  N_4
REMARK    2  A    between atoms: N_4  and  C_5
REMARK    3  A    between atoms: C_15  and  C_17
REMARK    4  A    between atoms: C_21  and  N_22
REMARK    5  A    between atoms: N_22  and  S_23
REMARK                            x       y       z     vdW  Elec       q    Type
REMARK                         _______ _______ _______ _____ _____    ______ ____
ROOT
ATOM      1  C   UNL     1     -10.159   9.429  66.328  0.00  0.00    +0.097 A 
ATOM      2  C   UNL     1     -10.807  10.375  67.112  0.00  0.00    +0.147 A 
ATOM      3  N   UNL     1     -11.124  11.651  66.542  0.00  0.00    -0.289 N 
ATOM      4  C   UNL     1     -11.713  12.638  67.444  0.00  0.00    +0.114 C 
ATOM      5  C   UNL     1     -10.625  13.345  68.245  0.00  0.00    +0.115 C 
ATOM      6  N   UNL     1      -9.614  13.780  67.282  0.00  0.00    -0.271 N 
ATOM      7  C   UNL     1      -9.999  14.910  66.486  0.00  0.00    +0.267 C 
ATOM      8  O   UNL     1     -11.019  14.725  65.754  0.00  0.00    -0.268 OA
ATOM      9  C   UNL     1      -8.998  12.699  66.513  0.00  0.00    +0.115 C 
ATOM     10  C   UNL     1     -10.117  12.171  65.619  0.00  0.00    +0.114 C 
ATOM     11  N   UNL     1     -10.782  10.177  68.452  0.00  0.00    -0.228 NA
ATOM     12  C   UNL     1     -10.540   8.979  69.008  0.00  0.00    +0.100 A 
ATOM     13  C   UNL     1     -10.474   7.891  68.156  0.00  0.00    +0.022 A 
ATOM     14  C   UNL     1     -10.188   8.132  66.826  0.00  0.00    +0.021 A 
ENDROOT
BRANCH   7  15
ATOM     15  C   UNL     1      -9.335  16.194  66.572  0.00  0.00    +0.135 A 
ATOM     16  N   UNL     1      -9.648  17.381  66.013  0.00  0.00    -0.241 NA
ATOM     17  C   UNL     1      -8.964  18.342  66.676  0.00  0.00    +0.082 A 
ATOM     18  C   UNL     1      -8.000  17.741  67.453  0.00  0.00    +0.021 A 
ATOM     19  C   UNL     1      -7.162  18.463  68.292  0.00  0.00    +0.020 A 
ATOM     20  C   UNL     1      -7.201  19.840  68.288  0.00  0.00    +0.091 A 
ATOM     21  C   UNL     1      -8.092  20.440  67.421  0.00  0.00    +0.020 A 
ATOM     22  C   UNL     1      -9.014  19.718  66.711  0.00  0.00    +0.020 A 
ATOM     23  C   UNL     1      -8.149  16.383  67.258  0.00  0.00    +0.025 A 
BRANCH  20  24
ATOM     24  N   UNL     1      -6.040  20.566  68.708  0.00  0.00    -0.101 NA
BRANCH  24  25
ATOM     25  S   UNL     1      -5.386  20.449  70.292  0.00  0.00    +0.075 S 
ATOM     26  O   UNL     1      -6.515  20.443  71.277  0.00  0.00    -0.153 OA
ATOM     27  O   UNL     1      -4.550  21.669  70.608  0.00  0.00    -0.153 OA
ATOM     28  C   UNL     1      -4.449  18.967  70.518  0.00  0.00    +0.202 C 
ENDBRANCH  24  25
ENDBRANCH  20  24
ENDBRANCH   7  15
BRANCH   1  29
ATOM     29  N   UNL     1      -9.807   9.656  64.974  0.00  0.00    -0.237 NA
BRANCH  29  31
ATOM     30  C   UNL     1      -7.385   9.737  64.775  0.00  0.00    +0.023 C 
ATOM     31  C   UNL     1      -8.657   9.051  64.344  0.00  0.00    +0.093 C 
ATOM     32  C   UNL     1      -8.768   9.198  62.840  0.00  0.00    +0.023 C 
ENDBRANCH  29  31
ENDBRANCH   1  29
TORSDOF 5
ENDMDL
MODEL 3
REMARK VINA RESULT:      -7.0      4.442     11.419
REMARK  Name = 
REMARK  5 active torsions:
REMARK  status: ('A' for Active; 'I' for Inactive)
REMARK    1  A    between atoms: C_2  and  N_4
REMARK    2  A    between atoms: N_4  and  C_5
REMARK    3  A    between atoms: C_15  and  C_17
REMARK    4  A    between atoms: C_21  and  N_22
REMARK    5  A    between atoms: N_22  and  S_23
REMARK                            x       y       z     vdW  Elec       q    Type
REMARK                         _______ _______ _______ _____ _____    ______ ____
ROOT
ATOM      1  C   UNL     1      -9.158   4.663  70.223  0.00  0.00    +0.097 A 
ATOM      2  C   UNL     1      -9.574   5.299  71.386  0.00  0.00    +0.147 A 
ATOM      3  N   UNL     1     -10.829   5.991  71.388  0.00  0.00    -0.289 N 
ATOM      4  C   UNL     1     -11.165   6.724  72.607  0.00  0.00    +0.114 C 
ATOM      5  C   UNL     1     -10.491   8.091  72.609  0.00  0.00    +0.115 C 
ATOM      6  N   UNL     1     -10.781   8.702  71.313  0.00  0.00    -0.271 N 
ATOM      7  C   UNL     1     -12.128   9.177  71.168  0.00  0.00    +0.267 C 
ATOM      8  O   UNL     1     -13.023   8.282  71.261  0.00  0.00    -0.268 OA
ATOM      9  C   UNL     1     -10.296   7.946  70.159  0.00  0.00    +0.115 C 
ATOM     10  C   UNL     1     -11.145   6.678  70.138  0.00  0.00    +0.114 C 
ATOM     11  N   UNL     1      -8.627   5.532  72.325  0.00  0.00    -0.228 NA
ATOM     12  C   UNL     1      -7.466   4.859  72.375  0.00  0.00    +0.100 A 
ATOM     13  C   UNL     1      -7.325   3.783  71.517  0.00  0.00    +0.022 A 
ATOM     14  C   UNL     1      -8.122   3.751  70.388  0.00  0.00    +0.021 A 
ENDROOT
BRANCH   7  15
ATOM     15  C   UNL     1     -12.453  10.580  71.017  0.00  0.00    +0.135 A 
ATOM     16  N   UNL     1     -13.151  11.408  71.821  0.00  0.00    -0.241 NA
ATOM     17  C   UNL     1     -12.867  12.678  71.450  0.00  0.00    +0.082 A 
ATOM     18  C   UNL     1     -12.227  12.650  70.231  0.00  0.00    +0.021 A 
ATOM     19  C   UNL     1     -11.764  13.799  69.606  0.00  0.00    +0.020 A 
ATOM     20  C   UNL     1     -12.033  15.036  70.149  0.00  0.00    +0.091 A 
ATOM     21  C   UNL     1     -12.775  15.064  71.312  0.00  0.00    +0.020 A 
ATOM     22  C   UNL     1     -13.096  13.922  71.997  0.00  0.00    +0.020 A 
ATOM     23  C   UNL     1     -12.109  11.317  69.897  0.00  0.00    +0.025 A 
BRANCH  20  24
ATOM     24  N   UNL     1     -12.044  16.182  69.288  0.00  0.00    -0.101 NA
BRANCH  24  25
ATOM     25  S   UNL     1     -10.674  16.682  68.381  0.00  0.00    +0.075 S 
ATOM     26  O   UNL     1      -9.438  16.380  69.173  0.00  0.00    -0.153 OA
ATOM     27  O   UNL     1     -10.695  18.181  68.178  0.00  0.00    -0.153 OA
ATOM     28  C   UNL     1     -10.556  15.838  66.831  0.00  0.00    +0.202 C 
ENDBRANCH  24  25
ENDBRANCH  20  24
ENDBRANCH   7  15
BRANCH   1  29
ATOM     29  N   UNL     1      -9.925   4.648  69.031  0.00  0.00    -0.237 NA
BRANCH  29  31
ATOM     30  C   UNL     1      -8.372   5.903  67.644  0.00  0.00    +0.023 C 
ATOM     31  C   UNL     1      -9.343   4.751  67.714  0.00  0.00    +0.093 C 
ATOM     32  C   UNL     1     -10.434   5.011  66.696  0.00  0.00    +0.023 C 
ENDBRANCH  29  31
ENDBRANCH   1  29
TORSDOF 5
ENDMDL
MODEL 4
REMARK VINA RESULT:      -6.8      4.166     11.344
REMARK  Name = 
REMARK  5 active torsions:
REMARK  status: ('A' for Active; 'I' for Inactive)
REMARK    1  A    between atoms: C_2  and  N_4
REMARK    2  A    between atoms: N_4  and  C_5
REMARK    3  A    between atoms: C_15  and  C_17
REMARK    4  A    between atoms: C_21  and  N_22
REMARK    5  A    between atoms: N_22  and  S_23
REMARK                            x       y       z     vdW  Elec       q    Type
REMARK                         _______ _______ _______ _____ _____    ______ ____
ROOT
ATOM      1  C   UNL     1      -8.986   5.273  72.751  0.00  0.00    +0.097 A 
ATOM      2  C   UNL     1     -10.188   5.449  72.075  0.00  0.00    +0.147 A 
ATOM      3  N   UNL     1     -10.238   6.364  70.974  0.00  0.00    -0.289 N 
ATOM      4  C   UNL     1     -11.550   6.582  70.369  0.00  0.00    +0.114 C 
ATOM      5  C   UNL     1     -12.342   7.610  71.168  0.00  0.00    +0.115 C 
ATOM      6  N   UNL     1     -11.456   8.755  71.369  0.00  0.00    -0.271 N 
ATOM      7  C   UNL     1     -11.258   9.566  70.201  0.00  0.00    +0.267 C 
ATOM      8  O   UNL     1     -10.721   8.966  69.220  0.00  0.00    -0.268 OA
ATOM      9  C   UNL     1     -10.222   8.454  72.092  0.00  0.00    +0.115 C 
ATOM     10  C   UNL     1      -9.422   7.564  71.145  0.00  0.00    +0.114 C 
ATOM     11  N   UNL     1     -11.309   5.027  72.707  0.00  0.00    -0.228 NA
ATOM     12  C   UNL     1     -11.292   4.129  73.705  0.00  0.00    +0.100 A 
ATOM     13  C   UNL     1     -10.084   3.510  73.974  0.00  0.00    +0.022 A 
ATOM     14  C   UNL     1      -8.928   4.150  73.567  0.00  0.00    +0.021 A 
ENDROOT
BRANCH   7  15
ATOM     15  C   UNL     1     -11.716  10.936  70.109  0.00  0.00    +0.135 A 
ATOM     16  N   UNL     1     -12.470  11.666  70.956  0.00  0.00    -0.241 NA
ATOM     17  C   UNL     1     -12.314  12.970  70.629  0.00  0.00    +0.082 A 
ATOM     18  C   UNL     1     -11.700  13.045  69.398  0.00  0.00    +0.021 A 
ATOM     19  C   UNL     1     -11.359  14.255  68.809  0.00  0.00    +0.020 A 
ATOM     20  C   UNL     1     -11.730  15.441  69.403  0.00  0.00    +0.091 A 
ATOM     21  C   UNL     1     -12.446  15.357  70.579  0.00  0.00    +0.020 A 
ATOM     22  C   UNL     1     -12.646  14.166  71.226  0.00  0.00    +0.020 A 
ATOM     23  C   UNL     1     -11.465  11.742  69.012  0.00  0.00    +0.025 A 
BRANCH  20  24
ATOM     24  N   UNL     1     -11.865  16.610  68.586  0.00  0.00    -0.101 NA
BRANCH  24  25
ATOM     25  S   UNL     1     -10.526  17.403  67.860  0.00  0.00    +0.075 S 
ATOM     26  O   UNL     1      -9.356  17.318  68.791  0.00  0.00    -0.153 OA
ATOM     27  O   UNL     1     -10.821  18.876  67.677  0.00  0.00    -0.153 OA
ATOM     28  C   UNL     1     -10.064  16.658  66.324  0.00  0.00    +0.202 C 
ENDBRANCH  24  25
ENDBRANCH  20  24
ENDBRANCH   7  15
BRANCH   1  29
ATOM     29  N   UNL     1      -7.791   5.946  72.394  0.00  0.00    -0.237 NA
BRANCH  29  31
ATOM     30  C   UNL     1      -7.152   7.508  74.145  0.00  0.00    +0.023 C 
ATOM     31  C   UNL     1      -6.762   6.289  73.346  0.00  0.00    +0.093 C 
ATOM     32  C   UNL     1      -5.480   6.618  72.610  0.00  0.00    +0.023 C 
ENDBRANCH  29  31
ENDBRANCH   1  29
TORSDOF 5
ENDMDL
MODEL 5
REMARK VINA RESULT:      -6.5      3.702      4.676
REMARK  Name = 
REMARK  5 active torsions:
REMARK  status: ('A' for Active; 'I' for Inactive)
REMARK    1  A    between atoms: C_2  and  N_4
REMARK    2  A    between atoms: N_4  and  C_5
REMARK    3  A    between atoms: C_15  and  C_17
REMARK    4  A    between atoms: C_21  and  N_22
REMARK    5  A    between atoms: N_22  and  S_23
REMARK                            x       y       z     vdW  Elec       q    Type
REMARK                         _______ _______ _______ _____ _____    ______ ____
ROOT
ATOM      1  C   UNL     1      -3.480  20.877  67.800  0.00  0.00    +0.097 A 
ATOM      2  C   UNL     1      -4.668  20.977  67.086  0.00  0.00    +0.147 A 
ATOM      3  N   UNL     1      -5.879  20.497  67.683  0.00  0.00    -0.289 N 
ATOM      4  C   UNL     1      -7.076  20.537  66.846  0.00  0.00    +0.114 C 
ATOM      5  C   UNL     1      -7.127  19.320  65.930  0.00  0.00    +0.115 C 
ATOM      6  N   UNL     1      -6.894  18.151  66.776  0.00  0.00    -0.271 N 
ATOM      7  C   UNL     1      -8.007  17.785  67.606  0.00  0.00    +0.267 C 
ATOM      8  O   UNL     1      -8.362  18.670  68.444  0.00  0.00    -0.268 OA
ATOM      9  C   UNL     1      -5.611  18.151  67.479  0.00  0.00    +0.115 C 
ATOM     10  C   UNL     1      -5.721  19.289  68.490  0.00  0.00    +0.114 C 
ATOM     11  N   UNL     1      -4.562  21.188  65.752  0.00  0.00    -0.228 NA
ATOM     12  C   UNL     1      -3.456  21.687  65.178  0.00  0.00    +0.100 A 
ATOM     13  C   UNL     1      -2.459  22.143  66.022  0.00  0.00    +0.022 A 
ATOM     14  C   UNL     1      -2.433  21.650  67.312  0.00  0.00    +0.021 A 
ENDROOT
BRANCH   7  15
ATOM     15  C   UNL     1      -8.732  16.543  67.444  0.00  0.00    +0.135 A 
ATOM     16  N   UNL     1      -8.922  15.521  68.304  0.00  0.00    -0.241 NA
ATOM     17  C   UNL     1      -9.956  14.780  67.843  0.00  0.00    +0.082 A 
ATOM     18  C   UNL     1     -10.228  15.160  66.547  0.00  0.00    +0.021 A 
ATOM     19  C   UNL     1     -11.272  14.613  65.815  0.00  0.00    +0.020 A 
ATOM     20  C   UNL     1     -12.014  13.577  66.337  0.00  0.00    +0.091 A 
ATOM     21  C   UNL     1     -11.663  13.123  67.592  0.00  0.00    +0.020 A 
ATOM     22  C   UNL     1     -10.731  13.767  68.363  0.00  0.00    +0.020 A 
ATOM     23  C   UNL     1      -9.341  16.175  66.257  0.00  0.00    +0.025 A 
BRANCH  20  24
ATOM     24  N   UNL     1     -12.690  12.688  65.439  0.00  0.00    -0.101 NA
BRANCH  24  25
ATOM     25  S   UNL     1     -12.263  12.531  63.783  0.00  0.00    +0.075 S 
ATOM     26  O   UNL     1     -12.460  13.854  63.109  0.00  0.00    -0.153 OA
ATOM     27  O   UNL     1     -13.190  11.556  63.090  0.00  0.00    -0.153 OA
ATOM     28  C   UNL     1     -10.574  12.051  63.572  0.00  0.00    +0.202 C 
ENDBRANCH  24  25
ENDBRANCH  20  24
ENDBRANCH   7  15
BRANCH   1  29
ATOM     29  N   UNL     1      -3.405  20.334  69.107  0.00  0.00    -0.237 NA
BRANCH  29  31
ATOM     30  C   UNL     1      -1.989  18.500  69.846  0.00  0.00    +0.023 C 
ATOM     31  C   UNL     1      -2.159  19.997  69.753  0.00  0.00    +0.093 C 
ATOM     32  C   UNL     1      -2.156  20.544  71.165  0.00  0.00    +0.023 C 
ENDBRANCH  29  31
ENDBRANCH   1  29
TORSDOF 5
ENDMDL
MODEL 6
REMARK VINA RESULT:      -6.4      4.451      6.803
REMARK  Name = 
REMARK  5 active torsions:
REMARK  status: ('A' for Active; 'I' for Inactive)
REMARK    1  A    between atoms: C_2  and  N_4
REMARK    2  A    between atoms: N_4  and  C_5
REMARK    3  A    between atoms: C_15  and  C_17
REMARK    4  A    between atoms: C_21  and  N_22
REMARK    5  A    between atoms: N_22  and  S_23
REMARK                            x       y       z     vdW  Elec       q    Type
REMARK                         _______ _______ _______ _____ _____    ______ ____
ROOT
ATOM      1  C   UNL     1     -10.788  15.968  68.946  0.00  0.00    +0.097 A 
ATOM      2  C   UNL     1     -11.094  15.294  67.769  0.00  0.00    +0.147 A 
ATOM      3  N   UNL     1     -11.645  13.973  67.849  0.00  0.00    -0.289 N 
ATOM      4  C   UNL     1     -11.852  13.279  66.580  0.00  0.00    +0.114 C 
ATOM      5  C   UNL     1     -10.554  12.633  66.108  0.00  0.00    +0.115 C 
ATOM      6  N   UNL     1     -10.022  11.886  67.247  0.00  0.00    -0.271 N 
ATOM      7  C   UNL     1     -10.721  10.666  67.537  0.00  0.00    +0.267 C 
ATOM      8  O   UNL     1     -11.944  10.813  67.847  0.00  0.00    -0.268 OA
ATOM      9  C   UNL     1      -9.735  12.696  68.429  0.00  0.00    +0.115 C 
ATOM     10  C   UNL     1     -11.103  13.153  68.929  0.00  0.00    +0.114 C 
ATOM     11  N   UNL     1     -10.533  15.768  66.631  0.00  0.00    -0.228 NA
ATOM     12  C   UNL     1     -10.059  17.019  66.517  0.00  0.00    +0.100 A 
ATOM     13  C   UNL     1     -10.309  17.885  67.567  0.00  0.00    +0.022 A 
ATOM     14  C   UNL     1     -10.582  17.335  68.805  0.00  0.00    +0.021 A 
ENDROOT
BRANCH   7  15
ATOM     15  C   UNL     1     -10.112   9.360  67.402  0.00  0.00    +0.135 A 
ATOM     16  N   UNL     1      -8.920   8.900  67.835  0.00  0.00    -0.241 NA
ATOM     17  C   UNL     1      -8.963   7.548  67.801  0.00  0.00    +0.082 A 
ATOM     18  C   UNL     1     -10.065   7.160  67.073  0.00  0.00    +0.021 A 
ATOM     19  C   UNL     1     -10.409   5.826  66.898  0.00  0.00    +0.020 A 
ATOM     20  C   UNL     1      -9.580   4.832  67.367  0.00  0.00    +0.091 A 
ATOM     21  C   UNL     1      -8.417   5.228  67.996  0.00  0.00    +0.020 A 
ATOM     22  C   UNL     1      -8.163   6.541  68.294  0.00  0.00    +0.020 A 
ATOM     23  C   UNL     1     -10.700   8.324  66.697  0.00  0.00    +0.025 A 
BRANCH  20  24
ATOM     24  N   UNL     1      -9.633   3.539  66.751  0.00  0.00    -0.101 NA
BRANCH  24  25
ATOM     25  S   UNL     1      -9.163   3.259  65.123  0.00  0.00    +0.075 S 
ATOM     26  O   UNL     1      -8.748   1.826  64.983  0.00  0.00    -0.153 OA
ATOM     27  O   UNL     1      -7.949   4.091  64.774  0.00  0.00    -0.153 OA
ATOM     28  C   UNL     1     -10.483   3.565  63.986  0.00  0.00    +0.202 C 
ENDBRANCH  24  25
ENDBRANCH  20  24
ENDBRANCH   7  15
BRANCH   1  29
ATOM     29  N   UNL     1     -11.009  15.418  70.233  0.00  0.00    -0.237 NA
BRANCH  29  31
ATOM     30  C   UNL     1     -11.631  15.588  72.577  0.00  0.00    +0.023 C 
ATOM     31  C   UNL     1     -11.994  15.932  71.154  0.00  0.00    +0.093 C 
ATOM     32  C   UNL     1     -13.340  15.301  70.862  0.00  0.00    +0.023 C 
ENDBRANCH  29  31
ENDBRANCH   1  29
TORSDOF 5
ENDMDL
MODEL 7
REMARK VINA RESULT:      -6.4      4.475      6.344
REMARK  Name = 
REMARK  5 active torsions:
REMARK  status: ('A' for Active; 'I' for Inactive)
REMARK    1  A    between atoms: C_2  and  N_4
REMARK    2  A    between atoms: N_4  and  C_5
REMARK    3  A    between atoms: C_15  and  C_17
REMARK    4  A    between atoms: C_21  and  N_22
REMARK    5  A    between atoms: N_22  and  S_23
REMARK                            x       y       z     vdW  Elec       q    Type
REMARK                         _______ _______ _______ _____ _____    ______ ____
ROOT
ATOM      1  C   UNL     1     -10.578  16.379  68.960  0.00  0.00    +0.097 A 
ATOM      2  C   UNL     1     -10.833  16.024  67.641  0.00  0.00    +0.147 A 
ATOM      3  N   UNL     1     -11.477  14.772  67.372  0.00  0.00    -0.289 N 
ATOM      4  C   UNL     1     -11.627  14.409  65.964  0.00  0.00    +0.114 C 
ATOM      5  C   UNL     1     -10.342  13.782  65.435  0.00  0.00    +0.115 C 
ATOM      6  N   UNL     1      -9.955  12.750  66.395  0.00  0.00    -0.271 N 
ATOM      7  C   UNL     1     -10.756  11.560  66.345  0.00  0.00    +0.267 C 
ATOM      8  O   UNL     1     -11.986  11.733  66.603  0.00  0.00    -0.268 OA
ATOM      9  C   UNL     1      -9.710  13.238  67.752  0.00  0.00    +0.115 C 
ATOM     10  C   UNL     1     -11.079  13.681  68.259  0.00  0.00    +0.114 C 
ATOM     11  N   UNL     1     -10.151  16.699  66.685  0.00  0.00    -0.228 NA
ATOM     12  C   UNL     1      -9.586  17.898  66.900  0.00  0.00    +0.100 A 
ATOM     13  C   UNL     1      -9.861  18.516  68.107  0.00  0.00    +0.022 A 
ATOM     14  C   UNL     1     -10.270  17.719  69.160  0.00  0.00    +0.021 A 
ENDROOT
BRANCH   7  15
ATOM     15  C   UNL     1     -10.227  10.274  65.943  0.00  0.00    +0.135 A 
ATOM     16  N   UNL     1      -9.606   9.899  64.806  0.00  0.00    -0.241 NA
ATOM     17  C   UNL     1      -8.976   8.726  65.047  0.00  0.00    +0.082 A 
ATOM     18  C   UNL     1      -9.439   8.214  66.239  0.00  0.00    +0.021 A 
ATOM     19  C   UNL     1      -8.946   7.036  66.784  0.00  0.00    +0.020 A 
ATOM     20  C   UNL     1      -8.038   6.276  66.081  0.00  0.00    +0.091 A 
ATOM     21  C   UNL     1      -7.665   6.737  64.835  0.00  0.00    +0.020 A 
ATOM     22  C   UNL     1      -8.042   7.971  64.373  0.00  0.00    +0.020 A 
ATOM     23  C   UNL     1     -10.345   9.135  66.720  0.00  0.00    +0.025 A 
BRANCH  20  24
ATOM     24  N   UNL     1      -7.945   4.874  66.361  0.00  0.00    -0.101 NA
BRANCH  24  25
ATOM     25  S   UNL     1      -9.011   3.712  65.681  0.00  0.00    +0.075 S 
ATOM     26  O   UNL     1      -8.597   3.451  64.265  0.00  0.00    -0.153 OA
ATOM     27  O   UNL     1     -10.420   4.261  65.620  0.00  0.00    -0.153 OA
ATOM     28  C   UNL     1      -8.972   2.177  66.559  0.00  0.00    +0.202 C 
ENDBRANCH  24  25
ENDBRANCH  20  24
ENDBRANCH   7  15
BRANCH   1  29
ATOM     29  N   UNL     1     -10.939  15.568  70.065  0.00  0.00    -0.237 NA
BRANCH  29  31
ATOM     30  C   UNL     1     -11.512  15.517  72.427  0.00  0.00    +0.023 C 
ATOM     31  C   UNL     1     -11.925  15.958  71.045  0.00  0.00    +0.093 C 
ATOM     32  C   UNL     1     -13.246  15.288  70.729  0.00  0.00    +0.023 C 
ENDBRANCH  29  31
ENDBRANCH   1  29
TORSDOF 5
ENDMDL
MODEL 8
REMARK VINA RESULT:      -6.4      4.342     11.037
REMARK  Name = 
REMARK  5 active torsions:
REMARK  status: ('A' for Active; 'I' for Inactive)
REMARK    1  A    between atoms: C_2  and  N_4
REMARK    2  A    between atoms: N_4  and  C_5
REMARK    3  A    between atoms: C_15  and  C_17
REMARK    4  A    between atoms: C_21  and  N_22
REMARK    5  A    between atoms: N_22  and  S_23
REMARK                            x       y       z     vdW  Elec       q    Type
REMARK                         _______ _______ _______ _____ _____    ______ ____
ROOT
ATOM      1  C   UNL     1      -9.565   5.591  69.985  0.00  0.00    +0.097 A 
ATOM      2  C   UNL     1      -8.792   5.937  68.883  0.00  0.00    +0.147 A 
ATOM      3  N   UNL     1      -8.268   7.268  68.791  0.00  0.00    -0.289 N 
ATOM      4  C   UNL     1      -7.550   7.600  67.563  0.00  0.00    +0.114 C 
ATOM      5  C   UNL     1      -8.530   7.986  66.460  0.00  0.00    +0.115 C 
ATOM      6  N   UNL     1      -9.440   8.973  67.038  0.00  0.00    -0.271 N 
ATOM      7  C   UNL     1      -8.868  10.277  67.218  0.00  0.00    +0.267 C 
ATOM      8  O   UNL     1      -7.874  10.319  68.007  0.00  0.00    -0.268 OA
ATOM      9  C   UNL     1     -10.202   8.500  68.192  0.00  0.00    +0.115 C 
ATOM     10  C   UNL     1      -9.163   8.308  69.293  0.00  0.00    +0.114 C 
ATOM     11  N   UNL     1      -8.875   5.124  67.802  0.00  0.00    -0.228 NA
ATOM     12  C   UNL     1      -9.312   3.857  67.873  0.00  0.00    +0.100 A 
ATOM     13  C   UNL     1      -9.531   3.336  69.136  0.00  0.00    +0.022 A 
ATOM     14  C   UNL     1      -9.750   4.227  70.170  0.00  0.00    +0.021 A 
ENDROOT
BRANCH   7  15
ATOM     15  C   UNL     1      -9.323  11.442  66.491  0.00  0.00    +0.135 A 
ATOM     16  N   UNL     1     -10.261  11.563  65.529  0.00  0.00    -0.241 NA
ATOM     17  C   UNL     1     -10.589  12.872  65.433  0.00  0.00    +0.082 A 
ATOM     18  C   UNL     1      -9.653  13.612  66.122  0.00  0.00    +0.021 A 
ATOM     19  C   UNL     1      -9.742  14.991  66.249  0.00  0.00    +0.020 A 
ATOM     20  C   UNL     1     -10.730  15.684  65.585  0.00  0.00    +0.091 A 
ATOM     21  C   UNL     1     -11.597  14.948  64.803  0.00  0.00    +0.020 A 
ATOM     22  C   UNL     1     -11.591  13.577  64.805  0.00  0.00    +0.020 A 
ATOM     23  C   UNL     1      -8.770  12.699  66.660  0.00  0.00    +0.025 A 
BRANCH  20  24
ATOM     24  N   UNL     1     -10.518  17.067  65.277  0.00  0.00    -0.101 NA
BRANCH  24  25
ATOM     25  S   UNL     1     -10.162  18.247  66.473  0.00  0.00    +0.075 S 
ATOM     26  O   UNL     1     -10.957  17.937  67.704  0.00  0.00    -0.153 OA
ATOM     27  O   UNL     1     -10.608  19.617  66.011  0.00  0.00    -0.153 OA
ATOM     28  C   UNL     1      -8.449  18.257  66.911  0.00  0.00    +0.202 C 
ENDBRANCH  24  25
ENDBRANCH  20  24
ENDBRANCH   7  15
BRANCH   1  29
ATOM     29  N   UNL     1      -9.851   6.490  71.043  0.00  0.00    -0.237 NA
BRANCH  29  31
ATOM     30  C   UNL     1     -12.251   6.867  70.950  0.00  0.00    +0.023 C 
ATOM     31  C   UNL     1     -11.077   6.453  71.803  0.00  0.00    +0.093 C 
ATOM     32  C   UNL     1     -10.987   7.428  72.958  0.00  0.00    +0.023 C 
ENDBRANCH  29  31
ENDBRANCH   1  29
TORSDOF 5
ENDMDL
MODEL 9
REMARK VINA RESULT:      -6.4      5.556     11.722
REMARK  Name = 
REMARK  5 active torsions:
REMARK  status: ('A' for Active; 'I' for Inactive)
REMARK    1  A    between atoms: C_2  and  N_4
REMARK    2  A    between atoms: N_4  and  C_5
REMARK    3  A    between atoms: C_15  and  C_17
REMARK    4  A    between atoms: C_21  and  N_22
REMARK    5  A    between atoms: N_22  and  S_23
REMARK                            x       y       z     vdW  Elec       q    Type
REMARK                         _______ _______ _______ _____ _____    ______ ____
ROOT
ATOM      1  C   UNL     1      -8.059   5.254  73.769  0.00  0.00    +0.097 A 
ATOM      2  C   UNL     1      -9.409   5.580  73.721  0.00  0.00    +0.147 A 
ATOM      3  N   UNL     1     -10.019   5.830  72.448  0.00  0.00    -0.289 N 
ATOM      4  C   UNL     1     -11.413   6.266  72.469  0.00  0.00    +0.114 C 
ATOM      5  C   UNL     1     -11.498   7.766  72.726  0.00  0.00    +0.115 C 
ATOM      6  N   UNL     1     -10.572   8.402  71.791  0.00  0.00    -0.271 N 
ATOM      7  C   UNL     1     -11.029   8.437  70.430  0.00  0.00    +0.267 C 
ATOM      8  O   UNL     1     -11.220   7.299  69.902  0.00  0.00    -0.268 OA
ATOM      9  C   UNL     1      -9.178   7.985  71.933  0.00  0.00    +0.115 C 
ATOM     10  C   UNL     1      -9.161   6.524  71.490  0.00  0.00    +0.114 C 
ATOM     11  N   UNL     1      -9.979   5.989  74.880  0.00  0.00    -0.228 NA
ATOM     12  C   UNL     1      -9.454   5.721  76.086  0.00  0.00    +0.100 A 
ATOM     13  C   UNL     1      -8.375   4.857  76.125  0.00  0.00    +0.022 A 
ATOM     14  C   UNL     1      -7.628   4.708  74.971  0.00  0.00    +0.021 A 
ENDROOT
BRANCH   7  15
ATOM     15  C   UNL     1     -11.338   9.669  69.737  0.00  0.00    +0.135 A 
ATOM     16  N   UNL     1     -11.900  10.810  70.187  0.00  0.00    -0.241 NA
ATOM     17  C   UNL     1     -11.639  11.783  69.283  0.00  0.00    +0.082 A 
ATOM     18  C   UNL     1     -11.170  11.198  68.128  0.00  0.00    +0.021 A 
ATOM     19  C   UNL     1     -10.768  11.941  67.027  0.00  0.00    +0.020 A 
ATOM     20  C   UNL     1     -10.931  13.309  67.020  0.00  0.00    +0.091 A 
ATOM     21  C   UNL     1     -11.509  13.878  68.137  0.00  0.00    +0.020 A 
ATOM     22  C   UNL     1     -11.762  13.154  69.273  0.00  0.00    +0.020 A 
ATOM     23  C   UNL     1     -11.130   9.842  68.380  0.00  0.00    +0.025 A 
BRANCH  20  24
ATOM     24  N   UNL     1     -11.030  13.988  65.762  0.00  0.00    -0.101 NA
BRANCH  24  25
ATOM     25  S   UNL     1     -12.019  13.428  64.474  0.00  0.00    +0.075 S 
ATOM     26  O   UNL     1     -12.493  14.610  63.686  0.00  0.00    -0.153 OA
ATOM     27  O   UNL     1     -13.258  12.751  65.016  0.00  0.00    -0.153 OA
ATOM     28  C   UNL     1     -11.141  12.352  63.379  0.00  0.00    +0.202 C 
ENDBRANCH  24  25
ENDBRANCH  20  24
ENDBRANCH   7  15
BRANCH   1  29
ATOM     29  N   UNL     1      -7.249   5.138  72.612  0.00  0.00    -0.237 NA
BRANCH  29  31
ATOM     30  C   UNL     1      -5.106   4.193  71.958  0.00  0.00    +0.023 C 
ATOM     31  C   UNL     1      -6.563   3.922  72.245  0.00  0.00    +0.093 C 
ATOM     32  C   UNL     1      -7.178   3.353  70.984  0.00  0.00    +0.023 C 
ENDBRANCH  29  31
ENDBRANCH   1  29
TORSDOF 5
ENDMDL
