MODEL 1
REMARK VINA RESULT:      -5.8      0.000      0.000
REMARK  Name = 
REMARK  6 active torsions:
REMARK  status: ('A' for Active; 'I' for Inactive)
REMARK    1  A    between atoms: C_2  and  N_3
REMARK    2  A    between atoms: N_3  and  C_4
REMARK    3  A    between atoms: C_4  and  C_5
REMARK    4  A    between atoms: C_11  and  C_13
REMARK    5  A    between atoms: C_13  and  C_14
REMARK    6  A    between atoms: C_13  and  C_16
REMARK                            x       y       z     vdW  Elec       q    Type
REMARK                         _______ _______ _______ _____ _____    ______ ____
ROOT
ATOM      1  N   UNL     1     -11.142  15.555  68.804  0.00  0.00    -0.275 N 
ATOM      2  C   UNL     1     -10.810  14.382  68.083  0.00  0.00    +0.232 C 
ATOM      3  O   UNL     1      -9.660  14.041  67.887  0.00  0.00    -0.274 OA
ENDROOT
BRANCH   1   5
ATOM      4  C   UNL     1     -10.465  17.427  68.365  0.00  0.00    +0.023 C 
ATOM      5  C   UNL     1     -10.301  16.717  68.522  0.00  0.00    +0.094 C 
ENDBRANCH   1   5
BRANCH   2   6
ATOM      6  C   UNL     1     -12.032  13.402  67.738  0.00  0.00    +0.132 C 
BRANCH   6   7
ATOM      7  C   UNL     1     -11.174  12.071  68.045  0.00  0.00    -0.011 A 
ATOM      8  C   UNL     1     -11.211  11.128  67.017  0.00  0.00    -0.004 A 
ATOM      9  C   UNL     1     -10.672   9.895  67.336  0.00  0.00    -0.000 A 
ATOM     10  C   UNL     1     -10.645   9.497  68.668  0.00  0.00    -0.000 A 
ATOM     11  C   UNL     1     -11.276  10.290  69.619  0.00  0.00    -0.000 A 
ATOM     12  C   UNL     1     -11.681  11.538  69.230  0.00  0.00    -0.004 A 
ENDBRANCH   6   7
BRANCH   6  13
ATOM     13  C   UNL     1     -11.739  13.398  66.130  0.00  0.00    +0.195 C 
ATOM     14  O   UNL     1     -12.823  13.800  65.439  0.00  0.00    -0.220 OA
ENDBRANCH   6  13
ENDBRANCH   2   6
BRANCH   1  15
ATOM     15  C   UNL     1     -12.409  15.731  69.478  0.00  0.00    +0.120 C 
BRANCH  15  16
ATOM     16  C   UNL     1     -12.327  15.248  70.881  0.00  0.00    +0.001 A 
ATOM     17  C   UNL     1     -11.792  16.000  71.892  0.00  0.00    +0.018 A 
ATOM     18  C   UNL     1     -12.311  15.941  73.170  0.00  0.00    +0.099 A 
ATOM     19  N   UNL     1     -13.211  14.968  73.450  0.00  0.00    -0.242 NA
ATOM     20  C   UNL     1     -13.377  13.937  72.588  0.00  0.00    +0.099 A 
ATOM     21  C   UNL     1     -13.123  14.176  71.245  0.00  0.00    +0.018 A 
ENDBRANCH  15  16
ENDBRANCH   1  15
TORSDOF 6
ENDMDL
MODEL 2
REMARK VINA RESULT:      -5.6      1.308      1.625
REMARK  Name = 
REMARK  6 active torsions:
REMARK  status: ('A' for Active; 'I' for Inactive)
REMARK    1  A    between atoms: C_2  and  N_3
REMARK    2  A    between atoms: N_3  and  C_4
REMARK    3  A    between atoms: C_4  and  C_5
REMARK    4  A    between atoms: C_11  and  C_13
REMARK    5  A    between atoms: C_13  and  C_14
REMARK    6  A    between atoms: C_13  and  C_16
REMARK                            x       y       z     vdW  Elec       q    Type
REMARK                         _______ _______ _______ _____ _____    ______ ____
ROOT
ATOM      1  N   UNL     1     -10.605  16.023  68.426  0.00  0.00    -0.275 N 
ATOM      2  C   UNL     1     -10.178  15.220  67.340  0.00  0.00    +0.232 C 
ATOM      3  O   UNL     1      -9.012  14.925  67.167  0.00  0.00    -0.274 OA
ENDROOT
BRANCH   1   5
ATOM      4  C   UNL     1      -9.799  17.885  68.620  0.00  0.00    +0.023 C 
ATOM      5  C   UNL     1      -9.733  17.153  68.744  0.00  0.00    +0.094 C 
ENDBRANCH   1   5
BRANCH   2   6
ATOM      6  C   UNL     1     -11.342  14.529  66.480  0.00  0.00    +0.132 C 
BRANCH   6   7
ATOM      7  C   UNL     1     -10.667  13.066  66.568  0.00  0.00    -0.011 A 
ATOM      8  C   UNL     1     -10.555  12.422  65.335  0.00  0.00    -0.004 A 
ATOM      9  C   UNL     1     -10.185  11.091  65.403  0.00  0.00    -0.000 A 
ATOM     10  C   UNL     1     -10.469  10.373  66.558  0.00  0.00    -0.000 A 
ATOM     11  C   UNL     1     -11.227  10.976  67.555  0.00  0.00    -0.000 A 
ATOM     12  C   UNL     1     -11.449  12.322  67.450  0.00  0.00    -0.004 A 
ENDBRANCH   6   7
BRANCH   6  13
ATOM     13  C   UNL     1     -10.675  14.911  65.037  0.00  0.00    +0.195 C 
ATOM     14  O   UNL     1     -10.917  16.197  64.717  0.00  0.00    -0.220 OA
ENDBRANCH   6  13
ENDBRANCH   2   6
BRANCH   1  15
ATOM     15  C   UNL     1     -11.951  15.983  68.951  0.00  0.00    +0.120 C 
BRANCH  15  16
ATOM     16  C   UNL     1     -11.970  15.351  70.295  0.00  0.00    +0.001 A 
ATOM     17  C   UNL     1     -11.797  16.064  71.451  0.00  0.00    +0.018 A 
ATOM     18  C   UNL     1     -12.475  15.722  72.604  0.00  0.00    +0.099 A 
ATOM     19  N   UNL     1     -13.142  14.542  72.627  0.00  0.00    -0.242 NA
ATOM     20  C   UNL     1     -12.917  13.624  71.658  0.00  0.00    +0.099 A 
ATOM     21  C   UNL     1     -12.526  14.088  70.410  0.00  0.00    +0.018 A 
ENDBRANCH  15  16
ENDBRANCH   1  15
TORSDOF 6
ENDMDL
MODEL 3
REMARK VINA RESULT:      -5.4      1.830      5.261
REMARK  Name = 
REMARK  6 active torsions:
REMARK  status: ('A' for Active; 'I' for Inactive)
REMARK    1  A    between atoms: C_2  and  N_3
REMARK    2  A    between atoms: N_3  and  C_4
REMARK    3  A    between atoms: C_4  and  C_5
REMARK    4  A    between atoms: C_11  and  C_13
REMARK    5  A    between atoms: C_13  and  C_14
REMARK    6  A    between atoms: C_13  and  C_16
REMARK                            x       y       z     vdW  Elec       q    Type
REMARK                         _______ _______ _______ _____ _____    ______ ____
ROOT
ATOM      1  N   UNL     1     -11.211  14.367  68.242  0.00  0.00    -0.275 N 
ATOM      2  C   UNL     1     -10.559  15.343  67.448  0.00  0.00    +0.232 C 
ATOM      3  O   UNL     1     -11.021  15.744  66.399  0.00  0.00    -0.274 OA
ENDROOT
BRANCH   1   5
ATOM      4  C   UNL     1     -11.625  12.559  67.396  0.00  0.00    +0.023 C 
ATOM      5  C   UNL     1     -11.826  13.270  67.496  0.00  0.00    +0.094 C 
ENDBRANCH   1   5
BRANCH   2   6
ATOM      6  C   UNL     1      -9.293  16.062  68.122  0.00  0.00    +0.132 C 
BRANCH   6   7
ATOM      7  C   UNL     1      -9.610  17.482  67.425  0.00  0.00    -0.011 A 
ATOM      8  C   UNL     1      -8.530  18.018  66.723  0.00  0.00    -0.004 A 
ATOM      9  C   UNL     1      -8.698  19.325  66.302  0.00  0.00    -0.000 A 
ATOM     10  C   UNL     1      -9.574  20.148  67.000  0.00  0.00    -0.000 A 
ATOM     11  C   UNL     1     -10.153  19.675  68.171  0.00  0.00    -0.000 A 
ATOM     12  C   UNL     1     -10.018  18.341  68.446  0.00  0.00    -0.004 A 
ENDBRANCH   6   7
BRANCH   6  13
ATOM     13  C   UNL     1      -8.241  15.566  66.972  0.00  0.00    +0.195 C 
ATOM     14  O   UNL     1      -7.992  14.247  67.080  0.00  0.00    -0.220 OA
ENDBRANCH   6  13
ENDBRANCH   2   6
BRANCH   1  15
ATOM     15  C   UNL     1     -10.989  14.235  69.664  0.00  0.00    +0.120 C 
BRANCH  15  16
ATOM     16  C   UNL     1     -12.283  14.199  70.394  0.00  0.00    +0.001 A 
ATOM     17  C   UNL     1     -12.742  13.078  71.031  0.00  0.00    +0.018 A 
ATOM     18  C   UNL     1     -13.455  13.174  72.210  0.00  0.00    +0.099 A 
ATOM     19  N   UNL     1     -13.876  14.400  72.604  0.00  0.00    -0.242 NA
ATOM     20  C   UNL     1     -13.835  15.436  71.734  0.00  0.00    +0.099 A 
ATOM     21  C   UNL     1     -12.863  15.406  70.744  0.00  0.00    +0.018 A 
ENDBRANCH  15  16
ENDBRANCH   1  15
TORSDOF 6
ENDMDL
MODEL 4
REMARK VINA RESULT:      -5.4      2.121      3.751
REMARK  Name = 
REMARK  6 active torsions:
REMARK  status: ('A' for Active; 'I' for Inactive)
REMARK    1  A    between atoms: C_2  and  N_3
REMARK    2  A    between atoms: N_3  and  C_4
REMARK    3  A    between atoms: C_4  and  C_5
REMARK    4  A    between atoms: C_11  and  C_13
REMARK    5  A    between atoms: C_13  and  C_14
REMARK    6  A    between atoms: C_13  and  C_16
REMARK                            x       y       z     vdW  Elec       q    Type
REMARK                         _______ _______ _______ _____ _____    ______ ____
ROOT
ATOM      1  N   UNL     1     -11.913  12.581  69.582  0.00  0.00    -0.275 N 
ATOM      2  C   UNL     1     -11.580  12.046  68.313  0.00  0.00    +0.232 C 
ATOM      3  O   UNL     1     -12.161  11.092  67.836  0.00  0.00    -0.274 OA
ENDROOT
BRANCH   1   5
ATOM      4  C   UNL     1     -11.925  10.916  70.759  0.00  0.00    +0.023 C 
ATOM      5  C   UNL     1     -12.212  11.589  70.614  0.00  0.00    +0.094 C 
ENDBRANCH   1   5
BRANCH   2   6
ATOM      6  C   UNL     1     -10.553  12.911  67.436  0.00  0.00    +0.132 C 
BRANCH   6   7
ATOM      7  C   UNL     1     -11.293  12.558  66.048  0.00  0.00    -0.011 A 
ATOM      8  C   UNL     1     -10.463  11.948  65.106  0.00  0.00    -0.004 A 
ATOM      9  C   UNL     1     -11.005  11.833  63.838  0.00  0.00    -0.000 A 
ATOM     10  C   UNL     1     -11.992  12.729  63.445  0.00  0.00    -0.000 A 
ATOM     11  C   UNL     1     -12.311  13.789  64.285  0.00  0.00    -0.000 A 
ATOM     12  C   UNL     1     -11.809  13.757  65.558  0.00  0.00    -0.004 A 
ENDBRANCH   6   7
BRANCH   6  13
ATOM     13  C   UNL     1      -9.447  11.713  67.321  0.00  0.00    +0.195 C 
ATOM     14  O   UNL     1      -8.862  11.478  68.512  0.00  0.00    -0.220 OA
ENDBRANCH   6  13
ENDBRANCH   2   6
BRANCH   1  15
ATOM     15  C   UNL     1     -11.631  13.948  69.957  0.00  0.00    +0.120 C 
BRANCH  15  16
ATOM     16  C   UNL     1     -12.421  14.335  71.154  0.00  0.00    +0.001 A 
ATOM     17  C   UNL     1     -11.858  14.929  72.253  0.00  0.00    +0.018 A 
ATOM     18  C   UNL     1     -12.547  15.883  72.975  0.00  0.00    +0.099 A 
ATOM     19  N   UNL     1     -13.864  16.058  72.707  0.00  0.00    -0.242 NA
ATOM     20  C   UNL     1     -14.526  15.144  71.960  0.00  0.00    +0.099 A 
ATOM     21  C   UNL     1     -13.795  14.431  71.021  0.00  0.00    +0.018 A 
ENDBRANCH  15  16
ENDBRANCH   1  15
TORSDOF 6
ENDMDL
MODEL 5
REMARK VINA RESULT:      -5.3      3.475      6.224
REMARK  Name = 
REMARK  6 active torsions:
REMARK  status: ('A' for Active; 'I' for Inactive)
REMARK    1  A    between atoms: C_2  and  N_3
REMARK    2  A    between atoms: N_3  and  C_4
REMARK    3  A    between atoms: C_4  and  C_5
REMARK    4  A    between atoms: C_11  and  C_13
REMARK    5  A    between atoms: C_13  and  C_14
REMARK    6  A    between atoms: C_13  and  C_16
REMARK                            x       y       z     vdW  Elec       q    Type
REMARK                         _______ _______ _______ _____ _____    ______ ____
ROOT
ATOM      1  N   UNL     1     -11.425  12.713  64.687  0.00  0.00    -0.275 N 
ATOM      2  C   UNL     1     -11.597  14.021  65.204  0.00  0.00    +0.232 C 
ATOM      3  O   UNL     1     -12.623  14.377  65.747  0.00  0.00    -0.274 OA
ENDROOT
BRANCH   1   5
ATOM      4  C   UNL     1     -12.672  11.838  63.332  0.00  0.00    +0.023 C 
ATOM      5  C   UNL     1     -12.590  12.158  64.001  0.00  0.00    +0.094 C 
ENDBRANCH   1   5
BRANCH   2   6
ATOM      6  C   UNL     1     -10.281  14.937  65.244  0.00  0.00    +0.132 C 
BRANCH   6   7
ATOM      7  C   UNL     1     -10.215  14.938  66.856  0.00  0.00    -0.011 A 
ATOM      8  C   UNL     1     -10.428  16.193  67.427  0.00  0.00    -0.004 A 
ATOM      9  C   UNL     1     -10.164  16.269  68.783  0.00  0.00    -0.000 A 
ATOM     10  C   UNL     1      -9.258  15.375  69.343  0.00  0.00    -0.000 A 
ATOM     11  C   UNL     1      -8.552  14.520  68.505  0.00  0.00    -0.000 A 
ATOM     12  C   UNL     1      -8.960  14.438  67.201  0.00  0.00    -0.004 A 
ENDBRANCH   6   7
BRANCH   6  13
ATOM     13  C   UNL     1     -11.105  16.344  65.130  0.00  0.00    +0.195 C 
ATOM     14  O   UNL     1     -11.469  16.591  63.857  0.00  0.00    -0.220 OA
ENDBRANCH   6  13
ENDBRANCH   2   6
BRANCH   1  15
ATOM     15  C   UNL     1     -10.126  12.104  64.507  0.00  0.00    +0.120 C 
BRANCH  15  16
ATOM     16  C   UNL     1      -9.889  11.063  65.540  0.00  0.00    +0.001 A 
ATOM     17  C   UNL     1     -10.424  11.132  66.798  0.00  0.00    +0.018 A 
ATOM     18  C   UNL     1     -10.827   9.991  67.462  0.00  0.00    +0.099 A 
ATOM     19  N   UNL     1     -10.481   8.791  66.936  0.00  0.00    -0.242 NA
ATOM     20  C   UNL     1      -9.548   8.729  65.957  0.00  0.00    +0.099 A 
ATOM     21  C   UNL     1      -9.421   9.829  65.121  0.00  0.00    +0.018 A 
ENDBRANCH  15  16
ENDBRANCH   1  15
TORSDOF 6
ENDMDL
MODEL 6
REMARK VINA RESULT:      -5.3      4.836      6.285
REMARK  Name = 
REMARK  6 active torsions:
REMARK  status: ('A' for Active; 'I' for Inactive)
REMARK    1  A    between atoms: C_2  and  N_3
REMARK    2  A    between atoms: N_3  and  C_4
REMARK    3  A    between atoms: C_4  and  C_5
REMARK    4  A    between atoms: C_11  and  C_13
REMARK    5  A    between atoms: C_13  and  C_14
REMARK    6  A    between atoms: C_13  and  C_16
REMARK                            x       y       z     vdW  Elec       q    Type
REMARK                         _______ _______ _______ _____ _____    ______ ____
ROOT
ATOM      1  N   UNL     1      -7.420  19.264  67.308  0.00  0.00    -0.275 N 
ATOM      2  C   UNL     1      -8.046  18.183  66.640  0.00  0.00    +0.232 C 
ATOM      3  O   UNL     1      -7.569  17.664  65.650  0.00  0.00    -0.274 OA
ENDROOT
BRANCH   1   5
ATOM      4  C   UNL     1      -6.446  20.899  66.578  0.00  0.00    +0.023 C 
ATOM      5  C   UNL     1      -6.824  20.272  66.433  0.00  0.00    +0.094 C 
ENDBRANCH   1   5
BRANCH   2   6
ATOM      6  C   UNL     1      -9.301  17.526  67.393  0.00  0.00    +0.132 C 
BRANCH   6   7
ATOM      7  C   UNL     1      -9.361  16.263  66.391  0.00  0.00    -0.011 A 
ATOM      8  C   UNL     1     -10.542  16.186  65.652  0.00  0.00    -0.004 A 
ATOM      9  C   UNL     1     -10.716  15.005  64.952  0.00  0.00    -0.000 A 
ATOM     10  C   UNL     1     -10.084  13.854  65.407  0.00  0.00    -0.000 A 
ATOM     11  C   UNL     1      -9.403  13.895  66.618  0.00  0.00    -0.000 A 
ATOM     12  C   UNL     1      -9.190  15.125  67.179  0.00  0.00    -0.004 A 
ENDBRANCH   6   7
BRANCH   6  13
ATOM     13  C   UNL     1     -10.411  18.409  66.580  0.00  0.00    +0.195 C 
ATOM     14  O   UNL     1     -11.054  19.257  67.406  0.00  0.00    -0.220 OA
ENDBRANCH   6  13
ENDBRANCH   2   6
BRANCH   1  15
ATOM     15  C   UNL     1      -7.654  19.567  68.701  0.00  0.00    +0.120 C 
BRANCH  15  16
ATOM     16  C   UNL     1      -6.442  19.277  69.510  0.00  0.00    +0.001 A 
ATOM     17  C   UNL     1      -5.911  20.175  70.397  0.00  0.00    +0.018 A 
ATOM     18  C   UNL     1      -5.332  19.750  71.576  0.00  0.00    +0.099 A 
ATOM     19  N   UNL     1      -5.105  18.424  71.735  0.00  0.00    -0.242 NA
ATOM     20  C   UNL     1      -5.191  17.595  70.668  0.00  0.00    +0.099 A 
ATOM     21  C   UNL     1      -6.052  17.955  69.641  0.00  0.00    +0.018 A 
ENDBRANCH  15  16
ENDBRANCH   1  15
TORSDOF 6
ENDMDL
MODEL 7
REMARK VINA RESULT:      -5.3      2.674      4.476
REMARK  Name = 
REMARK  6 active torsions:
REMARK  status: ('A' for Active; 'I' for Inactive)
REMARK    1  A    between atoms: C_2  and  N_3
REMARK    2  A    between atoms: N_3  and  C_4
REMARK    3  A    between atoms: C_4  and  C_5
REMARK    4  A    between atoms: C_11  and  C_13
REMARK    5  A    between atoms: C_13  and  C_14
REMARK    6  A    between atoms: C_13  and  C_16
REMARK                            x       y       z     vdW  Elec       q    Type
REMARK                         _______ _______ _______ _____ _____    ______ ____
ROOT
ATOM      1  N   UNL     1     -11.197  12.797  68.180  0.00  0.00    -0.275 N 
ATOM      2  C   UNL     1     -10.941  13.071  66.813  0.00  0.00    +0.232 C 
ATOM      3  O   UNL     1     -10.023  13.780  66.452  0.00  0.00    -0.274 OA
ENDROOT
BRANCH   1   5
ATOM      4  C   UNL     1     -11.535  14.353  69.452  0.00  0.00    +0.023 C 
ATOM      5  C   UNL     1     -11.040  13.937  69.081  0.00  0.00    +0.094 C 
ENDBRANCH   1   5
BRANCH   2   6
ATOM      6  C   UNL     1     -11.784  12.208  65.756  0.00  0.00    +0.132 C 
BRANCH   6   7
ATOM      7  C   UNL     1     -10.466  11.707  64.972  0.00  0.00    -0.011 A 
ATOM      8  C   UNL     1     -10.576  11.780  63.583  0.00  0.00    -0.004 A 
ATOM      9  C   UNL     1      -9.557  11.159  62.883  0.00  0.00    -0.000 A 
ATOM     10  C   UNL     1      -8.862  10.119  63.489  0.00  0.00    -0.000 A 
ATOM     11  C   UNL     1      -9.296   9.650  64.724  0.00  0.00    -0.000 A 
ATOM     12  C   UNL     1     -10.234  10.395  65.386  0.00  0.00    -0.004 A 
ENDBRANCH   6   7
BRANCH   6  13
ATOM     13  C   UNL     1     -12.073  13.474  64.763  0.00  0.00    +0.195 C 
ATOM     14  O   UNL     1     -13.211  14.108  65.106  0.00  0.00    -0.220 OA
ENDBRANCH   6  13
ENDBRANCH   2   6
BRANCH   1  15
ATOM     15  C   UNL     1     -11.906  11.620  68.625  0.00  0.00    +0.120 C 
BRANCH  15  16
ATOM     16  C   UNL     1     -11.094  10.861  69.611  0.00  0.00    +0.001 A 
ATOM     17  C   UNL     1     -11.619  10.353  70.769  0.00  0.00    +0.018 A 
ATOM     18  C   UNL     1     -11.175   9.150  71.282  0.00  0.00    +0.099 A 
ATOM     19  N   UNL     1     -10.065   8.595  70.738  0.00  0.00    -0.242 NA
ATOM     20  C   UNL     1      -9.277   9.331  69.919  0.00  0.00    +0.099 A 
ATOM     21  C   UNL     1      -9.879  10.346  69.190  0.00  0.00    +0.018 A 
ENDBRANCH  15  16
ENDBRANCH   1  15
TORSDOF 6
ENDMDL
MODEL 8
REMARK VINA RESULT:      -5.3      4.064      6.212
REMARK  Name = 
REMARK  6 active torsions:
REMARK  status: ('A' for Active; 'I' for Inactive)
REMARK    1  A    between atoms: C_2  and  N_3
REMARK    2  A    between atoms: N_3  and  C_4
REMARK    3  A    between atoms: C_4  and  C_5
REMARK    4  A    between atoms: C_11  and  C_13
REMARK    5  A    between atoms: C_13  and  C_14
REMARK    6  A    between atoms: C_13  and  C_16
REMARK                            x       y       z     vdW  Elec       q    Type
REMARK                         _______ _______ _______ _____ _____    ______ ____
ROOT
ATOM      1  N   UNL     1      -9.703  17.712  66.431  0.00  0.00    -0.275 N 
ATOM      2  C   UNL     1     -10.310  16.622  65.760  0.00  0.00    +0.232 C 
ATOM      3  O   UNL     1     -10.873  16.747  64.691  0.00  0.00    -0.274 OA
ENDROOT
BRANCH   1   5
ATOM      4  C   UNL     1     -10.715  19.412  66.926  0.00  0.00    +0.023 C 
ATOM      5  C   UNL     1     -10.456  18.965  66.387  0.00  0.00    +0.094 C 
ENDBRANCH   1   5
BRANCH   2   6
ATOM      6  C   UNL     1     -10.014  15.170  66.372  0.00  0.00    +0.132 C 
BRANCH   6   7
ATOM      7  C   UNL     1     -10.921  14.417  65.272  0.00  0.00    -0.011 A 
ATOM      8  C   UNL     1     -12.080  13.842  65.795  0.00  0.00    -0.004 A 
ATOM      9  C   UNL     1     -12.762  13.009  64.927  0.00  0.00    -0.000 A 
ATOM     10  C   UNL     1     -12.061  12.389  63.899  0.00  0.00    -0.000 A 
ATOM     11  C   UNL     1     -10.678  12.522  63.854  0.00  0.00    -0.000 A 
ATOM     12  C   UNL     1     -10.107  13.451  64.681  0.00  0.00    -0.004 A 
ENDBRANCH   6   7
BRANCH   6  13
ATOM     13  C   UNL     1     -11.196  15.264  67.497  0.00  0.00    +0.195 C 
ATOM     14  O   UNL     1     -10.708  15.037  68.732  0.00  0.00    -0.220 OA
ENDBRANCH   6  13
ENDBRANCH   2   6
BRANCH   1  15
ATOM     15  C   UNL     1      -8.635  17.548  67.390  0.00  0.00    +0.120 C 
BRANCH  15  16
ATOM     16  C   UNL     1      -7.458  18.369  67.008  0.00  0.00    +0.001 A 
ATOM     17  C   UNL     1      -6.932  18.367  65.743  0.00  0.00    +0.018 A 
ATOM     18  C   UNL     1      -6.403  19.517  65.193  0.00  0.00    +0.099 A 
ATOM     19  N   UNL     1      -6.215  20.586  66.005  0.00  0.00    -0.242 NA
ATOM     20  C   UNL     1      -6.287  20.431  67.348  0.00  0.00    +0.099 A 
ATOM     21  C   UNL     1      -7.105  19.421  67.835  0.00  0.00    +0.018 A 
ENDBRANCH  15  16
ENDBRANCH   1  15
TORSDOF 6
ENDMDL
MODEL 9
REMARK VINA RESULT:      -5.2      3.052      6.981
REMARK  Name = 
REMARK  6 active torsions:
REMARK  status: ('A' for Active; 'I' for Inactive)
REMARK    1  A    between atoms: C_2  and  N_3
REMARK    2  A    between atoms: N_3  and  C_4
REMARK    3  A    between atoms: C_4  and  C_5
REMARK    4  A    between atoms: C_11  and  C_13
REMARK    5  A    between atoms: C_13  and  C_14
REMARK    6  A    between atoms: C_13  and  C_16
REMARK                            x       y       z     vdW  Elec       q    Type
REMARK                         _______ _______ _______ _____ _____    ______ ____
ROOT
ATOM      1  N   UNL     1     -10.127  13.867  67.384  0.00  0.00    -0.275 N 
ATOM      2  C   UNL     1      -9.757  15.220  67.579  0.00  0.00    +0.232 C 
ATOM      3  O   UNL     1      -8.603  15.595  67.520  0.00  0.00    -0.274 OA
ENDROOT
BRANCH   1   5
ATOM      4  C   UNL     1      -9.364  12.237  68.342  0.00  0.00    +0.023 C 
ATOM      5  C   UNL     1      -9.234  12.885  67.997  0.00  0.00    +0.094 C 
ENDBRANCH   1   5
BRANCH   2   6
ATOM      6  C   UNL     1     -10.965  16.273  67.650  0.00  0.00    +0.132 C 
BRANCH   6   7
ATOM      7  C   UNL     1      -9.986  17.548  67.515  0.00  0.00    -0.011 A 
ATOM      8  C   UNL     1      -9.925  18.336  68.665  0.00  0.00    -0.004 A 
ATOM      9  C   UNL     1      -9.273  19.546  68.510  0.00  0.00    -0.000 A 
ATOM     10  C   UNL     1      -9.218  20.123  67.247  0.00  0.00    -0.000 A 
ATOM     11  C   UNL     1      -9.929  19.535  66.207  0.00  0.00    -0.000 A 
ATOM     12  C   UNL     1     -10.448  18.288  66.426  0.00  0.00    -0.004 A 
ENDBRANCH   6   7
BRANCH   6  13
ATOM     13  C   UNL     1     -11.014  16.299  69.284  0.00  0.00    +0.195 C 
ATOM     14  O   UNL     1     -12.260  16.059  69.735  0.00  0.00    -0.220 OA
ENDBRANCH   6  13
ENDBRANCH   2   6
BRANCH   1  15
ATOM     15  C   UNL     1     -11.447  13.467  66.951  0.00  0.00    +0.120 C 
BRANCH  15  16
ATOM     16  C   UNL     1     -11.462  13.210  65.488  0.00  0.00    +0.001 A 
ATOM     17  C   UNL     1     -10.318  13.093  64.745  0.00  0.00    +0.018 A 
ATOM     18  C   UNL     1     -10.249  12.212  63.684  0.00  0.00    +0.099 A 
ATOM     19  N   UNL     1     -11.397  11.632  63.260  0.00  0.00    -0.242 NA
ATOM     20  C   UNL     1     -12.590  12.111  63.683  0.00  0.00    +0.099 A 
ATOM     21  C   UNL     1     -12.631  12.723  64.928  0.00  0.00    +0.018 A 
ENDBRANCH  15  16
ENDBRANCH   1  15
TORSDOF 6
ENDMDL
