MODEL 1
REMARK VINA RESULT:      -7.5      0.000      0.000
REMARK  Name = 
REMARK  6 active torsions:
REMARK  status: ('A' for Active; 'I' for Inactive)
REMARK    1  A    between atoms: O_2  and  C_3
REMARK    2  A    between atoms: C_5  and  C_6
REMARK    3  A    between atoms: C_6  and  C_7
REMARK    4  A    between atoms: C_7  and  C_9
REMARK    5  A    between atoms: C_20  and  O_21
REMARK    6  A    between atoms: C_37  and  O_38
REMARK                            x       y       z     vdW  Elec       q    Type
REMARK                         _______ _______ _______ _____ _____    ______ ____
ROOT
ATOM      1  C   UNL     1      -4.267  11.184  70.158  0.00  0.00    +0.176 C 
ATOM      2  O   UNL     1      -4.591   9.713  70.242  0.00  0.00    -0.451 OA
ATOM      3  C   UNL     1      -5.449   9.251  69.259  0.00  0.00    +0.335 C 
ATOM      4  O   UNL     1      -5.382   9.094  68.069  0.00  0.00    -0.248 OA
ATOM      5  C   UNL     1      -6.869   9.494  69.958  0.00  0.00    +0.175 C 
ATOM      6  N   UNL     1      -7.541   8.129  69.544  0.00  0.00    -0.265 N 
ATOM      7  C   UNL     1      -6.877   6.998  69.143  0.00  0.00    +0.094 C 
ATOM      8  C   UNL     1      -5.666   6.675  69.944  0.00  0.00    +0.022 C 
ATOM      9  C   UNL     1      -5.562   7.566  71.058  0.00  0.00    +0.004 C 
ATOM     10  C   UNL     1      -8.669   8.021  70.446  0.00  0.00    +0.289 C 
ATOM     11  O   UNL     1      -9.031   6.987  71.049  0.00  0.00    -0.267 OA
ATOM     12  C   UNL     1      -9.316   9.353  70.501  0.00  0.00    +0.279 C 
ATOM     13  O   UNL     1      -9.840   9.587  71.645  0.00  0.00    -0.281 OA
ATOM     14  C   UNL     1      -9.507   9.891  69.217  0.00  0.00    +0.279 C 
ATOM     15  O   UNL     1      -9.007  10.880  68.531  0.00  0.00    -0.329 OA
ATOM     16  C   UNL     1      -9.342  10.596  67.069  0.00  0.00    +0.121 C 
ATOM     17  C   UNL     1     -10.913  11.059  67.192  0.00  0.00    +0.030 C 
ATOM     18  C   UNL     1     -11.618  10.321  68.143  0.00  0.00    +0.008 C 
ATOM     19  C   UNL     1      -8.817  12.060  66.564  0.00  0.00    +0.063 C 
ATOM     20  C   UNL     1     -10.184  12.911  66.228  0.00  0.00    +0.136 C 
ATOM     21  C   UNL     1      -9.480  14.377  66.310  0.00  0.00    -0.017 C 
ATOM     22  C   UNL     1      -8.262  14.437  67.191  0.00  0.00    +0.029 C 
ATOM     23  C   UNL     1      -9.699  15.167  65.300  0.00  0.00    -0.006 C 
ATOM     24  C   UNL     1     -10.812  16.014  65.019  0.00  0.00    -0.001 C 
ATOM     25  C   UNL     1     -11.279  16.648  66.081  0.00  0.00    -0.000 C 
ATOM     26  C   UNL     1     -10.705  17.917  66.557  0.00  0.00    -0.005 C 
ATOM     27  C   UNL     1      -9.421  17.877  66.672  0.00  0.00    -0.026 C 
ATOM     28  C   UNL     1      -8.610  19.245  66.822  0.00  0.00    +0.022 C 
ATOM     29  C   UNL     1      -9.491  19.708  68.121  0.00  0.00    +0.005 C 
ATOM     30  C   UNL     1      -7.461  18.565  67.765  0.00  0.00    +0.012 C 
ATOM     31  C   UNL     1      -6.088  19.091  67.045  0.00  0.00    +0.061 C 
ATOM     32  C   UNL     1      -6.570  20.656  67.052  0.00  0.00    +0.008 C 
ATOM     33  C   UNL     1      -5.289  19.200  68.420  0.00  0.00    +0.180 C 
ATOM     34  O   UNL     1      -5.526  19.964  69.244  0.00  0.00    -0.293 OA
ATOM     35  C   UNL     1      -3.957  18.307  68.460  0.00  0.00    +0.206 C 
ATOM     36  C   UNL     1      -4.424  17.739  70.024  0.00  0.00    +0.204 C 
ATOM     37  O   UNL     1      -3.224  18.393  70.666  0.00  0.00    -0.216 OA
ATOM     38  C   UNL     1      -3.731  16.282  69.881  0.00  0.00    -0.015 C 
ATOM     39  C   UNL     1      -2.258  16.323  69.529  0.00  0.00    +0.029 C 
ATOM     40  C   UNL     1      -4.235  15.566  70.814  0.00  0.00    -0.025 C 
ATOM     41  C   UNL     1      -5.469  14.543  70.716  0.00  0.00    +0.079 C 
ATOM     42  C   UNL     1      -5.307  14.143  69.133  0.00  0.00    +0.012 C 
ATOM     43  C   UNL     1      -4.613  13.255  71.174  0.00  0.00    +0.158 C 
ATOM     44  O   UNL     1      -3.428  13.404  70.901  0.00  0.00    -0.296 OA
ATOM     45  O   UNL     1      -9.830   8.865  68.296  0.00  0.00    -0.187 OA
ATOM     46  C   UNL     1     -10.936  10.605  69.588  0.00  0.00    +0.062 C 
ATOM     47  C   UNL     1     -11.717   9.274  70.131  0.00  0.00    +0.006 C 
ATOM     48  C   UNL     1      -6.397   8.722  71.351  0.00  0.00    +0.031 C 
ATOM     49  C   UNL     1      -5.311  11.909  71.190  0.00  0.00    +0.108 C 
ENDROOT
BRANCH   1  50
ATOM     50  C   UNL     1      -3.046  11.206  71.393  0.00  0.00    +0.041 C 
ATOM     51  C   UNL     1      -1.938  10.442  70.489  0.00  0.00    +0.004 C 
BRANCH  50  52
ATOM     52  C   UNL     1      -3.367   9.868  72.178  0.00  0.00    +0.004 C 
BRANCH  52  58
ATOM     53  C   UNL     1      -3.100  11.499  75.350  0.00  0.00    +0.146 C 
ATOM     54  C   UNL     1      -4.802  11.546  75.063  0.00  0.00    +0.179 C 
ATOM     55  O   UNL     1      -5.094  11.248  76.528  0.00  0.00    -0.221 OA
ATOM     56  C   UNL     1      -4.894   9.993  74.540  0.00  0.00    +0.035 C 
ATOM     57  C   UNL     1      -3.683   9.323  74.544  0.00  0.00    +0.003 C 
ATOM     58  C   UNL     1      -2.506   9.829  73.547  0.00  0.00    +0.003 C 
ATOM     59  C   UNL     1      -2.824  11.432  73.742  0.00  0.00    +0.032 C 
BRANCH  53  61
ATOM     60  C   UNL     1      -2.063  13.254  76.229  0.00  0.00    +0.174 C 
ATOM     61  O   UNL     1      -3.033  13.007  75.428  0.00  0.00    -0.351 OA
ENDBRANCH  53  61
ENDBRANCH  52  58
ENDBRANCH  50  52
ENDBRANCH   1  50
BRANCH  20  62
ATOM     62  O   UNL     1     -10.051  12.788  64.719  0.00  0.00    -0.349 OA
ATOM     63  C   UNL     1     -11.234  12.345  64.168  0.00  0.00    +0.174 C 
ENDBRANCH  20  62
BRANCH  35  64
ATOM     64  O   UNL     1      -4.605  17.132  67.783  0.00  0.00    -0.343 OA
ATOM     65  C   UNL     1      -4.053  16.931  66.563  0.00  0.00    +0.175 C 
ENDBRANCH  35  64
TORSDOF 6
ENDMDL
MODEL 2
REMARK VINA RESULT:      -6.7      2.501      9.124
REMARK  Name = 
REMARK  6 active torsions:
REMARK  status: ('A' for Active; 'I' for Inactive)
REMARK    1  A    between atoms: O_2  and  C_3
REMARK    2  A    between atoms: C_5  and  C_6
REMARK    3  A    between atoms: C_6  and  C_7
REMARK    4  A    between atoms: C_7  and  C_9
REMARK    5  A    between atoms: C_20  and  O_21
REMARK    6  A    between atoms: C_37  and  O_38
REMARK                            x       y       z     vdW  Elec       q    Type
REMARK                         _______ _______ _______ _____ _____    ______ ____
ROOT
ATOM      1  C   UNL     1      -6.359  15.323  69.453  0.00  0.00    +0.176 C 
ATOM      2  O   UNL     1      -7.208  16.479  68.985  0.00  0.00    -0.451 OA
ATOM      3  C   UNL     1      -8.574  16.266  69.068  0.00  0.00    +0.335 C 
ATOM      4  O   UNL     1      -9.368  16.139  69.962  0.00  0.00    -0.248 OA
ATOM      5  C   UNL     1      -8.866  15.610  67.636  0.00  0.00    +0.175 C 
ATOM      6  N   UNL     1     -10.190  16.401  67.312  0.00  0.00    -0.265 N 
ATOM      7  C   UNL     1     -10.591  17.571  67.904  0.00  0.00    +0.094 C 
ATOM      8  C   UNL     1      -9.507  18.573  68.089  0.00  0.00    +0.022 C 
ATOM      9  C   UNL     1      -8.306  18.118  67.460  0.00  0.00    +0.004 C 
ATOM     10  C   UNL     1     -10.347  16.226  65.882  0.00  0.00    +0.289 C 
ATOM     11  O   UNL     1     -10.678  17.114  65.066  0.00  0.00    -0.267 OA
ATOM     12  C   UNL     1     -10.060  14.804  65.580  0.00  0.00    +0.279 C 
ATOM     13  O   UNL     1      -9.533  14.654  64.424  0.00  0.00    -0.281 OA
ATOM     14  C   UNL     1     -10.734  13.940  66.460  0.00  0.00    +0.279 C 
ATOM     15  O   UNL     1     -10.395  13.131  67.424  0.00  0.00    -0.329 OA
ATOM     16  C   UNL     1     -11.665  12.874  68.231  0.00  0.00    +0.121 C 
ATOM     17  C   UNL     1     -12.308  11.821  67.147  0.00  0.00    +0.030 C 
ATOM     18  C   UNL     1     -12.482  12.388  65.884  0.00  0.00    +0.008 C 
ATOM     19  C   UNL     1     -10.966  11.709  69.140  0.00  0.00    +0.063 C 
ATOM     20  C   UNL     1     -11.593  10.295  68.579  0.00  0.00    +0.136 C 
ATOM     21  C   UNL     1     -10.411   9.350  69.180  0.00  0.00    -0.017 C 
ATOM     22  C   UNL     1      -9.088  10.042  69.362  0.00  0.00    +0.029 C 
ATOM     23  C   UNL     1     -10.806   8.322  69.873  0.00  0.00    -0.006 C 
ATOM     24  C   UNL     1     -11.248   7.036  69.442  0.00  0.00    -0.001 C 
ATOM     25  C   UNL     1     -10.546   6.544  68.435  0.00  0.00    -0.000 C 
ATOM     26  C   UNL     1      -9.287   5.809  68.635  0.00  0.00    -0.005 C 
ATOM     27  C   UNL     1      -8.461   6.430  69.407  0.00  0.00    -0.026 C 
ATOM     28  C   UNL     1      -7.218   5.632  70.019  0.00  0.00    +0.022 C 
ATOM     29  C   UNL     1      -6.698   5.167  68.538  0.00  0.00    +0.005 C 
ATOM     30  C   UNL     1      -6.253   6.952  70.012  0.00  0.00    +0.012 C 
ATOM     31  C   UNL     1      -5.632   6.915  71.526  0.00  0.00    +0.061 C 
ATOM     32  C   UNL     1      -5.165   5.351  71.400  0.00  0.00    +0.008 C 
ATOM     33  C   UNL     1      -4.223   7.504  71.072  0.00  0.00    +0.180 C 
ATOM     34  O   UNL     1      -3.473   6.941  70.410  0.00  0.00    -0.293 OA
ATOM     35  C   UNL     1      -3.826   8.866  71.821  0.00  0.00    +0.206 C 
ATOM     36  C   UNL     1      -3.384   9.539  70.292  0.00  0.00    +0.204 C 
ATOM     37  O   UNL     1      -1.938   9.651  70.712  0.00  0.00    -0.216 OA
ATOM     38  C   UNL     1      -3.759  11.068  70.673  0.00  0.00    -0.015 C 
ATOM     39  C   UNL     1      -3.078  11.586  71.923  0.00  0.00    +0.029 C 
ATOM     40  C   UNL     1      -3.812  11.699  69.561  0.00  0.00    -0.025 C 
ATOM     41  C   UNL     1      -5.110  12.026  68.673  0.00  0.00    +0.079 C 
ATOM     42  C   UNL     1      -6.214  12.055  69.886  0.00  0.00    +0.012 C 
ATOM     43  C   UNL     1      -4.922  13.627  68.747  0.00  0.00    +0.158 C 
ATOM     44  O   UNL     1      -4.312  13.945  69.760  0.00  0.00    -0.296 OA
ATOM     45  O   UNL     1     -12.010  14.464  66.784  0.00  0.00    -0.187 OA
ATOM     46  C   UNL     1     -11.014  12.792  65.322  0.00  0.00    +0.062 C 
ATOM     47  C   UNL     1     -11.778  13.740  64.231  0.00  0.00    +0.006 C 
ATOM     48  C   UNL     1      -8.065  16.826  66.835  0.00  0.00    +0.031 C 
ATOM     49  C   UNL     1      -5.981  14.495  68.093  0.00  0.00    +0.108 C 
ENDROOT
BRANCH   1  50
ATOM     50  C   UNL     1      -4.826  16.136  69.372  0.00  0.00    +0.041 C 
ATOM     51  C   UNL     1      -4.705  16.337  70.977  0.00  0.00    +0.004 C 
BRANCH  50  52
ATOM     52  C   UNL     1      -5.278  17.644  69.192  0.00  0.00    +0.004 C 
BRANCH  52  58
ATOM     53  C   UNL     1      -4.373  20.098  66.752  0.00  0.00    +0.146 C 
ATOM     54  C   UNL     1      -6.008  20.526  67.103  0.00  0.00    +0.179 C 
ATOM     55  O   UNL     1      -5.670  22.011  67.048  0.00  0.00    -0.221 OA
ATOM     56  C   UNL     1      -5.845  20.363  68.728  0.00  0.00    +0.035 C 
ATOM     57  C   UNL     1      -4.575  19.989  69.134  0.00  0.00    +0.003 C 
ATOM     58  C   UNL     1      -4.015  18.528  68.702  0.00  0.00    +0.003 C 
ATOM     59  C   UNL     1      -4.674  18.555  67.194  0.00  0.00    +0.032 C 
BRANCH  53  61
ATOM     60  C   UNL     1      -3.652  19.341  64.794  0.00  0.00    +0.174 C 
ATOM     61  O   UNL     1      -4.703  19.880  65.294  0.00  0.00    -0.351 OA
ENDBRANCH  53  61
ENDBRANCH  52  58
ENDBRANCH  50  52
ENDBRANCH   1  50
BRANCH  20  62
ATOM     62  O   UNL     1     -12.534  10.090  69.755  0.00  0.00    -0.349 OA
ATOM     63  C   UNL     1     -12.359  11.089  70.688  0.00  0.00    +0.174 C 
ENDBRANCH  20  62
BRANCH  35  64
ATOM     64  O   UNL     1      -5.213   9.437  71.729  0.00  0.00    -0.343 OA
ATOM     65  C   UNL     1      -5.783   9.483  72.956  0.00  0.00    +0.175 C 
ENDBRANCH  35  64
TORSDOF 6
ENDMDL
MODEL 3
REMARK VINA RESULT:      -6.6      5.731      9.729
REMARK  Name = 
REMARK  6 active torsions:
REMARK  status: ('A' for Active; 'I' for Inactive)
REMARK    1  A    between atoms: O_2  and  C_3
REMARK    2  A    between atoms: C_5  and  C_6
REMARK    3  A    between atoms: C_6  and  C_7
REMARK    4  A    between atoms: C_7  and  C_9
REMARK    5  A    between atoms: C_20  and  O_21
REMARK    6  A    between atoms: C_37  and  O_38
REMARK                            x       y       z     vdW  Elec       q    Type
REMARK                         _______ _______ _______ _____ _____    ______ ____
ROOT
ATOM      1  C   UNL     1      -8.231   3.877  69.548  0.00  0.00    +0.176 C 
ATOM      2  O   UNL     1      -7.638   2.522  69.248  0.00  0.00    -0.451 OA
ATOM      3  C   UNL     1      -6.750   2.501  68.185  0.00  0.00    +0.335 C 
ATOM      4  O   UNL     1      -5.653   2.947  67.977  0.00  0.00    -0.248 OA
ATOM      5  C   UNL     1      -7.746   2.217  66.964  0.00  0.00    +0.175 C 
ATOM      6  N   UNL     1      -6.854   1.157  66.211  0.00  0.00    -0.265 N 
ATOM      7  C   UNL     1      -5.822   0.442  66.762  0.00  0.00    +0.094 C 
ATOM      8  C   UNL     1      -6.096  -0.091  68.123  0.00  0.00    +0.022 C 
ATOM      9  C   UNL     1      -7.458   0.156  68.482  0.00  0.00    +0.004 C 
ATOM     10  C   UNL     1      -7.789   0.502  65.319  0.00  0.00    +0.289 C 
ATOM     11  O   UNL     1      -7.858  -0.727  65.102  0.00  0.00    -0.267 OA
ATOM     12  C   UNL     1      -8.626   1.560  64.706  0.00  0.00    +0.279 C 
ATOM     13  O   UNL     1      -9.813   1.153  64.459  0.00  0.00    -0.281 OA
ATOM     14  C   UNL     1      -7.845   2.627  64.228  0.00  0.00    +0.279 C 
ATOM     15  O   UNL     1      -7.656   3.873  64.560  0.00  0.00    -0.329 OA
ATOM     16  C   UNL     1      -6.346   4.295  63.898  0.00  0.00    +0.121 C 
ATOM     17  C   UNL     1      -6.995   4.464  62.399  0.00  0.00    +0.030 C 
ATOM     18  C   UNL     1      -7.574   3.285  61.928  0.00  0.00    +0.008 C 
ATOM     19  C   UNL     1      -6.540   5.869  64.298  0.00  0.00    +0.063 C 
ATOM     20  C   UNL     1      -6.952   6.619  62.893  0.00  0.00    +0.136 C 
ATOM     21  C   UNL     1      -7.607   7.930  63.602  0.00  0.00    -0.017 C 
ATOM     22  C   UNL     1      -8.137   7.692  64.990  0.00  0.00    +0.029 C 
ATOM     23  C   UNL     1      -7.189   9.080  63.160  0.00  0.00    -0.006 C 
ATOM     24  C   UNL     1      -7.594   9.829  62.015  0.00  0.00    -0.001 C 
ATOM     25  C   UNL     1      -8.900   9.814  61.806  0.00  0.00    -0.000 C 
ATOM     26  C   UNL     1      -9.816  10.750  62.477  0.00  0.00    -0.005 C 
ATOM     27  C   UNL     1      -9.635  10.802  63.753  0.00  0.00    -0.026 C 
ATOM     28  C   UNL     1     -10.278  12.008  64.582  0.00  0.00    +0.022 C 
ATOM     29  C   UNL     1     -11.782  11.685  64.023  0.00  0.00    +0.005 C 
ATOM     30  C   UNL     1     -10.507  11.089  65.914  0.00  0.00    +0.012 C 
ATOM     31  C   UNL     1      -9.885  12.046  67.087  0.00  0.00    +0.061 C 
ATOM     32  C   UNL     1     -10.763  13.348  66.625  0.00  0.00    +0.008 C 
ATOM     33  C   UNL     1     -10.941  11.564  68.180  0.00  0.00    +0.180 C 
ATOM     34  O   UNL     1     -12.062  11.804  68.141  0.00  0.00    -0.293 OA
ATOM     35  C   UNL     1     -10.265  10.918  69.484  0.00  0.00    +0.206 C 
ATOM     36  C   UNL     1     -11.398   9.617  69.385  0.00  0.00    +0.204 C 
ATOM     37  O   UNL     1     -12.024  10.008  70.702  0.00  0.00    -0.216 OA
ATOM     38  C   UNL     1     -10.417   8.497  70.022  0.00  0.00    -0.015 C 
ATOM     39  C   UNL     1      -9.843   8.866  71.375  0.00  0.00    +0.029 C 
ATOM     40  C   UNL     1     -10.950   7.369  69.743  0.00  0.00    -0.025 C 
ATOM     41  C   UNL     1     -10.608   6.392  68.516  0.00  0.00    +0.079 C 
ATOM     42  C   UNL     1      -9.040   6.826  68.310  0.00  0.00    +0.012 C 
ATOM     43  C   UNL     1     -10.185   5.146  69.451  0.00  0.00    +0.158 C 
ATOM     44  O   UNL     1      -9.791   5.539  70.542  0.00  0.00    -0.296 OA
ATOM     45  O   UNL     1      -6.623   2.145  63.699  0.00  0.00    -0.187 OA
ATOM     46  C   UNL     1      -8.799   2.909  62.924  0.00  0.00    +0.062 C 
ATOM     47  C   UNL     1      -8.755   1.404  62.284  0.00  0.00    +0.006 C 
ATOM     48  C   UNL     1      -8.446   0.926  67.741  0.00  0.00    +0.031 C 
ATOM     49  C   UNL     1      -9.671   3.892  68.770  0.00  0.00    +0.108 C 
ENDROOT
BRANCH   1  50
ATOM     50  C   UNL     1      -9.041   3.434  71.019  0.00  0.00    +0.041 C 
ATOM     51  C   UNL     1      -7.868   4.003  71.985  0.00  0.00    +0.004 C 
BRANCH  50  52
ATOM     52  C   UNL     1      -8.530   1.949  71.228  0.00  0.00    +0.004 C 
BRANCH  52  58
ATOM     53  C   UNL     1     -11.173   0.110  72.784  0.00  0.00    +0.146 C 
ATOM     54  C   UNL     1     -11.038  -0.679  71.255  0.00  0.00    +0.179 C 
ATOM     55  O   UNL     1     -11.255  -2.043  71.898  0.00  0.00    -0.221 OA
ATOM     56  C   UNL     1      -9.397  -0.729  71.273  0.00  0.00    +0.035 C 
ATOM     57  C   UNL     1      -8.828  -0.176  72.407  0.00  0.00    +0.003 C 
ATOM     58  C   UNL     1      -9.010   1.414  72.677  0.00  0.00    +0.003 C 
ATOM     59  C   UNL     1     -10.563   1.481  72.139  0.00  0.00    +0.032 C 
BRANCH  53  61
ATOM     60  C   UNL     1     -13.051   0.948  73.620  0.00  0.00    +0.174 C 
ATOM     61  O   UNL     1     -12.615   0.472  72.512  0.00  0.00    -0.351 OA
ENDBRANCH  53  61
ENDBRANCH  52  58
ENDBRANCH  50  52
ENDBRANCH   1  50
BRANCH  20  62
ATOM     62  O   UNL     1      -5.590   7.256  62.677  0.00  0.00    -0.349 OA
ATOM     63  C   UNL     1      -5.143   7.009  61.396  0.00  0.00    +0.174 C 
ENDBRANCH  20  62
BRANCH  35  64
ATOM     64  O   UNL     1      -9.240  10.152  68.693  0.00  0.00    -0.343 OA
ATOM     65  C   UNL     1      -7.996  10.606  68.975  0.00  0.00    +0.175 C 
ENDBRANCH  35  64
TORSDOF 6
ENDMDL
MODEL 4
REMARK VINA RESULT:      -6.4      2.388      7.677
REMARK  Name = 
REMARK  6 active torsions:
REMARK  status: ('A' for Active; 'I' for Inactive)
REMARK    1  A    between atoms: O_2  and  C_3
REMARK    2  A    between atoms: C_5  and  C_6
REMARK    3  A    between atoms: C_6  and  C_7
REMARK    4  A    between atoms: C_7  and  C_9
REMARK    5  A    between atoms: C_20  and  O_21
REMARK    6  A    between atoms: C_37  and  O_38
REMARK                            x       y       z     vdW  Elec       q    Type
REMARK                         _______ _______ _______ _____ _____    ______ ____
ROOT
ATOM      1  C   UNL     1      -9.615   9.455  69.406  0.00  0.00    +0.176 C 
ATOM      2  O   UNL     1      -9.017   8.262  70.111  0.00  0.00    -0.451 OA
ATOM      3  C   UNL     1      -8.076   8.573  71.078  0.00  0.00    +0.335 C 
ATOM      4  O   UNL     1      -8.099   9.106  72.156  0.00  0.00    -0.248 OA
ATOM      5  C   UNL     1      -6.736   8.592  70.202  0.00  0.00    +0.175 C 
ATOM      6  N   UNL     1      -5.811   7.820  71.219  0.00  0.00    -0.265 N 
ATOM      7  C   UNL     1      -6.242   7.026  72.251  0.00  0.00    +0.094 C 
ATOM      8  C   UNL     1      -7.378   6.128  71.908  0.00  0.00    +0.022 C 
ATOM      9  C   UNL     1      -7.661   6.208  70.508  0.00  0.00    +0.004 C 
ATOM     10  C   UNL     1      -4.692   7.396  70.402  0.00  0.00    +0.289 C 
ATOM     11  O   UNL     1      -4.146   6.271  70.433  0.00  0.00    -0.267 OA
ATOM     12  C   UNL     1      -4.313   8.544  69.547  0.00  0.00    +0.279 C 
ATOM     13  O   UNL     1      -3.855   8.170  68.413  0.00  0.00    -0.281 OA
ATOM     14  C   UNL     1      -4.215   9.734  70.290  0.00  0.00    +0.279 C 
ATOM     15  O   UNL     1      -4.888  10.847  70.368  0.00  0.00    -0.329 OA
ATOM     16  C   UNL     1      -4.490  11.491  71.694  0.00  0.00    +0.121 C 
ATOM     17  C   UNL     1      -3.038  12.038  71.154  0.00  0.00    +0.030 C 
ATOM     18  C   UNL     1      -2.214  11.010  70.694  0.00  0.00    +0.008 C 
ATOM     19  C   UNL     1      -5.280  12.884  71.364  0.00  0.00    +0.063 C 
ATOM     20  C   UNL     1      -4.097  13.974  71.014  0.00  0.00    +0.136 C 
ATOM     21  C   UNL     1      -5.070  15.010  70.219  0.00  0.00    -0.017 C 
ATOM     22  C   UNL     1      -6.286  14.377  69.600  0.00  0.00    +0.029 C 
ATOM     23  C   UNL     1      -4.995  16.254  70.592  0.00  0.00    -0.006 C 
ATOM     24  C   UNL     1      -4.062  17.270  70.228  0.00  0.00    -0.001 C 
ATOM     25  C   UNL     1      -3.737  17.257  68.947  0.00  0.00    -0.000 C 
ATOM     26  C   UNL     1      -4.547  17.932  67.920  0.00  0.00    -0.005 C 
ATOM     27  C   UNL     1      -5.800  17.639  67.997  0.00  0.00    -0.026 C 
ATOM     28  C   UNL     1      -6.860  18.542  67.212  0.00  0.00    +0.022 C 
ATOM     29  C   UNL     1      -6.097  18.320  65.782  0.00  0.00    +0.005 C 
ATOM     30  C   UNL     1      -7.867  17.283  66.942  0.00  0.00    +0.012 C 
ATOM     31  C   UNL     1      -9.308  17.907  67.405  0.00  0.00    +0.061 C 
ATOM     32  C   UNL     1      -9.135  19.247  66.481  0.00  0.00    +0.008 C 
ATOM     33  C   UNL     1     -10.127  17.098  66.302  0.00  0.00    +0.180 C 
ATOM     34  O   UNL     1     -10.049  17.291  65.173  0.00  0.00    -0.293 OA
ATOM     35  C   UNL     1     -11.264  16.148  66.916  0.00  0.00    +0.206 C 
ATOM     36  C   UNL     1     -10.713  14.877  65.883  0.00  0.00    +0.204 C 
ATOM     37  O   UNL     1     -12.022  14.863  65.132  0.00  0.00    -0.216 OA
ATOM     38  C   UNL     1     -11.113  13.669  66.885  0.00  0.00    -0.015 C 
ATOM     39  C   UNL     1     -12.563  13.676  67.325  0.00  0.00    +0.029 C 
ATOM     40  C   UNL     1     -10.491  12.639  66.452  0.00  0.00    -0.025 C 
ATOM     41  C   UNL     1      -9.083  12.052  66.953  0.00  0.00    +0.079 C 
ATOM     42  C   UNL     1      -9.149  12.594  68.500  0.00  0.00    +0.012 C 
ATOM     43  C   UNL     1      -9.682  10.617  67.385  0.00  0.00    +0.158 C 
ATOM     44  O   UNL     1     -10.871  10.711  67.666  0.00  0.00    -0.296 OA
ATOM     45  O   UNL     1      -3.692   9.469  71.578  0.00  0.00    -0.187 OA
ATOM     46  C   UNL     1      -2.952  10.322  69.423  0.00  0.00    +0.062 C 
ATOM     47  C   UNL     1      -1.938   9.054  69.618  0.00  0.00    +0.006 C 
ATOM     48  C   UNL     1      -7.066   7.108  69.531  0.00  0.00    +0.031 C 
ATOM     49  C   UNL     1      -8.739   9.621  68.033  0.00  0.00    +0.108 C 
ENDROOT
BRANCH   1  50
ATOM     50  C   UNL     1     -10.830   8.591  68.515  0.00  0.00    +0.041 C 
ATOM     51  C   UNL     1     -11.576   8.022  69.839  0.00  0.00    +0.004 C 
BRANCH  50  52
ATOM     52  C   UNL     1     -10.119   7.194  68.285  0.00  0.00    +0.004 C 
BRANCH  52  58
ATOM     53  C   UNL     1      -8.966   5.170  65.570  0.00  0.00    +0.146 C 
ATOM     54  C   UNL     1      -8.139   4.473  66.915  0.00  0.00    +0.179 C 
ATOM     55  O   UNL     1      -8.354   3.068  66.367  0.00  0.00    -0.221 OA
ATOM     56  C   UNL     1      -9.450   4.486  67.902  0.00  0.00    +0.035 C 
ATOM     57  C   UNL     1     -10.595   4.997  67.314  0.00  0.00    +0.003 C 
ATOM     58  C   UNL     1     -10.620   6.561  66.883  0.00  0.00    +0.003 C 
ATOM     59  C   UNL     1      -9.060   6.597  66.359  0.00  0.00    +0.032 C 
BRANCH  53  61
ATOM     60  C   UNL     1      -7.964   6.333  63.966  0.00  0.00    +0.174 C 
ATOM     61  O   UNL     1      -7.658   5.491  64.883  0.00  0.00    -0.351 OA
ENDBRANCH  53  61
ENDBRANCH  52  58
ENDBRANCH  50  52
ENDBRANCH   1  50
BRANCH  20  62
ATOM     62  O   UNL     1      -4.189  14.703  72.343  0.00  0.00    -0.349 OA
ATOM     63  C   UNL     1      -5.161  14.133  73.137  0.00  0.00    +0.174 C 
ENDBRANCH  20  62
BRANCH  35  64
ATOM     64  O   UNL     1     -10.396  15.674  68.048  0.00  0.00    -0.343 OA
ATOM     65  C   UNL     1     -10.902  16.092  69.233  0.00  0.00    +0.175 C 
ENDBRANCH  35  64
TORSDOF 6
ENDMDL
MODEL 5
REMARK VINA RESULT:      -6.2      5.698     13.185
REMARK  Name = 
REMARK  6 active torsions:
REMARK  status: ('A' for Active; 'I' for Inactive)
REMARK    1  A    between atoms: O_2  and  C_3
REMARK    2  A    between atoms: C_5  and  C_6
REMARK    3  A    between atoms: C_6  and  C_7
REMARK    4  A    between atoms: C_7  and  C_9
REMARK    5  A    between atoms: C_20  and  O_21
REMARK    6  A    between atoms: C_37  and  O_38
REMARK                            x       y       z     vdW  Elec       q    Type
REMARK                         _______ _______ _______ _____ _____    ______ ____
ROOT
ATOM      1  C   UNL     1      -7.103   5.710  65.253  0.00  0.00    +0.176 C 
ATOM      2  O   UNL     1      -6.864   7.180  65.010  0.00  0.00    -0.451 OA
ATOM      3  C   UNL     1      -6.621   7.924  66.152  0.00  0.00    +0.335 C 
ATOM      4  O   UNL     1      -5.732   7.987  66.959  0.00  0.00    -0.248 OA
ATOM      5  C   UNL     1      -8.110   8.344  66.562  0.00  0.00    +0.175 C 
ATOM      6  N   UNL     1      -7.808   9.846  66.932  0.00  0.00    -0.265 N 
ATOM      7  C   UNL     1      -6.711  10.565  66.533  0.00  0.00    +0.094 C 
ATOM      8  C   UNL     1      -6.327  10.369  65.109  0.00  0.00    +0.022 C 
ATOM      9  C   UNL     1      -7.307   9.567  64.443  0.00  0.00    +0.004 C 
ATOM     10  C   UNL     1      -9.118  10.466  66.923  0.00  0.00    +0.289 C 
ATOM     11  O   UNL     1      -9.399  11.579  66.427  0.00  0.00    -0.267 OA
ATOM     12  C   UNL     1     -10.044   9.545  67.621  0.00  0.00    +0.279 C 
ATOM     13  O   UNL     1     -11.232   9.606  67.148  0.00  0.00    -0.281 OA
ATOM     14  C   UNL     1      -9.504   9.088  68.836  0.00  0.00    +0.279 C 
ATOM     15  O   UNL     1      -9.061   7.953  69.297  0.00  0.00    -0.329 OA
ATOM     16  C   UNL     1      -8.214   8.293  70.520  0.00  0.00    +0.121 C 
ATOM     17  C   UNL     1      -9.497   8.554  71.510  0.00  0.00    +0.030 C 
ATOM     18  C   UNL     1     -10.340   9.563  71.043  0.00  0.00    +0.008 C 
ATOM     19  C   UNL     1      -8.037   6.726  70.953  0.00  0.00    +0.063 C 
ATOM     20  C   UNL     1      -9.016   6.531  72.261  0.00  0.00    +0.136 C 
ATOM     21  C   UNL     1      -9.111   4.910  72.146  0.00  0.00    -0.017 C 
ATOM     22  C   UNL     1      -8.908   4.368  70.756  0.00  0.00    +0.029 C 
ATOM     23  C   UNL     1      -8.859   4.249  73.238  0.00  0.00    -0.006 C 
ATOM     24  C   UNL     1      -9.704   3.951  74.349  0.00  0.00    -0.001 C 
ATOM     25  C   UNL     1     -10.938   3.624  74.004  0.00  0.00    -0.000 C 
ATOM     26  C   UNL     1     -11.313   2.253  73.625  0.00  0.00    -0.005 C 
ATOM     27  C   UNL     1     -10.524   1.742  72.741  0.00  0.00    -0.026 C 
ATOM     28  C   UNL     1     -10.559   0.165  72.484  0.00  0.00    +0.022 C 
ATOM     29  C   UNL     1     -12.166   0.180  72.174  0.00  0.00    +0.005 C 
ATOM     30  C   UNL     1     -10.187   0.325  70.900  0.00  0.00    +0.012 C 
ATOM     31  C   UNL     1      -8.982  -0.770  70.731  0.00  0.00    +0.061 C 
ATOM     32  C   UNL     1      -9.848  -1.974  71.425  0.00  0.00    +0.008 C 
ATOM     33  C   UNL     1      -9.403  -1.154  69.243  0.00  0.00    +0.180 C 
ATOM     34  O   UNL     1     -10.371  -1.707  68.970  0.00  0.00    -0.293 OA
ATOM     35  C   UNL     1      -8.237  -0.919  68.166  0.00  0.00    +0.206 C 
ATOM     36  C   UNL     1      -9.388  -0.141  67.138  0.00  0.00    +0.204 C 
ATOM     37  O   UNL     1      -9.245  -1.220  66.091  0.00  0.00    -0.216 OA
ATOM     38  C   UNL     1      -8.329   0.869  66.445  0.00  0.00    -0.015 C 
ATOM     39  C   UNL     1      -7.133   0.186  65.815  0.00  0.00    +0.029 C 
ATOM     40  C   UNL     1      -9.034   1.770  65.873  0.00  0.00    -0.025 C 
ATOM     41  C   UNL     1      -9.433   3.219  66.439  0.00  0.00    +0.079 C 
ATOM     42  C   UNL     1      -8.137   3.445  67.419  0.00  0.00    +0.012 C 
ATOM     43  C   UNL     1      -8.724   4.032  65.240  0.00  0.00    +0.158 C 
ATOM     44  O   UNL     1      -7.809   3.377  64.756  0.00  0.00    -0.296 OA
ATOM     45  O   UNL     1      -8.752  10.115  69.457  0.00  0.00    -0.187 OA
ATOM     46  C   UNL     1     -10.946   9.074  69.619  0.00  0.00    +0.062 C 
ATOM     47  C   UNL     1     -11.363  10.632  69.349  0.00  0.00    +0.006 C 
ATOM     48  C   UNL     1      -8.455   8.895  65.033  0.00  0.00    +0.031 C 
ATOM     49  C   UNL     1      -8.731   5.548  65.310  0.00  0.00    +0.108 C 
ENDROOT
BRANCH   1  50
ATOM     50  C   UNL     1      -7.122   5.217  63.588  0.00  0.00    +0.041 C 
ATOM     51  C   UNL     1      -5.574   4.731  63.583  0.00  0.00    +0.004 C 
BRANCH  50  52
ATOM     52  C   UNL     1      -6.728   6.565  62.855  0.00  0.00    +0.004 C 
BRANCH  52  58
ATOM     53  C   UNL     1      -8.801   6.653  59.942  0.00  0.00    +0.146 C 
ATOM     54  C   UNL     1      -9.438   7.958  60.875  0.00  0.00    +0.179 C 
ATOM     55  O   UNL     1      -9.617   8.812  59.627  0.00  0.00    -0.221 OA
ATOM     56  C   UNL     1      -7.967   8.554  61.294  0.00  0.00    +0.035 C 
ATOM     57  C   UNL     1      -6.900   7.843  60.773  0.00  0.00    +0.003 C 
ATOM     58  C   UNL     1      -6.670   6.311  61.258  0.00  0.00    +0.003 C 
ATOM     59  C   UNL     1      -8.269   5.927  61.305  0.00  0.00    +0.032 C 
BRANCH  53  61
ATOM     60  C   UNL     1      -9.944   4.867  59.283  0.00  0.00    +0.174 C 
ATOM     61  O   UNL     1     -10.140   5.952  59.938  0.00  0.00    -0.351 OA
ENDBRANCH  53  61
ENDBRANCH  52  58
ENDBRANCH  50  52
ENDBRANCH   1  50
BRANCH  20  62
ATOM     62  O   UNL     1      -7.883   6.522  73.274  0.00  0.00    -0.349 OA
ATOM     63  C   UNL     1      -8.125   7.442  74.272  0.00  0.00    +0.174 C 
ENDBRANCH  20  62
BRANCH  35  64
ATOM     64  O   UNL     1      -7.811   0.391  68.767  0.00  0.00    -0.343 OA
ATOM     65  C   UNL     1      -6.550   0.296  69.252  0.00  0.00    +0.175 C 
ENDBRANCH  35  64
TORSDOF 6
ENDMDL
MODEL 6
REMARK VINA RESULT:      -6.1      5.495     12.565
REMARK  Name = 
REMARK  6 active torsions:
REMARK  status: ('A' for Active; 'I' for Inactive)
REMARK    1  A    between atoms: O_2  and  C_3
REMARK    2  A    between atoms: C_5  and  C_6
REMARK    3  A    between atoms: C_6  and  C_7
REMARK    4  A    between atoms: C_7  and  C_9
REMARK    5  A    between atoms: C_20  and  O_21
REMARK    6  A    between atoms: C_37  and  O_38
REMARK                            x       y       z     vdW  Elec       q    Type
REMARK                         _______ _______ _______ _____ _____    ______ ____
ROOT
ATOM      1  C   UNL     1      -7.129   5.446  64.172  0.00  0.00    +0.176 C 
ATOM      2  O   UNL     1      -6.852   6.634  63.284  0.00  0.00    -0.451 OA
ATOM      3  C   UNL     1      -6.433   7.772  63.953  0.00  0.00    +0.335 C 
ATOM      4  O   UNL     1      -5.449   8.092  64.565  0.00  0.00    -0.248 OA
ATOM      5  C   UNL     1      -7.839   8.471  64.269  0.00  0.00    +0.175 C 
ATOM      6  N   UNL     1      -7.422   9.948  63.909  0.00  0.00    -0.265 N 
ATOM      7  C   UNL     1      -6.349  10.313  63.136  0.00  0.00    +0.094 C 
ATOM      8  C   UNL     1      -6.155   9.483  61.916  0.00  0.00    +0.022 C 
ATOM      9  C   UNL     1      -7.247   8.571  61.765  0.00  0.00    +0.004 C 
ATOM     10  C   UNL     1      -8.691  10.627  63.745  0.00  0.00    +0.289 C 
ATOM     11  O   UNL     1      -8.978  11.438  62.837  0.00  0.00    -0.267 OA
ATOM     12  C   UNL     1      -9.567  10.194  64.859  0.00  0.00    +0.279 C 
ATOM     13  O   UNL     1     -10.799  10.160  64.518  0.00  0.00    -0.281 OA
ATOM     14  C   UNL     1      -8.902  10.259  66.096  0.00  0.00    +0.279 C 
ATOM     15  O   UNL     1      -8.459   9.398  66.969  0.00  0.00    -0.329 OA
ATOM     16  C   UNL     1      -7.451  10.150  67.835  0.00  0.00    +0.121 C 
ATOM     17  C   UNL     1      -8.588  10.938  68.719  0.00  0.00    +0.030 C 
ATOM     18  C   UNL     1      -9.434  11.721  67.933  0.00  0.00    +0.008 C 
ATOM     19  C   UNL     1      -7.298   8.916  68.896  0.00  0.00    +0.063 C 
ATOM     20  C   UNL     1      -8.114   9.403  70.239  0.00  0.00    +0.136 C 
ATOM     21  C   UNL     1      -8.300   7.910  70.860  0.00  0.00    -0.017 C 
ATOM     22  C   UNL     1      -8.298   6.803  69.840  0.00  0.00    +0.029 C 
ATOM     23  C   UNL     1      -7.947   7.766  72.104  0.00  0.00    -0.006 C 
ATOM     24  C   UNL     1      -8.660   8.063  73.304  0.00  0.00    -0.001 C 
ATOM     25  C   UNL     1      -9.941   7.741  73.253  0.00  0.00    -0.000 C 
ATOM     26  C   UNL     1     -10.425   6.384  73.553  0.00  0.00    -0.005 C 
ATOM     27  C   UNL     1      -9.777   5.467  72.918  0.00  0.00    -0.026 C 
ATOM     28  C   UNL     1      -9.919   3.946  73.388  0.00  0.00    +0.022 C 
ATOM     29  C   UNL     1     -11.550   3.982  73.250  0.00  0.00    +0.005 C 
ATOM     30  C   UNL     1      -9.741   3.367  71.870  0.00  0.00    +0.012 C 
ATOM     31  C   UNL     1      -8.619   2.196  72.093  0.00  0.00    +0.061 C 
ATOM     32  C   UNL     1      -9.448   1.501  73.322  0.00  0.00    +0.008 C 
ATOM     33  C   UNL     1      -9.239   1.248  70.971  0.00  0.00    +0.180 C 
ATOM     34  O   UNL     1     -10.259   0.728  71.060  0.00  0.00    -0.293 OA
ATOM     35  C   UNL     1      -8.206   0.878  69.801  0.00  0.00    +0.206 C 
ATOM     36  C   UNL     1      -9.438   1.242  68.644  0.00  0.00    +0.204 C 
ATOM     37  O   UNL     1      -9.478  -0.192  68.173  0.00  0.00    -0.216 OA
ATOM     38  C   UNL     1      -8.427   1.744  67.483  0.00  0.00    -0.015 C 
ATOM     39  C   UNL     1      -7.351   0.742  67.115  0.00  0.00    +0.029 C 
ATOM     40  C   UNL     1      -9.153   2.372  66.639  0.00  0.00    -0.025 C 
ATOM     41  C   UNL     1      -9.409   3.955  66.541  0.00  0.00    +0.079 C 
ATOM     42  C   UNL     1      -7.992   4.455  67.199  0.00  0.00    +0.012 C 
ATOM     43  C   UNL     1      -8.816   4.095  65.048  0.00  0.00    +0.158 C 
ATOM     44  O   UNL     1      -8.001   3.209  64.821  0.00  0.00    -0.296 OA
ATOM     45  O   UNL     1      -8.031  11.374  66.130  0.00  0.00    -0.187 OA
ATOM     46  C   UNL     1     -10.234  10.725  66.932  0.00  0.00    +0.062 C 
ATOM     47  C   UNL     1     -10.607  12.045  66.042  0.00  0.00    +0.006 C 
ATOM     48  C   UNL     1      -8.344   8.336  62.692  0.00  0.00    +0.031 C 
ATOM     49  C   UNL     1      -8.743   5.483  64.441  0.00  0.00    +0.108 C 
ENDROOT
BRANCH   1  50
ATOM     50  C   UNL     1      -7.377   4.285  62.904  0.00  0.00    +0.041 C 
ATOM     51  C   UNL     1      -5.802   3.930  62.747  0.00  0.00    +0.004 C 
BRANCH  50  52
ATOM     52  C   UNL     1      -7.325   5.206  61.617  0.00  0.00    +0.004 C 
BRANCH  52  58
ATOM     53  C   UNL     1     -10.193   3.659  60.142  0.00  0.00    +0.146 C 
ATOM     54  C   UNL     1     -10.879   5.063  60.875  0.00  0.00    +0.179 C 
ATOM     55  O   UNL     1     -11.806   5.276  59.685  0.00  0.00    -0.221 OA
ATOM     56  C   UNL     1      -9.692   6.076  60.365  0.00  0.00    +0.035 C 
ATOM     57  C   UNL     1      -8.708   5.459  59.612  0.00  0.00    +0.003 C 
ATOM     58  C   UNL     1      -7.765   4.344  60.321  0.00  0.00    +0.003 C 
ATOM     59  C   UNL     1      -8.970   3.681  61.225  0.00  0.00    +0.032 C 
BRANCH  53  61
ATOM     60  C   UNL     1     -10.596   1.574  60.789  0.00  0.00    +0.174 C 
ATOM     61  O   UNL     1     -11.076   2.750  60.965  0.00  0.00    -0.351 OA
ENDBRANCH  53  61
ENDBRANCH  52  58
ENDBRANCH  50  52
ENDBRANCH   1  50
BRANCH  20  62
ATOM     62  O   UNL     1      -6.866   9.724  71.045  0.00  0.00    -0.349 OA
ATOM     63  C   UNL     1      -5.735   9.392  70.330  0.00  0.00    +0.174 C 
ENDBRANCH  20  62
BRANCH  35  64
ATOM     64  O   UNL     1      -7.647   2.271  69.720  0.00  0.00    -0.343 OA
ATOM     65  C   UNL     1      -6.344   2.274  70.088  0.00  0.00    +0.175 C 
ENDBRANCH  35  64
TORSDOF 6
ENDMDL
MODEL 7
REMARK VINA RESULT:      -6.1      4.207     11.372
REMARK  Name = 
REMARK  6 active torsions:
REMARK  status: ('A' for Active; 'I' for Inactive)
REMARK    1  A    between atoms: O_2  and  C_3
REMARK    2  A    between atoms: C_5  and  C_6
REMARK    3  A    between atoms: C_6  and  C_7
REMARK    4  A    between atoms: C_7  and  C_9
REMARK    5  A    between atoms: C_20  and  O_21
REMARK    6  A    between atoms: C_37  and  O_38
REMARK                            x       y       z     vdW  Elec       q    Type
REMARK                         _______ _______ _______ _____ _____    ______ ____
ROOT
ATOM      1  C   UNL     1      -9.750   9.273  68.634  0.00  0.00    +0.176 C 
ATOM      2  O   UNL     1      -9.778   9.880  67.252  0.00  0.00    -0.451 OA
ATOM      3  C   UNL     1      -9.572   8.980  66.220  0.00  0.00    +0.335 C 
ATOM      4  O   UNL     1     -10.187   8.060  65.750  0.00  0.00    -0.248 OA
ATOM      5  C   UNL     1      -7.976   9.027  66.092  0.00  0.00    +0.175 C 
ATOM      6  N   UNL     1      -7.895   9.058  64.518  0.00  0.00    -0.265 N 
ATOM      7  C   UNL     1      -8.912   9.412  63.670  0.00  0.00    +0.094 C 
ATOM      8  C   UNL     1      -9.689  10.606  64.100  0.00  0.00    +0.022 C 
ATOM      9  C   UNL     1      -9.082  11.197  65.253  0.00  0.00    +0.004 C 
ATOM     10  C   UNL     1      -6.546   9.519  64.259  0.00  0.00    +0.289 C 
ATOM     11  O   UNL     1      -6.212  10.364  63.400  0.00  0.00    -0.267 OA
ATOM     12  C   UNL     1      -5.648   8.790  65.184  0.00  0.00    +0.279 C 
ATOM     13  O   UNL     1      -4.638   9.495  65.530  0.00  0.00    -0.281 OA
ATOM     14  C   UNL     1      -5.918   7.410  65.190  0.00  0.00    +0.279 C 
ATOM     15  O   UNL     1      -6.419   6.557  66.038  0.00  0.00    -0.329 OA
ATOM     16  C   UNL     1      -6.835   5.338  65.219  0.00  0.00    +0.121 C 
ATOM     17  C   UNL     1      -5.309   4.755  65.051  0.00  0.00    +0.030 C 
ATOM     18  C   UNL     1      -4.454   5.661  64.421  0.00  0.00    +0.008 C 
ATOM     19  C   UNL     1      -7.167   4.440  66.545  0.00  0.00    +0.063 C 
ATOM     20  C   UNL     1      -5.928   3.364  66.654  0.00  0.00    +0.136 C 
ATOM     21  C   UNL     1      -6.159   3.019  68.228  0.00  0.00    -0.017 C 
ATOM     22  C   UNL     1      -6.817   4.116  69.020  0.00  0.00    +0.029 C 
ATOM     23  C   UNL     1      -6.225   1.754  68.527  0.00  0.00    -0.006 C 
ATOM     24  C   UNL     1      -5.183   0.805  68.747  0.00  0.00    -0.001 C 
ATOM     25  C   UNL     1      -4.164   1.286  69.439  0.00  0.00    -0.000 C 
ATOM     26  C   UNL     1      -4.156   1.319  70.910  0.00  0.00    -0.005 C 
ATOM     27  C   UNL     1      -5.229   1.831  71.408  0.00  0.00    -0.026 C 
ATOM     28  C   UNL     1      -5.547   1.618  72.960  0.00  0.00    +0.022 C 
ATOM     29  C   UNL     1      -4.105   2.245  73.413  0.00  0.00    +0.005 C 
ATOM     30  C   UNL     1      -6.292   3.067  73.098  0.00  0.00    +0.012 C 
ATOM     31  C   UNL     1      -7.674   2.656  73.871  0.00  0.00    +0.061 C 
ATOM     32  C   UNL     1      -6.885   1.837  75.049  0.00  0.00    +0.008 C 
ATOM     33  C   UNL     1      -7.740   4.021  74.692  0.00  0.00    +0.180 C 
ATOM     34  O   UNL     1      -6.995   4.315  75.514  0.00  0.00    -0.293 OA
ATOM     35  C   UNL     1      -9.089   4.854  74.443  0.00  0.00    +0.206 C 
ATOM     36  C   UNL     1      -8.133   6.279  74.240  0.00  0.00    +0.204 C 
ATOM     37  O   UNL     1      -8.740   6.912  75.469  0.00  0.00    -0.216 OA
ATOM     38  C   UNL     1      -9.139   7.002  73.197  0.00  0.00    -0.015 C 
ATOM     39  C   UNL     1     -10.562   7.142  73.697  0.00  0.00    +0.029 C 
ATOM     40  C   UNL     1      -8.462   7.945  72.660  0.00  0.00    -0.025 C 
ATOM     41  C   UNL     1      -7.674   7.921  71.261  0.00  0.00    +0.079 C 
ATOM     42  C   UNL     1      -8.601   6.804  70.497  0.00  0.00    +0.012 C 
ATOM     43  C   UNL     1      -8.520   9.131  70.610  0.00  0.00    +0.158 C 
ATOM     44  O   UNL     1      -9.632   9.203  71.117  0.00  0.00    -0.296 OA
ATOM     45  O   UNL     1      -6.281   6.973  63.893  0.00  0.00    -0.187 OA
ATOM     46  C   UNL     1      -4.347   6.974  65.369  0.00  0.00    +0.062 C 
ATOM     47  C   UNL     1      -3.745   7.766  64.072  0.00  0.00    +0.006 C 
ATOM     48  C   UNL     1      -7.958  10.687  66.025  0.00  0.00    +0.031 C 
ATOM     49  C   UNL     1      -8.222   9.510  69.171  0.00  0.00    +0.108 C 
ENDROOT
BRANCH   1  50
ATOM     50  C   UNL     1     -10.264  10.688  69.500  0.00  0.00    +0.041 C 
ATOM     51  C   UNL     1     -11.767  10.136  69.763  0.00  0.00    +0.004 C 
BRANCH  50  52
ATOM     52  C   UNL     1     -10.781  11.610  68.320  0.00  0.00    +0.004 C 
BRANCH  52  58
ATOM     53  C   UNL     1     -10.214  15.102  67.792  0.00  0.00    +0.146 C 
ATOM     54  C   UNL     1     -10.185  14.485  66.180  0.00  0.00    +0.179 C 
ATOM     55  O   UNL     1     -10.945  15.700  65.662  0.00  0.00    -0.221 OA
ATOM     56  C   UNL     1     -11.498  13.521  66.380  0.00  0.00    +0.035 C 
ATOM     57  C   UNL     1     -12.059  13.586  67.644  0.00  0.00    +0.003 C 
ATOM     58  C   UNL     1     -11.195  13.058  68.912  0.00  0.00    +0.003 C 
ATOM     59  C   UNL     1      -9.757  13.643  68.367  0.00  0.00    +0.032 C 
BRANCH  53  61
ATOM     60  C   UNL     1      -8.582  16.262  68.750  0.00  0.00    +0.174 C 
ATOM     61  O   UNL     1      -8.806  15.633  67.656  0.00  0.00    -0.351 OA
ENDBRANCH  53  61
ENDBRANCH  52  58
ENDBRANCH  50  52
ENDBRANCH   1  50
BRANCH  20  62
ATOM     62  O   UNL     1      -6.733   2.181  66.143  0.00  0.00    -0.349 OA
ATOM     63  C   UNL     1      -6.081   1.577  65.089  0.00  0.00    +0.174 C 
ENDBRANCH  20  62
BRANCH  35  64
ATOM     64  O   UNL     1      -9.098   4.587  72.964  0.00  0.00    -0.343 OA
ATOM     65  C   UNL     1     -10.184   3.851  72.627  0.00  0.00    +0.175 C 
ENDBRANCH  35  64
TORSDOF 6
ENDMDL
MODEL 8
REMARK VINA RESULT:      -6.1      6.553     12.474
REMARK  Name = 
REMARK  6 active torsions:
REMARK  status: ('A' for Active; 'I' for Inactive)
REMARK    1  A    between atoms: O_2  and  C_3
REMARK    2  A    between atoms: C_5  and  C_6
REMARK    3  A    between atoms: C_6  and  C_7
REMARK    4  A    between atoms: C_7  and  C_9
REMARK    5  A    between atoms: C_20  and  O_21
REMARK    6  A    between atoms: C_37  and  O_38
REMARK                            x       y       z     vdW  Elec       q    Type
REMARK                         _______ _______ _______ _____ _____    ______ ____
ROOT
ATOM      1  C   UNL     1      -8.818   6.524  66.542  0.00  0.00    +0.176 C 
ATOM      2  O   UNL     1      -8.690   6.043  65.117  0.00  0.00    -0.451 OA
ATOM      3  C   UNL     1      -9.181   4.768  64.889  0.00  0.00    +0.335 C 
ATOM      4  O   UNL     1     -10.270   4.259  64.887  0.00  0.00    -0.248 OA
ATOM      5  C   UNL     1      -7.882   3.884  65.193  0.00  0.00    +0.175 C 
ATOM      6  N   UNL     1      -8.021   2.888  63.979  0.00  0.00    -0.265 N 
ATOM      7  C   UNL     1      -8.761   3.104  62.845  0.00  0.00    +0.094 C 
ATOM      8  C   UNL     1      -8.648   4.478  62.285  0.00  0.00    +0.022 C 
ATOM      9  C   UNL     1      -7.657   5.219  63.002  0.00  0.00    +0.004 C 
ATOM     10  C   UNL     1      -6.703   2.294  63.877  0.00  0.00    +0.289 C 
ATOM     11  O   UNL     1      -6.072   2.087  62.818  0.00  0.00    -0.267 OA
ATOM     12  C   UNL     1      -6.261   1.967  65.253  0.00  0.00    +0.279 C 
ATOM     13  O   UNL     1      -4.993   2.068  65.389  0.00  0.00    -0.281 OA
ATOM     14  C   UNL     1      -7.266   1.301  65.975  0.00  0.00    +0.279 C 
ATOM     15  O   UNL     1      -8.039   1.584  66.986  0.00  0.00    -0.329 OA
ATOM     16  C   UNL     1      -9.186   0.578  66.939  0.00  0.00    +0.121 C 
ATOM     17  C   UNL     1      -8.307  -0.665  67.553  0.00  0.00    +0.030 C 
ATOM     18  C   UNL     1      -7.188  -0.968  66.778  0.00  0.00    +0.008 C 
ATOM     19  C   UNL     1      -9.780   1.043  68.390  0.00  0.00    +0.063 C 
ATOM     20  C   UNL     1      -9.376  -0.170  69.425  0.00  0.00    +0.136 C 
ATOM     21  C   UNL     1      -9.537   0.719  70.779  0.00  0.00    -0.017 C 
ATOM     22  C   UNL     1      -9.332   2.197  70.586  0.00  0.00    +0.029 C 
ATOM     23  C   UNL     1     -10.270   0.194  71.717  0.00  0.00    -0.006 C 
ATOM     24  C   UNL     1      -9.937  -0.773  72.713  0.00  0.00    -0.001 C 
ATOM     25  C   UNL     1      -8.741  -0.595  73.246  0.00  0.00    -0.000 C 
ATOM     26  C   UNL     1      -8.508   0.328  74.369  0.00  0.00    -0.005 C 
ATOM     27  C   UNL     1      -9.014   1.498  74.171  0.00  0.00    -0.026 C 
ATOM     28  C   UNL     1      -9.173   2.496  75.408  0.00  0.00    +0.022 C 
ATOM     29  C   UNL     1      -7.585   2.392  75.788  0.00  0.00    +0.005 C 
ATOM     30  C   UNL     1      -8.930   3.823  74.485  0.00  0.00    +0.012 C 
ATOM     31  C   UNL     1     -10.173   4.781  74.947  0.00  0.00    +0.061 C 
ATOM     32  C   UNL     1      -9.837   4.614  76.540  0.00  0.00    +0.008 C 
ATOM     33  C   UNL     1      -9.333   6.125  74.781  0.00  0.00    +0.180 C 
ATOM     34  O   UNL     1      -8.446   6.416  75.449  0.00  0.00    -0.293 OA
ATOM     35  C   UNL     1      -9.984   7.166  73.749  0.00  0.00    +0.206 C 
ATOM     36  C   UNL     1      -8.426   7.379  73.032  0.00  0.00    +0.204 C 
ATOM     37  O   UNL     1      -8.383   8.827  73.456  0.00  0.00    -0.216 OA
ATOM     38  C   UNL     1      -8.975   7.686  71.539  0.00  0.00    -0.015 C 
ATOM     39  C   UNL     1      -9.976   8.821  71.463  0.00  0.00    +0.029 C 
ATOM     40  C   UNL     1      -7.965   7.556  70.765  0.00  0.00    -0.025 C 
ATOM     41  C   UNL     1      -7.538   6.266  69.908  0.00  0.00    +0.079 C 
ATOM     42  C   UNL     1      -9.033   5.622  69.708  0.00  0.00    +0.012 C 
ATOM     43  C   UNL     1      -7.624   7.018  68.484  0.00  0.00    +0.158 C 
ATOM     44  O   UNL     1      -8.412   7.954  68.535  0.00  0.00    -0.296 OA
ATOM     45  O   UNL     1      -7.992   0.433  65.124  0.00  0.00    -0.187 OA
ATOM     46  C   UNL     1      -6.218   0.334  66.787  0.00  0.00    +0.062 C 
ATOM     47  C   UNL     1      -5.462  -0.316  65.491  0.00  0.00    +0.006 C 
ATOM     48  C   UNL     1      -6.930   4.809  64.194  0.00  0.00    +0.031 C 
ATOM     49  C   UNL     1      -7.371   6.197  67.233  0.00  0.00    +0.108 C 
ENDROOT
BRANCH   1  50
ATOM     50  C   UNL     1      -8.304   8.160  66.262  0.00  0.00    +0.041 C 
ATOM     51  C   UNL     1      -9.806   8.773  66.308  0.00  0.00    +0.004 C 
BRANCH  50  52
ATOM     52  C   UNL     1      -8.299   8.223  64.679  0.00  0.00    +0.004 C 
BRANCH  52  58
ATOM     53  C   UNL     1      -6.528  10.225  62.302  0.00  0.00    +0.146 C 
ATOM     54  C   UNL     1      -6.805   8.771  61.413  0.00  0.00    +0.179 C 
ATOM     55  O   UNL     1      -7.097   9.560  60.142  0.00  0.00    -0.221 OA
ATOM     56  C   UNL     1      -8.367   8.615  61.892  0.00  0.00    +0.035 C 
ATOM     57  C   UNL     1      -8.803   9.623  62.735  0.00  0.00    +0.003 C 
ATOM     58  C   UNL     1      -8.128   9.760  64.204  0.00  0.00    +0.003 C 
ATOM     59  C   UNL     1      -6.604   9.390  63.704  0.00  0.00    +0.032 C 
BRANCH  53  61
ATOM     60  C   UNL     1      -4.533  11.033  62.844  0.00  0.00    +0.174 C 
ATOM     61  O   UNL     1      -5.032  10.079  62.148  0.00  0.00    -0.351 OA
ENDBRANCH  53  61
ENDBRANCH  52  58
ENDBRANCH  50  52
ENDBRANCH   1  50
BRANCH  20  62
ATOM     62  O   UNL     1     -10.774  -0.762  69.491  0.00  0.00    -0.349 OA
ATOM     63  C   UNL     1     -10.766  -2.062  69.035  0.00  0.00    +0.174 C 
ENDBRANCH  20  62
BRANCH  35  64
ATOM     64  O   UNL     1     -10.353   6.100  72.754  0.00  0.00    -0.343 OA
ATOM     65  C   UNL     1     -11.690   6.102  72.540  0.00  0.00    +0.175 C 
ENDBRANCH  35  64
TORSDOF 6
ENDMDL
MODEL 9
REMARK VINA RESULT:      -6.0      5.668     10.549
REMARK  Name = 
REMARK  6 active torsions:
REMARK  status: ('A' for Active; 'I' for Inactive)
REMARK    1  A    between atoms: O_2  and  C_3
REMARK    2  A    between atoms: C_5  and  C_6
REMARK    3  A    between atoms: C_6  and  C_7
REMARK    4  A    between atoms: C_7  and  C_9
REMARK    5  A    between atoms: C_20  and  O_21
REMARK    6  A    between atoms: C_37  and  O_38
REMARK                            x       y       z     vdW  Elec       q    Type
REMARK                         _______ _______ _______ _____ _____    ______ ____
ROOT
ATOM      1  C   UNL     1      -9.109   3.688  68.684  0.00  0.00    +0.176 C 
ATOM      2  O   UNL     1      -9.643   4.323  69.944  0.00  0.00    -0.451 OA
ATOM      3  C   UNL     1     -10.287   5.534  69.755  0.00  0.00    +0.335 C 
ATOM      4  O   UNL     1     -11.309   5.887  69.229  0.00  0.00    -0.248 OA
ATOM      5  C   UNL     1      -9.059   6.554  69.888  0.00  0.00    +0.175 C 
ATOM      6  N   UNL     1      -9.786   7.638  70.772  0.00  0.00    -0.265 N 
ATOM      7  C   UNL     1     -10.921   7.438  71.515  0.00  0.00    +0.094 C 
ATOM      8  C   UNL     1     -10.947   6.156  72.270  0.00  0.00    +0.022 C 
ATOM      9  C   UNL     1      -9.688   5.489  72.148  0.00  0.00    +0.004 C 
ATOM     10  C   UNL     1      -8.693   8.415  71.320  0.00  0.00    +0.289 C 
ATOM     11  O   UNL     1      -8.596   8.813  72.502  0.00  0.00    -0.267 OA
ATOM     12  C   UNL     1      -7.732   8.659  70.219  0.00  0.00    +0.279 C 
ATOM     13  O   UNL     1      -6.525   8.720  70.638  0.00  0.00    -0.281 OA
ATOM     14  C   UNL     1      -8.380   9.105  69.054  0.00  0.00    +0.279 C 
ATOM     15  O   UNL     1      -8.619   8.618  67.869  0.00  0.00    -0.329 OA
ATOM     16  C   UNL     1      -9.754   9.456  67.286  0.00  0.00    +0.121 C 
ATOM     17  C   UNL     1      -8.801  10.740  66.912  0.00  0.00    +0.030 C 
ATOM     18  C   UNL     1      -8.151  11.270  68.027  0.00  0.00    +0.008 C 
ATOM     19  C   UNL     1      -9.628   8.770  65.807  0.00  0.00    +0.063 C 
ATOM     20  C   UNL     1      -8.919   9.917  64.863  0.00  0.00    +0.136 C 
ATOM     21  C   UNL     1      -8.411   8.882  63.714  0.00  0.00    -0.017 C 
ATOM     22  C   UNL     1      -8.190   7.473  64.194  0.00  0.00    +0.029 C 
ATOM     23  C   UNL     1      -8.711   9.204  62.489  0.00  0.00    -0.006 C 
ATOM     24  C   UNL     1      -8.064  10.102  61.589  0.00  0.00    -0.001 C 
ATOM     25  C   UNL     1      -6.744  10.037  61.632  0.00  0.00    -0.000 C 
ATOM     26  C   UNL     1      -5.978   9.046  60.859  0.00  0.00    -0.005 C 
ATOM     27  C   UNL     1      -6.423   7.844  61.002  0.00  0.00    -0.026 C 
ATOM     28  C   UNL     1      -5.955   6.713  59.974  0.00  0.00    +0.022 C 
ATOM     29  C   UNL     1      -4.371   6.996  60.276  0.00  0.00    +0.005 C 
ATOM     30  C   UNL     1      -6.023   5.533  61.103  0.00  0.00    +0.012 C 
ATOM     31  C   UNL     1      -6.866   4.372  60.316  0.00  0.00    +0.061 C 
ATOM     32  C   UNL     1      -5.894   4.422  59.000  0.00  0.00    +0.008 C 
ATOM     33  C   UNL     1      -6.071   3.179  61.014  0.00  0.00    +0.180 C 
ATOM     34  O   UNL     1      -4.963   2.947  60.825  0.00  0.00    -0.293 OA
ATOM     35  C   UNL     1      -7.015   2.168  61.827  0.00  0.00    +0.206 C 
ATOM     36  C   UNL     1      -5.904   2.245  63.148  0.00  0.00    +0.204 C 
ATOM     37  O   UNL     1      -5.564   0.781  63.001  0.00  0.00    -0.216 OA
ATOM     38  C   UNL     1      -7.012   2.017  64.307  0.00  0.00    -0.015 C 
ATOM     39  C   UNL     1      -7.853   0.769  64.130  0.00  0.00    +0.029 C 
ATOM     40  C   UNL     1      -6.446   2.362  65.400  0.00  0.00    -0.025 C 
ATOM     41  C   UNL     1      -6.535   3.778  66.153  0.00  0.00    +0.079 C 
ATOM     42  C   UNL     1      -8.018   4.228  65.617  0.00  0.00    +0.012 C 
ATOM     43  C   UNL     1      -7.161   3.169  67.510  0.00  0.00    +0.158 C 
ATOM     44  O   UNL     1      -7.772   2.133  67.277  0.00  0.00    -0.296 OA
ATOM     45  O   UNL     1      -9.469   9.946  69.388  0.00  0.00    -0.187 OA
ATOM     46  C   UNL     1      -7.168  10.119  68.615  0.00  0.00    +0.062 C 
ATOM     47  C   UNL     1      -7.097  10.994  69.995  0.00  0.00    +0.006 C 
ATOM     48  C   UNL     1      -8.556   5.873  71.318  0.00  0.00    +0.031 C 
ATOM     49  C   UNL     1      -7.537   4.138  68.614  0.00  0.00    +0.108 C 
ENDROOT
BRANCH   1  50
ATOM     50  C   UNL     1      -8.633   2.174  69.393  0.00  0.00    +0.041 C 
ATOM     51  C   UNL     1      -9.815   1.323  68.677  0.00  0.00    +0.004 C 
BRANCH  50  52
ATOM     52  C   UNL     1      -9.439   2.196  70.756  0.00  0.00    +0.004 C 
BRANCH  52  58
ATOM     53  C   UNL     1      -8.473   1.365  74.098  0.00  0.00    +0.146 C 
ATOM     54  C   UNL     1      -9.633   2.616  74.360  0.00  0.00    +0.179 C 
ATOM     55  O   UNL     1     -10.208   1.882  75.565  0.00  0.00    -0.221 OA
ATOM     56  C   UNL     1     -10.708   2.035  73.264  0.00  0.00    +0.035 C 
ATOM     57  C   UNL     1     -10.297   0.875  72.630  0.00  0.00    +0.003 C 
ATOM     58  C   UNL     1      -8.996   0.932  71.663  0.00  0.00    +0.003 C 
ATOM     59  C   UNL     1      -8.145   1.969  72.617  0.00  0.00    +0.032 C 
BRANCH  53  61
ATOM     60  C   UNL     1      -6.342   1.440  74.717  0.00  0.00    +0.174 C 
ATOM     61  O   UNL     1      -7.398   2.162  74.801  0.00  0.00    -0.351 OA
ENDBRANCH  53  61
ENDBRANCH  52  58
ENDBRANCH  50  52
ENDBRANCH   1  50
BRANCH  20  62
ATOM     62  O   UNL     1     -10.197  10.301  64.137  0.00  0.00    -0.349 OA
ATOM     63  C   UNL     1     -10.356  11.670  64.138  0.00  0.00    +0.174 C 
ENDBRANCH  20  62
BRANCH  35  64
ATOM     64  O   UNL     1      -7.860   3.268  62.408  0.00  0.00    -0.343 OA
ATOM     65  C   UNL     1      -9.128   3.180  61.942  0.00  0.00    +0.175 C 
ENDBRANCH  35  64
TORSDOF 6
ENDMDL
