MODEL 1
REMARK VINA RESULT:      -7.2      0.000      0.000
REMARK  Name = 
REMARK  5 active torsions:
REMARK  status: ('A' for Active; 'I' for Inactive)
REMARK    1  A    between atoms: C_6  and  N_7
REMARK    2  A    between atoms: N_7  and  C_8
REMARK    3  A    between atoms: C_13  and  S_14
REMARK    4  A    between atoms: S_14  and  N_17
REMARK    5  A    between atoms: N_20  and  C_21
REMARK                            x       y       z     vdW  Elec       q    Type
REMARK                         _______ _______ _______ _____ _____    ______ ____
ROOT
ATOM      1  C   UNL     1     -10.966  15.192  66.560  0.00  0.00    +0.093 A 
ATOM      2  C   UNL     1     -11.909  14.229  66.898  0.00  0.00    +0.163 A 
ATOM      3  C   UNL     1     -12.665  13.749  65.836  0.00  0.00    +0.121 A 
ATOM      4  N   UNL     1     -12.695  14.352  64.633  0.00  0.00    -0.241 NA
ATOM      5  C   UNL     1     -11.606  15.052  64.236  0.00  0.00    +0.100 A 
ATOM      6  C   UNL     1     -10.808  15.586  65.236  0.00  0.00    +0.039 A 
ENDROOT
BRANCH   2   7
ATOM      7  S   UNL     1     -11.434  13.078  68.143  0.00  0.00    +0.107 S 
ATOM      8  O   UNL     1      -9.955  12.812  68.110  0.00  0.00    -0.146 OA
ATOM      9  O   UNL     1     -12.129  11.767  67.843  0.00  0.00    -0.146 OA
BRANCH   7  10
ATOM     10  N   UNL     1     -11.951  13.558  69.702  0.00  0.00    -0.071 NA
ATOM     11  C   UNL     1     -12.300  12.742  70.629  0.00  0.00    +0.371 C 
ATOM     12  N   UNL     1     -13.233  13.182  71.605  0.00  0.00    -0.185 NA
ATOM     13  O   UNL     1     -11.793  11.463  70.556  0.00  0.00    -0.244 OA
BRANCH  12  14
ATOM     14  C   UNL     1     -13.331  14.595  71.854  0.00  0.00    +0.097 C 
ATOM     15  C   UNL     1     -12.897  14.875  73.277  0.00  0.00    +0.023 C 
ATOM     16  C   UNL     1     -14.722  15.141  71.682  0.00  0.00    +0.023 C 
ENDBRANCH  12  14
ENDBRANCH   7  10
ENDBRANCH   2   7
BRANCH   1  17
ATOM     17  N   UNL     1     -10.303  15.854  67.625  0.00  0.00    -0.211 NA
BRANCH  17  21
ATOM     18  C   UNL     1      -6.786  18.607  65.731  0.00  0.00    +0.031 C 
ATOM     19  C   UNL     1      -8.070  18.539  66.491  0.00  0.00    -0.021 A 
ATOM     20  C   UNL     1      -8.457  17.410  67.195  0.00  0.00    +0.012 A 
ATOM     21  C   UNL     1      -9.782  17.171  67.536  0.00  0.00    +0.070 A 
ATOM     22  C   UNL     1     -10.567  18.305  67.690  0.00  0.00    +0.016 A 
ATOM     23  C   UNL     1     -10.215  19.489  67.057  0.00  0.00    +0.001 A 
ATOM     24  C   UNL     1      -9.010  19.548  66.374  0.00  0.00    -0.004 A 
ENDBRANCH  17  21
ENDBRANCH   1  17
TORSDOF 5
ENDMDL
MODEL 2
REMARK VINA RESULT:      -7.1      3.187      6.584
REMARK  Name = 
REMARK  5 active torsions:
REMARK  status: ('A' for Active; 'I' for Inactive)
REMARK    1  A    between atoms: C_6  and  N_7
REMARK    2  A    between atoms: N_7  and  C_8
REMARK    3  A    between atoms: C_13  and  S_14
REMARK    4  A    between atoms: S_14  and  N_17
REMARK    5  A    between atoms: N_20  and  C_21
REMARK                            x       y       z     vdW  Elec       q    Type
REMARK                         _______ _______ _______ _____ _____    ______ ____
ROOT
ATOM      1  C   UNL     1      -9.050  15.473  68.678  0.00  0.00    +0.093 A 
ATOM      2  C   UNL     1      -8.830  16.765  68.216  0.00  0.00    +0.163 A 
ATOM      3  C   UNL     1      -7.568  17.277  68.487  0.00  0.00    +0.121 A 
ATOM      4  N   UNL     1      -6.722  16.704  69.362  0.00  0.00    -0.241 NA
ATOM      5  C   UNL     1      -6.804  15.366  69.555  0.00  0.00    +0.100 A 
ATOM      6  C   UNL     1      -8.038  14.777  69.328  0.00  0.00    +0.039 A 
ENDROOT
BRANCH   2   7
ATOM      7  S   UNL     1      -9.555  17.172  66.664  0.00  0.00    +0.107 S 
ATOM      8  O   UNL     1      -8.647  18.046  65.846  0.00  0.00    -0.146 OA
ATOM      9  O   UNL     1     -10.810  17.971  66.941  0.00  0.00    -0.146 OA
BRANCH   7  10
ATOM     10  N   UNL     1     -10.044  15.783  65.792  0.00  0.00    -0.071 NA
ATOM     11  C   UNL     1     -10.971  15.778  64.904  0.00  0.00    +0.371 C 
ATOM     12  N   UNL     1     -11.694  14.577  64.684  0.00  0.00    -0.185 NA
ATOM     13  O   UNL     1     -11.245  16.978  64.284  0.00  0.00    -0.244 OA
BRANCH  12  14
ATOM     14  C   UNL     1     -11.054  13.334  65.022  0.00  0.00    +0.097 C 
ATOM     15  C   UNL     1     -11.029  12.444  63.797  0.00  0.00    +0.023 C 
ATOM     16  C   UNL     1     -11.747  12.581  66.124  0.00  0.00    +0.023 C 
ENDBRANCH  12  14
ENDBRANCH   7  10
ENDBRANCH   2   7
BRANCH   1  17
ATOM     17  N   UNL     1     -10.376  14.974  68.600  0.00  0.00    -0.211 NA
BRANCH  17  21
ATOM     18  C   UNL     1     -13.115  12.490  71.741  0.00  0.00    +0.031 C 
ATOM     19  C   UNL     1     -12.605  13.815  71.278  0.00  0.00    -0.021 A 
ATOM     20  C   UNL     1     -12.172  14.032  69.980  0.00  0.00    +0.012 A 
ATOM     21  C   UNL     1     -11.325  15.082  69.651  0.00  0.00    +0.070 A 
ATOM     22  C   UNL     1     -11.414  16.195  70.475  0.00  0.00    +0.016 A 
ATOM     23  C   UNL     1     -11.889  16.066  71.772  0.00  0.00    +0.001 A 
ATOM     24  C   UNL     1     -12.382  14.837  72.184  0.00  0.00    -0.004 A 
ENDBRANCH  17  21
ENDBRANCH   1  17
TORSDOF 5
ENDMDL
MODEL 3
REMARK VINA RESULT:      -7.0      2.493      6.276
REMARK  Name = 
REMARK  5 active torsions:
REMARK  status: ('A' for Active; 'I' for Inactive)
REMARK    1  A    between atoms: C_6  and  N_7
REMARK    2  A    between atoms: N_7  and  C_8
REMARK    3  A    between atoms: C_13  and  S_14
REMARK    4  A    between atoms: S_14  and  N_17
REMARK    5  A    between atoms: N_20  and  C_21
REMARK                            x       y       z     vdW  Elec       q    Type
REMARK                         _______ _______ _______ _____ _____    ______ ____
ROOT
ATOM      1  C   UNL     1     -11.458  12.614  68.052  0.00  0.00    +0.093 A 
ATOM      2  C   UNL     1     -10.639  12.957  66.983  0.00  0.00    +0.163 A 
ATOM      3  C   UNL     1      -9.957  11.896  66.402  0.00  0.00    +0.121 A 
ATOM      4  N   UNL     1      -9.862  10.686  66.983  0.00  0.00    -0.241 NA
ATOM      5  C   UNL     1     -10.858  10.288  67.809  0.00  0.00    +0.100 A 
ATOM      6  C   UNL     1     -11.576  11.287  68.448  0.00  0.00    +0.039 A 
ENDROOT
BRANCH   2   7
ATOM      7  S   UNL     1     -11.243  14.219  65.913  0.00  0.00    +0.107 S 
ATOM      8  O   UNL     1     -12.735  14.133  65.752  0.00  0.00    -0.146 OA
ATOM      9  O   UNL     1     -10.633  13.990  64.547  0.00  0.00    -0.146 OA
BRANCH   7  10
ATOM     10  N   UNL     1     -10.753  15.781  66.411  0.00  0.00    -0.071 NA
ATOM     11  C   UNL     1     -10.573  16.769  65.612  0.00  0.00    +0.371 C 
ATOM     12  N   UNL     1      -9.646  17.779  65.978  0.00  0.00    -0.185 NA
ATOM     13  O   UNL     1     -11.248  16.729  64.411  0.00  0.00    -0.244 OA
BRANCH  12  14
ATOM     14  C   UNL     1      -9.367  17.961  67.377  0.00  0.00    +0.097 C 
ATOM     15  C   UNL     1     -10.019  19.245  67.845  0.00  0.00    +0.023 C 
ATOM     16  C   UNL     1      -7.898  18.050  67.691  0.00  0.00    +0.023 C 
ENDBRANCH  12  14
ENDBRANCH   7  10
ENDBRANCH   2   7
BRANCH   1  17
ATOM     17  N   UNL     1     -12.025  13.675  68.802  0.00  0.00    -0.211 NA
BRANCH  17  21
ATOM     18  C   UNL     1     -12.084  16.447  72.784  0.00  0.00    +0.031 C 
ATOM     19  C   UNL     1     -12.270  15.093  72.180  0.00  0.00    -0.021 A 
ATOM     20  C   UNL     1     -11.663  14.721  70.991  0.00  0.00    +0.012 A 
ATOM     21  C   UNL     1     -12.141  13.671  70.217  0.00  0.00    +0.070 A 
ATOM     22  C   UNL     1     -12.812  12.678  70.916  0.00  0.00    +0.016 A 
ATOM     23  C   UNL     1     -13.400  12.961  72.140  0.00  0.00    +0.001 A 
ATOM     24  C   UNL     1     -13.202  14.213  72.702  0.00  0.00    -0.004 A 
ENDBRANCH  17  21
ENDBRANCH   1  17
TORSDOF 5
ENDMDL
MODEL 4
REMARK VINA RESULT:      -6.9      3.044      7.101
REMARK  Name = 
REMARK  5 active torsions:
REMARK  status: ('A' for Active; 'I' for Inactive)
REMARK    1  A    between atoms: C_6  and  N_7
REMARK    2  A    between atoms: N_7  and  C_8
REMARK    3  A    between atoms: C_13  and  S_14
REMARK    4  A    between atoms: S_14  and  N_17
REMARK    5  A    between atoms: N_20  and  C_21
REMARK                            x       y       z     vdW  Elec       q    Type
REMARK                         _______ _______ _______ _____ _____    ______ ____
ROOT
ATOM      1  C   UNL     1     -10.677  14.227  67.325  0.00  0.00    +0.093 A 
ATOM      2  C   UNL     1     -11.075  15.154  66.369  0.00  0.00    +0.163 A 
ATOM      3  C   UNL     1     -10.187  16.201  66.161  0.00  0.00    +0.121 A 
ATOM      4  N   UNL     1      -9.167  16.468  66.998  0.00  0.00    -0.241 NA
ATOM      5  C   UNL     1      -8.626  15.444  67.701  0.00  0.00    +0.100 A 
ATOM      6  C   UNL     1      -9.455  14.367  67.972  0.00  0.00    +0.039 A 
ENDROOT
BRANCH   2   7
ATOM      7  S   UNL     1     -11.915  14.510  64.962  0.00  0.00    +0.107 S 
ATOM      8  O   UNL     1     -12.237  15.594  63.972  0.00  0.00    -0.146 OA
ATOM      9  O   UNL     1     -13.232  13.937  65.438  0.00  0.00    -0.146 OA
BRANCH   7  10
ATOM     10  N   UNL     1     -11.060  13.222  64.228  0.00  0.00    -0.071 NA
ATOM     11  C   UNL     1     -11.616  12.259  63.589  0.00  0.00    +0.371 C 
ATOM     12  N   UNL     1     -10.958  11.003  63.544  0.00  0.00    -0.185 NA
ATOM     13  O   UNL     1     -12.863  12.505  63.054  0.00  0.00    -0.244 OA
BRANCH  12  14
ATOM     14  C   UNL     1      -9.530  10.985  63.716  0.00  0.00    +0.097 C 
ATOM     15  C   UNL     1      -8.873  10.837  62.360  0.00  0.00    +0.023 C 
ATOM     16  C   UNL     1      -9.042   9.861  64.589  0.00  0.00    +0.023 C 
ENDBRANCH  12  14
ENDBRANCH   7  10
ENDBRANCH   2   7
BRANCH   1  17
ATOM     17  N   UNL     1     -11.627  13.250  67.716  0.00  0.00    -0.211 NA
BRANCH  17  21
ATOM     18  C   UNL     1     -13.583  13.358  72.155  0.00  0.00    +0.031 C 
ATOM     19  C   UNL     1     -12.716  12.644  71.170  0.00  0.00    -0.021 A 
ATOM     20  C   UNL     1     -12.084  13.299  70.125  0.00  0.00    +0.012 A 
ATOM     21  C   UNL     1     -11.644  12.627  68.992  0.00  0.00    +0.070 A 
ATOM     22  C   UNL     1     -11.315  11.293  69.184  0.00  0.00    +0.016 A 
ATOM     23  C   UNL     1     -11.868  10.584  70.241  0.00  0.00    +0.001 A 
ATOM     24  C   UNL     1     -12.652  11.261  71.162  0.00  0.00    -0.004 A 
ENDBRANCH  17  21
ENDBRANCH   1  17
TORSDOF 5
ENDMDL
MODEL 5
REMARK VINA RESULT:      -6.9      1.585      2.325
REMARK  Name = 
REMARK  5 active torsions:
REMARK  status: ('A' for Active; 'I' for Inactive)
REMARK    1  A    between atoms: C_6  and  N_7
REMARK    2  A    between atoms: N_7  and  C_8
REMARK    3  A    between atoms: C_13  and  S_14
REMARK    4  A    between atoms: S_14  and  N_17
REMARK    5  A    between atoms: N_20  and  C_21
REMARK                            x       y       z     vdW  Elec       q    Type
REMARK                         _______ _______ _______ _____ _____    ______ ____
ROOT
ATOM      1  C   UNL     1     -10.298  14.466  66.042  0.00  0.00    +0.093 A 
ATOM      2  C   UNL     1     -11.290  14.358  67.010  0.00  0.00    +0.163 A 
ATOM      3  C   UNL     1     -12.519  13.910  66.544  0.00  0.00    +0.121 A 
ATOM      4  N   UNL     1     -12.824  13.854  65.235  0.00  0.00    -0.241 NA
ATOM      5  C   UNL     1     -11.819  13.667  64.346  0.00  0.00    +0.100 A 
ATOM      6  C   UNL     1     -10.561  14.107  64.726  0.00  0.00    +0.039 A 
ENDROOT
BRANCH   2   7
ATOM      7  S   UNL     1     -10.771  13.801  68.598  0.00  0.00    +0.107 S 
ATOM      8  O   UNL     1      -9.312  14.083  68.829  0.00  0.00    -0.146 OA
ATOM      9  O   UNL     1     -10.944  12.298  68.634  0.00  0.00    -0.146 OA
BRANCH   7  10
ATOM     10  N   UNL     1     -11.741  14.434  69.857  0.00  0.00    -0.071 NA
ATOM     11  C   UNL     1     -11.825  15.682  70.144  0.00  0.00    +0.371 C 
ATOM     12  N   UNL     1     -12.132  16.053  71.480  0.00  0.00    -0.185 NA
ATOM     13  O   UNL     1     -11.532  16.574  69.135  0.00  0.00    -0.244 OA
BRANCH  12  14
ATOM     14  C   UNL     1     -12.844  15.105  72.294  0.00  0.00    +0.097 C 
ATOM     15  C   UNL     1     -14.332  15.302  72.090  0.00  0.00    +0.023 C 
ATOM     16  C   UNL     1     -12.560  15.242  73.765  0.00  0.00    +0.023 C 
ENDBRANCH  12  14
ENDBRANCH   7  10
ENDBRANCH   2   7
BRANCH   1  17
ATOM     17  N   UNL     1      -9.087  15.099  66.422  0.00  0.00    -0.211 NA
BRANCH  17  21
ATOM     18  C   UNL     1     -10.745  19.610  67.083  0.00  0.00    +0.031 C 
ATOM     19  C   UNL     1      -9.622  18.724  66.653  0.00  0.00    -0.021 A 
ATOM     20  C   UNL     1      -9.828  17.427  66.210  0.00  0.00    +0.012 A 
ATOM     21  C   UNL     1      -8.815  16.477  66.215  0.00  0.00    +0.070 A 
ATOM     22  C   UNL     1      -7.528  16.982  66.097  0.00  0.00    +0.016 A 
ATOM     23  C   UNL     1      -7.255  18.290  66.472  0.00  0.00    +0.001 A 
ATOM     24  C   UNL     1      -8.308  19.111  66.847  0.00  0.00    -0.004 A 
ENDBRANCH  17  21
ENDBRANCH   1  17
TORSDOF 5
ENDMDL
MODEL 6
REMARK VINA RESULT:      -6.8      3.125      6.369
REMARK  Name = 
REMARK  5 active torsions:
REMARK  status: ('A' for Active; 'I' for Inactive)
REMARK    1  A    between atoms: C_6  and  N_7
REMARK    2  A    between atoms: N_7  and  C_8
REMARK    3  A    between atoms: C_13  and  S_14
REMARK    4  A    between atoms: S_14  and  N_17
REMARK    5  A    between atoms: N_20  and  C_21
REMARK                            x       y       z     vdW  Elec       q    Type
REMARK                         _______ _______ _______ _____ _____    ______ ____
ROOT
ATOM      1  C   UNL     1     -11.075  14.873  67.420  0.00  0.00    +0.093 A 
ATOM      2  C   UNL     1     -10.304  15.649  66.563  0.00  0.00    +0.163 A 
ATOM      3  C   UNL     1     -10.618  15.524  65.216  0.00  0.00    +0.121 A 
ATOM      4  N   UNL     1     -11.397  14.536  64.739  0.00  0.00    -0.241 NA
ATOM      5  C   UNL     1     -12.341  14.009  65.555  0.00  0.00    +0.100 A 
ATOM      6  C   UNL     1     -12.094  14.073  66.917  0.00  0.00    +0.039 A 
ENDROOT
BRANCH   2   7
ATOM      7  S   UNL     1      -9.861  17.249  67.148  0.00  0.00    +0.107 S 
ATOM      8  O   UNL     1     -11.021  17.928  67.822  0.00  0.00    -0.146 OA
ATOM      9  O   UNL     1      -9.491  18.090  65.945  0.00  0.00    -0.146 OA
BRANCH   7  10
ATOM     10  N   UNL     1      -8.481  17.211  68.159  0.00  0.00    -0.071 NA
ATOM     11  C   UNL     1      -7.854  18.256  68.564  0.00  0.00    +0.371 C 
ATOM     12  N   UNL     1      -6.471  18.145  68.861  0.00  0.00    -0.185 NA
ATOM     13  O   UNL     1      -8.569  19.434  68.602  0.00  0.00    -0.244 OA
BRANCH  12  14
ATOM     14  C   UNL     1      -5.962  16.850  69.223  0.00  0.00    +0.097 C 
ATOM     15  C   UNL     1      -5.245  16.957  70.552  0.00  0.00    +0.023 C 
ATOM     16  C   UNL     1      -4.993  16.283  68.222  0.00  0.00    +0.023 C 
ENDBRANCH  12  14
ENDBRANCH   7  10
ENDBRANCH   2   7
BRANCH   1  17
ATOM     17  N   UNL     1     -10.674  14.814  68.779  0.00  0.00    -0.211 NA
BRANCH  17  21
ATOM     18  C   UNL     1     -13.432  12.640  72.127  0.00  0.00    +0.031 C 
ATOM     19  C   UNL     1     -12.841  13.907  71.601  0.00  0.00    -0.021 A 
ATOM     20  C   UNL     1     -12.462  14.056  70.276  0.00  0.00    +0.012 A 
ATOM     21  C   UNL     1     -11.552  15.025  69.874  0.00  0.00    +0.070 A 
ATOM     22  C   UNL     1     -11.505  16.160  70.670  0.00  0.00    +0.016 A 
ATOM     23  C   UNL     1     -11.917  16.102  71.994  0.00  0.00    +0.001 A 
ATOM     24  C   UNL     1     -12.486  14.928  72.465  0.00  0.00    -0.004 A 
ENDBRANCH  17  21
ENDBRANCH   1  17
TORSDOF 5
ENDMDL
MODEL 7
REMARK VINA RESULT:      -6.8      3.025      5.785
REMARK  Name = 
REMARK  5 active torsions:
REMARK  status: ('A' for Active; 'I' for Inactive)
REMARK    1  A    between atoms: C_6  and  N_7
REMARK    2  A    between atoms: N_7  and  C_8
REMARK    3  A    between atoms: C_13  and  S_14
REMARK    4  A    between atoms: S_14  and  N_17
REMARK    5  A    between atoms: N_20  and  C_21
REMARK                            x       y       z     vdW  Elec       q    Type
REMARK                         _______ _______ _______ _____ _____    ______ ____
ROOT
ATOM      1  C   UNL     1      -9.815  12.248  65.634  0.00  0.00    +0.093 A 
ATOM      2  C   UNL     1     -10.530  12.852  64.606  0.00  0.00    +0.163 A 
ATOM      3  C   UNL     1     -10.721  12.062  63.481  0.00  0.00    +0.121 A 
ATOM      4  N   UNL     1     -10.043  10.919  63.270  0.00  0.00    -0.241 NA
ATOM      5  C   UNL     1      -9.614  10.216  64.345  0.00  0.00    +0.100 A 
ATOM      6  C   UNL     1      -9.377  10.935  65.506  0.00  0.00    +0.039 A 
ENDROOT
BRANCH   2   7
ATOM      7  S   UNL     1     -11.853  13.907  65.094  0.00  0.00    +0.107 S 
ATOM      8  O   UNL     1     -12.801  13.203  66.023  0.00  0.00    -0.146 OA
ATOM      9  O   UNL     1     -12.635  14.265  63.848  0.00  0.00    -0.146 OA
BRANCH   7  10
ATOM     10  N   UNL     1     -11.296  15.381  65.761  0.00  0.00    -0.071 NA
ATOM     11  C   UNL     1     -10.959  16.406  65.066  0.00  0.00    +0.371 C 
ATOM     12  N   UNL     1      -9.998  17.303  65.600  0.00  0.00    -0.185 NA
ATOM     13  O   UNL     1     -11.510  16.511  63.807  0.00  0.00    -0.244 OA
BRANCH  12  14
ATOM     14  C   UNL     1      -9.850  17.357  67.030  0.00  0.00    +0.097 C 
ATOM     15  C   UNL     1     -10.392  18.679  67.530  0.00  0.00    +0.023 C 
ATOM     16  C   UNL     1      -8.423  17.241  67.492  0.00  0.00    +0.023 C 
ENDBRANCH  12  14
ENDBRANCH   7  10
ENDBRANCH   2   7
BRANCH   1  17
ATOM     17  N   UNL     1      -9.425  13.068  66.723  0.00  0.00    -0.211 NA
BRANCH  17  21
ATOM     18  C   UNL     1     -11.746  15.769  70.018  0.00  0.00    +0.031 C 
ATOM     19  C   UNL     1     -11.310  14.411  69.573  0.00  0.00    -0.021 A 
ATOM     20  C   UNL     1     -10.221  14.218  68.737  0.00  0.00    +0.012 A 
ATOM     21  C   UNL     1     -10.062  13.057  67.991  0.00  0.00    +0.070 A 
ATOM     22  C   UNL     1     -10.647  11.921  68.531  0.00  0.00    +0.016 A 
ATOM     23  C   UNL     1     -11.709  12.037  69.417  0.00  0.00    +0.001 A 
ATOM     24  C   UNL     1     -12.090  13.300  69.841  0.00  0.00    -0.004 A 
ENDBRANCH  17  21
ENDBRANCH   1  17
TORSDOF 5
ENDMDL
MODEL 8
REMARK VINA RESULT:      -6.8      2.442      6.225
REMARK  Name = 
REMARK  5 active torsions:
REMARK  status: ('A' for Active; 'I' for Inactive)
REMARK    1  A    between atoms: C_6  and  N_7
REMARK    2  A    between atoms: N_7  and  C_8
REMARK    3  A    between atoms: C_13  and  S_14
REMARK    4  A    between atoms: S_14  and  N_17
REMARK    5  A    between atoms: N_20  and  C_21
REMARK                            x       y       z     vdW  Elec       q    Type
REMARK                         _______ _______ _______ _____ _____    ______ ____
ROOT
ATOM      1  C   UNL     1     -11.174  14.345  67.826  0.00  0.00    +0.093 A 
ATOM      2  C   UNL     1      -9.886  13.832  67.719  0.00  0.00    +0.163 A 
ATOM      3  C   UNL     1      -9.705  12.912  66.695  0.00  0.00    +0.121 A 
ATOM      4  N   UNL     1     -10.731  12.341  66.038  0.00  0.00    -0.241 NA
ATOM      5  C   UNL     1     -11.891  13.032  65.931  0.00  0.00    +0.100 A 
ATOM      6  C   UNL     1     -12.161  13.956  66.928  0.00  0.00    +0.039 A 
ENDROOT
BRANCH   2   7
ATOM      7  S   UNL     1      -8.571  14.957  68.044  0.00  0.00    +0.107 S 
ATOM      8  O   UNL     1      -7.288  14.498  67.410  0.00  0.00    -0.146 OA
ATOM      9  O   UNL     1      -8.346  14.977  69.540  0.00  0.00    -0.146 OA
BRANCH   7  10
ATOM     10  N   UNL     1      -8.960  16.560  67.587  0.00  0.00    -0.071 NA
ATOM     11  C   UNL     1      -9.002  16.973  66.373  0.00  0.00    +0.371 C 
ATOM     12  N   UNL     1      -8.740  18.344  66.113  0.00  0.00    -0.185 NA
ATOM     13  O   UNL     1      -9.225  16.024  65.400  0.00  0.00    -0.244 OA
BRANCH  12  14
ATOM     14  C   UNL     1      -8.974  19.286  67.174  0.00  0.00    +0.097 C 
ATOM     15  C   UNL     1     -10.306  19.968  66.941  0.00  0.00    +0.023 C 
ATOM     16  C   UNL     1      -7.921  20.356  67.271  0.00  0.00    +0.023 C 
ENDBRANCH  12  14
ENDBRANCH   7  10
ENDBRANCH   2   7
BRANCH   1  17
ATOM     17  N   UNL     1     -11.464  15.136  68.966  0.00  0.00    -0.211 NA
BRANCH  17  21
ATOM     18  C   UNL     1     -12.519  16.230  73.574  0.00  0.00    +0.031 C 
ATOM     19  C   UNL     1     -12.355  15.176  72.528  0.00  0.00    -0.021 A 
ATOM     20  C   UNL     1     -11.562  15.360  71.407  0.00  0.00    +0.012 A 
ATOM     21  C   UNL     1     -11.727  14.601  70.255  0.00  0.00    +0.070 A 
ATOM     22  C   UNL     1     -12.247  13.330  70.453  0.00  0.00    +0.016 A 
ATOM     23  C   UNL     1     -13.008  13.056  71.580  0.00  0.00    +0.001 A 
ATOM     24  C   UNL     1     -13.135  14.033  72.555  0.00  0.00    -0.004 A 
ENDBRANCH  17  21
ENDBRANCH   1  17
TORSDOF 5
ENDMDL
MODEL 9
REMARK VINA RESULT:      -6.7      2.863      5.895
REMARK  Name = 
REMARK  5 active torsions:
REMARK  status: ('A' for Active; 'I' for Inactive)
REMARK    1  A    between atoms: C_6  and  N_7
REMARK    2  A    between atoms: N_7  and  C_8
REMARK    3  A    between atoms: C_13  and  S_14
REMARK    4  A    between atoms: S_14  and  N_17
REMARK    5  A    between atoms: N_20  and  C_21
REMARK                            x       y       z     vdW  Elec       q    Type
REMARK                         _______ _______ _______ _____ _____    ______ ____
ROOT
ATOM      1  C   UNL     1     -11.245  14.711  67.174  0.00  0.00    +0.093 A 
ATOM      2  C   UNL     1     -11.252  14.574  65.791  0.00  0.00    +0.163 A 
ATOM      3  C   UNL     1     -10.339  15.374  65.118  0.00  0.00    +0.121 A 
ATOM      4  N   UNL     1      -9.698  16.401  65.706  0.00  0.00    -0.241 NA
ATOM      5  C   UNL     1      -9.465  16.337  67.039  0.00  0.00    +0.100 A 
ATOM      6  C   UNL     1     -10.347  15.575  67.789  0.00  0.00    +0.039 A 
ENDROOT
BRANCH   2   7
ATOM      7  S   UNL     1     -11.520  12.948  65.171  0.00  0.00    +0.107 S 
ATOM      8  O   UNL     1     -10.871  12.759  63.828  0.00  0.00    -0.146 OA
ATOM      9  O   UNL     1     -13.010  12.773  64.974  0.00  0.00    -0.146 OA
BRANCH   7  10
ATOM     10  N   UNL     1     -11.029  11.741  66.281  0.00  0.00    -0.071 NA
ATOM     11  C   UNL     1      -9.806  11.456  66.542  0.00  0.00    +0.371 C 
ATOM     12  N   UNL     1      -9.490  10.138  66.964  0.00  0.00    -0.185 NA
ATOM     13  O   UNL     1      -8.874  12.445  66.314  0.00  0.00    -0.244 OA
BRANCH  12  14
ATOM     14  C   UNL     1     -10.530   9.365  67.590  0.00  0.00    +0.097 C 
ATOM     15  C   UNL     1     -10.238   9.258  69.072  0.00  0.00    +0.023 C 
ATOM     16  C   UNL     1     -10.654   7.970  67.043  0.00  0.00    +0.023 C 
ENDBRANCH  12  14
ENDBRANCH   7  10
ENDBRANCH   2   7
BRANCH   1  17
ATOM     17  N   UNL     1     -12.282  14.066  67.895  0.00  0.00    -0.211 NA
BRANCH  17  21
ATOM     18  C   UNL     1     -13.847  15.267  72.328  0.00  0.00    +0.031 C 
ATOM     19  C   UNL     1     -13.088  14.309  71.469  0.00  0.00    -0.021 A 
ATOM     20  C   UNL     1     -12.529  14.680  70.257  0.00  0.00    +0.012 A 
ATOM     21  C   UNL     1     -12.207  13.750  69.278  0.00  0.00    +0.070 A 
ATOM     22  C   UNL     1     -11.901  12.480  69.745  0.00  0.00    +0.016 A 
ATOM     23  C   UNL     1     -12.381  12.055  70.976  0.00  0.00    +0.001 A 
ATOM     24  C   UNL     1     -13.064  12.959  71.774  0.00  0.00    -0.004 A 
ENDBRANCH  17  21
ENDBRANCH   1  17
TORSDOF 5
ENDMDL
