MODEL 1
REMARK VINA RESULT:      -7.0      0.000      0.000
REMARK  Name = 
REMARK  3 active torsions:
REMARK  status: ('A' for Active; 'I' for Inactive)
REMARK    1  A    between atoms: C_2  and  O_3
REMARK    2  A    between atoms: O_3  and  C_4
REMARK    3  A    between atoms: C_4  and  C_6
REMARK                            x       y       z     vdW  Elec       q    Type
REMARK                         _______ _______ _______ _____ _____    ______ ____
ROOT
ATOM      1  C   UNL     1     -10.367  15.726  68.696  0.00  0.00    +0.172 A 
ATOM      2  C   UNL     1     -11.292  15.078  69.483  0.00  0.00    +0.087 A 
ATOM      3  C   UNL     1     -12.211  15.806  70.377  0.00  0.00    +0.140 C 
ATOM      4  N   UNL     1     -12.473  15.093  71.612  0.00  0.00    -0.269 N 
ATOM      5  C   UNL     1     -12.998  13.762  71.671  0.00  0.00    +0.251 C 
ATOM      6  C   UNL     1     -12.701  12.610  70.810  0.00  0.00    +0.072 A 
ATOM      7  C   UNL     1     -12.007  12.685  69.611  0.00  0.00    +0.070 A 
ATOM      8  C   UNL     1     -11.509  11.490  69.104  0.00  0.00    +0.020 A 
ATOM      9  C   UNL     1     -11.380  10.353  69.888  0.00  0.00    +0.031 A 
ATOM     10  C   UNL     1     -12.046  10.290  71.106  0.00  0.00    +0.140 A 
ATOM     11  F   UNL     1     -11.631   9.372  72.027  0.00  0.00    -0.204 F 
ATOM     12  C   UNL     1     -12.800  11.396  71.478  0.00  0.00    +0.036 A 
ATOM     13  O   UNL     1     -13.536  13.444  72.748  0.00  0.00    -0.270 OA
ATOM     14  C   UNL     1     -12.391  15.833  72.866  0.00  0.00    +0.116 C 
ATOM     15  N   UNL     1     -11.458  13.838  68.961  0.00  0.00    -0.290 N 
ATOM     16  C   UNL     1     -10.716  13.741  67.838  0.00  0.00    +0.183 A 
ATOM     17  N   UNL     1      -9.910  14.828  67.799  0.00  0.00    -0.217 NA
ENDROOT
BRANCH   1  18
ATOM     18  C   UNL     1     -10.075  17.163  68.617  0.00  0.00    +0.360 C 
ATOM     19  O   UNL     1      -8.856  17.475  68.769  0.00  0.00    -0.243 OA
BRANCH  18  20
ATOM     20  O   UNL     1     -10.879  18.053  67.917  0.00  0.00    -0.444 OA
BRANCH  20  22
ATOM     21  C   UNL     1     -10.436  19.549  66.089  0.00  0.00    +0.051 C 
ATOM     22  C   UNL     1     -10.463  19.369  67.584  0.00  0.00    +0.209 C 
ENDBRANCH  20  22
ENDBRANCH  18  20
ENDBRANCH   1  18
TORSDOF 3
ENDMDL
MODEL 2
REMARK VINA RESULT:      -7.0      2.036      2.607
REMARK  Name = 
REMARK  3 active torsions:
REMARK  status: ('A' for Active; 'I' for Inactive)
REMARK    1  A    between atoms: C_2  and  O_3
REMARK    2  A    between atoms: O_3  and  C_4
REMARK    3  A    between atoms: C_4  and  C_6
REMARK                            x       y       z     vdW  Elec       q    Type
REMARK                         _______ _______ _______ _____ _____    ______ ____
ROOT
ATOM      1  C   UNL     1     -10.664  14.968  65.622  0.00  0.00    +0.172 A 
ATOM      2  C   UNL     1     -11.213  14.544  66.810  0.00  0.00    +0.087 A 
ATOM      3  C   UNL     1     -11.817  15.481  67.775  0.00  0.00    +0.140 C 
ATOM      4  N   UNL     1     -11.587  15.091  69.154  0.00  0.00    -0.269 N 
ATOM      5  C   UNL     1     -11.965  13.822  69.699  0.00  0.00    +0.251 C 
ATOM      6  C   UNL     1     -11.904  12.492  69.080  0.00  0.00    +0.072 A 
ATOM      7  C   UNL     1     -11.672  12.264  67.731  0.00  0.00    +0.070 A 
ATOM      8  C   UNL     1     -11.298  10.975  67.372  0.00  0.00    +0.020 A 
ATOM      9  C   UNL     1     -10.828  10.057  68.301  0.00  0.00    +0.031 A 
ATOM     10  C   UNL     1     -11.027  10.301  69.654  0.00  0.00    +0.140 A 
ATOM     11  F   UNL     1     -10.257   9.625  70.557  0.00  0.00    -0.204 F 
ATOM     12  C   UNL     1     -11.682  11.476  70.002  0.00  0.00    +0.036 A 
ATOM     13  O   UNL     1     -12.076  13.781  70.938  0.00  0.00    -0.270 OA
ATOM     14  C   UNL     1     -11.130  16.110  70.091  0.00  0.00    +0.116 C 
ATOM     15  N   UNL     1     -11.463  13.218  66.682  0.00  0.00    -0.290 N 
ATOM     16  C   UNL     1     -11.149  12.841  65.425  0.00  0.00    +0.183 A 
ATOM     17  N   UNL     1     -10.483  13.873  64.855  0.00  0.00    -0.217 NA
ENDROOT
BRANCH   1  18
ATOM     18  C   UNL     1     -10.517  16.338  65.116  0.00  0.00    +0.360 C 
ATOM     19  O   UNL     1     -11.386  16.696  64.266  0.00  0.00    -0.243 OA
BRANCH  18  20
ATOM     20  O   UNL     1      -9.882  17.339  65.840  0.00  0.00    -0.444 OA
BRANCH  20  22
ATOM     21  C   UNL     1     -10.384  18.954  67.548  0.00  0.00    +0.051 C 
ATOM     22  C   UNL     1     -10.475  18.606  66.085  0.00  0.00    +0.209 C 
ENDBRANCH  20  22
ENDBRANCH  18  20
ENDBRANCH   1  18
TORSDOF 3
ENDMDL
MODEL 3
REMARK VINA RESULT:      -6.8      2.788      5.619
REMARK  Name = 
REMARK  3 active torsions:
REMARK  status: ('A' for Active; 'I' for Inactive)
REMARK    1  A    between atoms: C_2  and  O_3
REMARK    2  A    between atoms: O_3  and  C_4
REMARK    3  A    between atoms: C_4  and  C_6
REMARK                            x       y       z     vdW  Elec       q    Type
REMARK                         _______ _______ _______ _____ _____    ______ ____
ROOT
ATOM      1  C   UNL     1     -12.288  14.677  70.292  0.00  0.00    +0.172 A 
ATOM      2  C   UNL     1     -11.448  14.902  69.225  0.00  0.00    +0.087 A 
ATOM      3  C   UNL     1     -10.647  16.133  69.102  0.00  0.00    +0.140 C 
ATOM      4  N   UNL     1     -10.515  16.581  67.728  0.00  0.00    -0.269 N 
ATOM      5  C   UNL     1      -9.981  15.774  66.672  0.00  0.00    +0.251 C 
ATOM      6  C   UNL     1     -10.161  14.339  66.420  0.00  0.00    +0.072 A 
ATOM      7  C   UNL     1     -10.717  13.447  67.326  0.00  0.00    +0.070 A 
ATOM      8  C   UNL     1     -11.137  12.224  66.818  0.00  0.00    +0.020 A 
ATOM      9  C   UNL     1     -11.337  12.018  65.461  0.00  0.00    +0.031 A 
ATOM     10  C   UNL     1     -10.812  12.929  64.553  0.00  0.00    +0.140 A 
ATOM     11  F   UNL     1     -11.315  12.945  63.284  0.00  0.00    -0.204 F 
ATOM     12  C   UNL     1     -10.121  14.018  65.069  0.00  0.00    +0.036 A 
ATOM     13  O   UNL     1      -9.563  16.397  65.679  0.00  0.00    -0.270 OA
ATOM     14  C   UNL     1     -10.748  17.990  67.437  0.00  0.00    +0.116 C 
ATOM     15  N   UNL     1     -11.206  13.699  68.649  0.00  0.00    -0.290 N 
ATOM     16  C   UNL     1     -11.815  12.742  69.381  0.00  0.00    +0.183 A 
ATOM     17  N   UNL     1     -12.628  13.372  70.262  0.00  0.00    -0.217 NA
ENDROOT
BRANCH   1  18
ATOM     18  C   UNL     1     -12.590  15.562  71.424  0.00  0.00    +0.360 C 
ATOM     19  O   UNL     1     -13.801  15.922  71.519  0.00  0.00    -0.243 OA
BRANCH  18  20
ATOM     20  O   UNL     1     -11.826  15.581  72.584  0.00  0.00    -0.444 OA
BRANCH  20  22
ATOM     21  C   UNL     1     -12.399  16.233  74.825  0.00  0.00    +0.051 C 
ATOM     22  C   UNL     1     -12.308  15.104  73.832  0.00  0.00    +0.209 C 
ENDBRANCH  20  22
ENDBRANCH  18  20
ENDBRANCH   1  18
TORSDOF 3
ENDMDL
MODEL 4
REMARK VINA RESULT:      -6.8      2.420      3.875
REMARK  Name = 
REMARK  3 active torsions:
REMARK  status: ('A' for Active; 'I' for Inactive)
REMARK    1  A    between atoms: C_2  and  O_3
REMARK    2  A    between atoms: O_3  and  C_4
REMARK    3  A    between atoms: C_4  and  C_6
REMARK                            x       y       z     vdW  Elec       q    Type
REMARK                         _______ _______ _______ _____ _____    ______ ____
ROOT
ATOM      1  C   UNL     1     -10.421  16.633  67.273  0.00  0.00    +0.172 A 
ATOM      2  C   UNL     1     -10.653  15.481  67.989  0.00  0.00    +0.087 A 
ATOM      3  C   UNL     1     -10.251  14.153  67.492  0.00  0.00    +0.140 C 
ATOM      4  N   UNL     1     -11.194  13.111  67.852  0.00  0.00    -0.269 N 
ATOM      5  C   UNL     1     -11.584  12.817  69.198  0.00  0.00    +0.251 C 
ATOM      6  C   UNL     1     -11.838  13.738  70.312  0.00  0.00    +0.072 A 
ATOM      7  C   UNL     1     -11.508  15.087  70.306  0.00  0.00    +0.070 A 
ATOM      8  C   UNL     1     -12.119  15.882  71.268  0.00  0.00    +0.020 A 
ATOM      9  C   UNL     1     -13.249  15.467  71.959  0.00  0.00    +0.031 A 
ATOM     10  C   UNL     1     -13.602  14.123  71.937  0.00  0.00    +0.140 A 
ATOM     11  F   UNL     1     -14.878  13.780  72.278  0.00  0.00    -0.204 F 
ATOM     12  C   UNL     1     -12.796  13.264  71.200  0.00  0.00    +0.036 A 
ATOM     13  O   UNL     1     -12.061  11.681  69.383  0.00  0.00    -0.270 OA
ATOM     14  C   UNL     1     -11.620  12.178  66.815  0.00  0.00    +0.116 C 
ATOM     15  N   UNL     1     -10.869  15.850  69.275  0.00  0.00    -0.290 N 
ATOM     16  C   UNL     1     -10.702  17.185  69.374  0.00  0.00    +0.183 A 
ATOM     17  N   UNL     1     -10.622  17.670  68.112  0.00  0.00    -0.217 NA
ENDROOT
BRANCH   1  18
ATOM     18  C   UNL     1      -9.822  16.781  65.941  0.00  0.00    +0.360 C 
ATOM     19  O   UNL     1     -10.627  16.663  64.970  0.00  0.00    -0.243 OA
BRANCH  18  20
ATOM     20  O   UNL     1      -8.658  17.507  65.720  0.00  0.00    -0.444 OA
BRANCH  20  22
ATOM     21  C   UNL     1      -6.942  18.046  67.314  0.00  0.00    +0.051 C 
ATOM     22  C   UNL     1      -7.393  17.106  66.226  0.00  0.00    +0.209 C 
ENDBRANCH  20  22
ENDBRANCH  18  20
ENDBRANCH   1  18
TORSDOF 3
ENDMDL
MODEL 5
REMARK VINA RESULT:      -6.6      2.238      3.101
REMARK  Name = 
REMARK  3 active torsions:
REMARK  status: ('A' for Active; 'I' for Inactive)
REMARK    1  A    between atoms: C_2  and  O_3
REMARK    2  A    between atoms: O_3  and  C_4
REMARK    3  A    between atoms: C_4  and  C_6
REMARK                            x       y       z     vdW  Elec       q    Type
REMARK                         _______ _______ _______ _____ _____    ______ ____
ROOT
ATOM      1  C   UNL     1     -10.231  17.154  67.035  0.00  0.00    +0.172 A 
ATOM      2  C   UNL     1     -10.881  16.072  67.582  0.00  0.00    +0.087 A 
ATOM      3  C   UNL     1     -11.637  16.165  68.845  0.00  0.00    +0.140 C 
ATOM      4  N   UNL     1     -11.536  14.962  69.648  0.00  0.00    -0.269 N 
ATOM      5  C   UNL     1     -11.900  13.657  69.183  0.00  0.00    +0.251 C 
ATOM      6  C   UNL     1     -11.698  13.056  67.859  0.00  0.00    +0.072 A 
ATOM      7  C   UNL     1     -11.308  13.760  66.728  0.00  0.00    +0.070 A 
ATOM      8  C   UNL     1     -10.826  13.010  65.662  0.00  0.00    +0.020 A 
ATOM      9  C   UNL     1     -10.409  11.696  65.814  0.00  0.00    +0.031 A 
ATOM     10  C   UNL     1     -10.767  11.000  66.962  0.00  0.00    +0.140 A 
ATOM     11  F   UNL     1     -10.063   9.876  67.287  0.00  0.00    -0.204 F 
ATOM     12  C   UNL     1     -11.520  11.679  67.911  0.00  0.00    +0.036 A 
ATOM     13  O   UNL     1     -12.142  12.818  70.070  0.00  0.00    -0.270 OA
ATOM     14  C   UNL     1     -11.242  15.104  71.069  0.00  0.00    +0.116 C 
ATOM     15  N   UNL     1     -11.040  15.161  66.591  0.00  0.00    -0.290 N 
ATOM     16  C   UNL     1     -10.571  15.690  65.442  0.00  0.00    +0.183 A 
ATOM     17  N   UNL     1      -9.906  16.824  65.768  0.00  0.00    -0.217 NA
ENDROOT
BRANCH   1  18
ATOM     18  C   UNL     1     -10.107  18.517  67.569  0.00  0.00    +0.360 C 
ATOM     19  O   UNL     1     -11.115  19.261  67.387  0.00  0.00    -0.243 OA
BRANCH  18  20
ATOM     20  O   UNL     1      -9.262  18.832  68.625  0.00  0.00    -0.444 OA
BRANCH  20  22
ATOM     21  C   UNL     1      -7.655  20.181  67.453  0.00  0.00    +0.051 C 
ATOM     22  C   UNL     1      -7.874  19.077  68.454  0.00  0.00    +0.209 C 
ENDBRANCH  20  22
ENDBRANCH  18  20
ENDBRANCH   1  18
TORSDOF 3
ENDMDL
MODEL 6
REMARK VINA RESULT:      -6.5      3.379      7.036
REMARK  Name = 
REMARK  3 active torsions:
REMARK  status: ('A' for Active; 'I' for Inactive)
REMARK    1  A    between atoms: C_2  and  O_3
REMARK    2  A    between atoms: O_3  and  C_4
REMARK    3  A    between atoms: C_4  and  C_6
REMARK                            x       y       z     vdW  Elec       q    Type
REMARK                         _______ _______ _______ _____ _____    ______ ____
ROOT
ATOM      1  C   UNL     1     -11.477   9.739  70.644  0.00  0.00    +0.172 A 
ATOM      2  C   UNL     1     -11.646  11.012  70.150  0.00  0.00    +0.087 A 
ATOM      3  C   UNL     1     -11.221  11.391  68.791  0.00  0.00    +0.140 C 
ATOM      4  N   UNL     1     -10.713  12.748  68.720  0.00  0.00    -0.269 N 
ATOM      5  C   UNL     1     -11.456  13.902  69.128  0.00  0.00    +0.251 C 
ATOM      6  C   UNL     1     -12.360  14.064  70.273  0.00  0.00    +0.072 A 
ATOM      7  C   UNL     1     -12.839  13.018  71.049  0.00  0.00    +0.070 A 
ATOM      8  C   UNL     1     -13.385  13.357  72.282  0.00  0.00    +0.020 A 
ATOM      9  C   UNL     1     -13.154  14.588  72.878  0.00  0.00    +0.031 A 
ATOM     10  C   UNL     1     -12.641  15.626  72.111  0.00  0.00    +0.140 A 
ATOM     11  F   UNL     1     -12.067  16.686  72.752  0.00  0.00    -0.204 F 
ATOM     12  C   UNL     1     -12.371  15.360  70.775  0.00  0.00    +0.036 A 
ATOM     13  O   UNL     1     -11.072  14.985  68.649  0.00  0.00    -0.270 OA
ATOM     14  C   UNL     1      -9.459  12.978  68.012  0.00  0.00    +0.116 C 
ATOM     15  N   UNL     1     -12.589  11.614  70.917  0.00  0.00    -0.290 N 
ATOM     16  C   UNL     1     -13.049  10.717  71.815  0.00  0.00    +0.183 A 
ATOM     17  N   UNL     1     -12.225   9.644  71.763  0.00  0.00    -0.217 NA
ENDROOT
BRANCH   1  18
ATOM     18  C   UNL     1     -10.839   8.583  70.002  0.00  0.00    +0.360 C 
ATOM     19  O   UNL     1      -9.572   8.603  69.990  0.00  0.00    -0.243 OA
BRANCH  18  20
ATOM     20  O   UNL     1     -11.458   7.343  69.907  0.00  0.00    -0.444 OA
BRANCH  20  22
ATOM     21  C   UNL     1     -11.472   6.089  71.958  0.00  0.00    +0.051 C 
ATOM     22  C   UNL     1     -10.953   6.179  70.547  0.00  0.00    +0.209 C 
ENDBRANCH  20  22
ENDBRANCH  18  20
ENDBRANCH   1  18
TORSDOF 3
ENDMDL
MODEL 7
REMARK VINA RESULT:      -6.4      3.177      4.306
REMARK  Name = 
REMARK  3 active torsions:
REMARK  status: ('A' for Active; 'I' for Inactive)
REMARK    1  A    between atoms: C_2  and  O_3
REMARK    2  A    between atoms: O_3  and  C_4
REMARK    3  A    between atoms: C_4  and  C_6
REMARK                            x       y       z     vdW  Elec       q    Type
REMARK                         _______ _______ _______ _____ _____    ______ ____
ROOT
ATOM      1  C   UNL     1     -10.486  16.133  66.995  0.00  0.00    +0.172 A 
ATOM      2  C   UNL     1     -11.009  14.860  67.003  0.00  0.00    +0.087 A 
ATOM      3  C   UNL     1     -11.836  14.358  68.115  0.00  0.00    +0.140 C 
ATOM      4  N   UNL     1     -11.613  12.950  68.388  0.00  0.00    -0.269 N 
ATOM      5  C   UNL     1     -11.768  11.913  67.413  0.00  0.00    +0.251 C 
ATOM      6  C   UNL     1     -11.415  11.920  65.988  0.00  0.00    +0.072 A 
ATOM      7  C   UNL     1     -11.067  13.057  65.272  0.00  0.00    +0.070 A 
ATOM      8  C   UNL     1     -10.430  12.854  64.053  0.00  0.00    +0.020 A 
ATOM      9  C   UNL     1      -9.843  11.642  63.720  0.00  0.00    +0.031 A 
ATOM     10  C   UNL     1     -10.162  10.509  64.459  0.00  0.00    +0.140 A 
ATOM     11  F   UNL     1      -9.328   9.431  64.389  0.00  0.00    -0.204 F 
ATOM     12  C   UNL     1     -11.052  10.665  65.514  0.00  0.00    +0.036 A 
ATOM     13  O   UNL     1     -11.938  10.768  67.870  0.00  0.00    -0.270 OA
ATOM     14  C   UNL     1     -11.417  12.540  69.773  0.00  0.00    +0.116 C 
ATOM     15  N   UNL     1     -10.988  14.414  65.723  0.00  0.00    -0.290 N 
ATOM     16  C   UNL     1     -10.536  15.407  64.929  0.00  0.00    +0.183 A 
ATOM     17  N   UNL     1     -10.052  16.376  65.741  0.00  0.00    -0.217 NA
ENDROOT
BRANCH   1  18
ATOM     18  C   UNL     1     -10.580  17.171  68.030  0.00  0.00    +0.360 C 
ATOM     19  O   UNL     1      -9.773  17.043  68.998  0.00  0.00    -0.243 OA
BRANCH  18  20
ATOM     20  O   UNL     1     -11.068  18.445  67.769  0.00  0.00    -0.444 OA
BRANCH  20  22
ATOM     21  C   UNL     1     -10.301  19.938  66.049  0.00  0.00    +0.051 C 
ATOM     22  C   UNL     1     -10.221  19.554  67.503  0.00  0.00    +0.209 C 
ENDBRANCH  20  22
ENDBRANCH  18  20
ENDBRANCH   1  18
TORSDOF 3
ENDMDL
MODEL 8
REMARK VINA RESULT:      -6.4      3.352      5.351
REMARK  Name = 
REMARK  3 active torsions:
REMARK  status: ('A' for Active; 'I' for Inactive)
REMARK    1  A    between atoms: C_2  and  O_3
REMARK    2  A    between atoms: O_3  and  C_4
REMARK    3  A    between atoms: C_4  and  C_6
REMARK                            x       y       z     vdW  Elec       q    Type
REMARK                         _______ _______ _______ _____ _____    ______ ____
ROOT
ATOM      1  C   UNL     1     -10.301  11.831  66.917  0.00  0.00    +0.172 A 
ATOM      2  C   UNL     1     -10.742  13.084  67.275  0.00  0.00    +0.087 A 
ATOM      3  C   UNL     1     -10.610  14.248  66.380  0.00  0.00    +0.140 C 
ATOM      4  N   UNL     1     -10.334  15.478  67.098  0.00  0.00    -0.269 N 
ATOM      5  C   UNL     1     -11.168  16.000  68.139  0.00  0.00    +0.251 C 
ATOM      6  C   UNL     1     -11.885  15.282  69.199  0.00  0.00    +0.072 A 
ATOM      7  C   UNL     1     -12.063  13.906  69.233  0.00  0.00    +0.070 A 
ATOM      8  C   UNL     1     -12.443  13.357  70.451  0.00  0.00    +0.020 A 
ATOM      9  C   UNL     1     -12.308  14.048  71.647  0.00  0.00    +0.031 A 
ATOM     10  C   UNL     1     -12.094  15.421  71.615  0.00  0.00    +0.140 A 
ATOM     11  F   UNL     1     -11.591  16.026  72.730  0.00  0.00    -0.204 F 
ATOM     12  C   UNL     1     -12.011  16.025  70.367  0.00  0.00    +0.036 A 
ATOM     13  O   UNL     1     -11.039  17.216  68.371  0.00  0.00    -0.270 OA
ATOM     14  C   UNL     1      -9.265  16.339  66.605  0.00  0.00    +0.116 C 
ATOM     15  N   UNL     1     -11.625  12.920  68.289  0.00  0.00    -0.290 N 
ATOM     16  C   UNL     1     -11.788  11.599  68.508  0.00  0.00    +0.183 A 
ATOM     17  N   UNL     1     -10.830  10.957  67.798  0.00  0.00    -0.217 NA
ENDROOT
BRANCH   1  18
ATOM     18  C   UNL     1      -9.607  11.417  65.691  0.00  0.00    +0.360 C 
ATOM     19  O   UNL     1      -8.406  11.045  65.849  0.00  0.00    -0.243 OA
BRANCH  18  20
ATOM     20  O   UNL     1     -10.282  10.938  64.575  0.00  0.00    -0.444 OA
BRANCH  20  22
ATOM     21  C   UNL     1     -12.119  12.119  63.570  0.00  0.00    +0.051 C 
ATOM     22  C   UNL     1     -10.656  11.769  63.486  0.00  0.00    +0.209 C 
ENDBRANCH  20  22
ENDBRANCH  18  20
ENDBRANCH   1  18
TORSDOF 3
ENDMDL
MODEL 9
REMARK VINA RESULT:      -6.4      4.096      5.040
REMARK  Name = 
REMARK  3 active torsions:
REMARK  status: ('A' for Active; 'I' for Inactive)
REMARK    1  A    between atoms: C_2  and  O_3
REMARK    2  A    between atoms: O_3  and  C_4
REMARK    3  A    between atoms: C_4  and  C_6
REMARK                            x       y       z     vdW  Elec       q    Type
REMARK                         _______ _______ _______ _____ _____    ______ ____
ROOT
ATOM      1  C   UNL     1     -10.555  16.844  65.584  0.00  0.00    +0.172 A 
ATOM      2  C   UNL     1     -10.489  15.576  66.114  0.00  0.00    +0.087 A 
ATOM      3  C   UNL     1     -10.057  15.325  67.501  0.00  0.00    +0.140 C 
ATOM      4  N   UNL     1      -9.293  14.099  67.637  0.00  0.00    -0.269 N 
ATOM      5  C   UNL     1      -9.775  12.810  67.241  0.00  0.00    +0.251 C 
ATOM      6  C   UNL     1     -10.578  12.441  66.069  0.00  0.00    +0.072 A 
ATOM      7  C   UNL     1     -11.220  13.350  65.240  0.00  0.00    +0.070 A 
ATOM      8  C   UNL     1     -11.634  12.878  64.000  0.00  0.00    +0.020 A 
ATOM      9  C   UNL     1     -11.138  11.702  63.455  0.00  0.00    +0.031 A 
ATOM     10  C   UNL     1     -10.463  10.807  64.275  0.00  0.00    +0.140 A 
ATOM     11  F   UNL     1      -9.663   9.867  63.692  0.00  0.00    -0.204 F 
ATOM     12  C   UNL     1     -10.309  11.157  65.611  0.00  0.00    +0.036 A 
ATOM     13  O   UNL     1      -9.205  11.838  67.770  0.00  0.00    -0.270 OA
ATOM     14  C   UNL     1      -8.051  14.142  68.399  0.00  0.00    +0.116 C 
ATOM     15  N   UNL     1     -11.259  14.779  65.333  0.00  0.00    -0.290 N 
ATOM     16  C   UNL     1     -11.848  15.542  64.389  0.00  0.00    +0.183 A 
ATOM     17  N   UNL     1     -11.257  16.759  64.436  0.00  0.00    -0.217 NA
ENDROOT
BRANCH   1  18
ATOM     18  C   UNL     1     -10.187  18.121  66.210  0.00  0.00    +0.360 C 
ATOM     19  O   UNL     1     -10.880  18.447  67.219  0.00  0.00    -0.243 OA
BRANCH  18  20
ATOM     20  O   UNL     1      -8.912  18.663  66.108  0.00  0.00    -0.444 OA
BRANCH  20  22
ATOM     21  C   UNL     1      -6.962  17.272  66.307  0.00  0.00    +0.051 C 
ATOM     22  C   UNL     1      -7.847  18.294  66.972  0.00  0.00    +0.209 C 
ENDBRANCH  20  22
ENDBRANCH  18  20
ENDBRANCH   1  18
TORSDOF 3
ENDMDL
