MODEL 1
REMARK VINA RESULT:      -4.7      0.000      0.000
REMARK  Name = 
REMARK  18 active torsions:
REMARK  status: ('A' for Active; 'I' for Inactive)
REMARK    1  A    between atoms: C_2  and  C_3
REMARK    2  A    between atoms: C_3  and  C_4
REMARK    3  A    between atoms: C_4  and  C_5
REMARK    4  A    between atoms: C_5  and  C_6
REMARK    5  A    between atoms: C_6  and  C_7
REMARK    6  A    between atoms: C_7  and  C_8
REMARK    7  A    between atoms: C_8  and  C_9
REMARK    8  A    between atoms: C_9  and  C_10
REMARK    9  A    between atoms: C_10  and  N_11
REMARK   10  A    between atoms: N_11  and  C_14
REMARK   11  A    between atoms: C_14  and  C_15
REMARK   12  A    between atoms: C_15  and  C_16
REMARK   13  A    between atoms: C_16  and  C_17
REMARK   14  A    between atoms: C_17  and  C_18
REMARK   15  A    between atoms: C_18  and  C_19
REMARK   16  A    between atoms: C_19  and  C_20
REMARK   17  A    between atoms: C_20  and  C_21
REMARK   18  A    between atoms: C_21  and  C_22
REMARK                            x       y       z     vdW  Elec       q    Type
REMARK                         _______ _______ _______ _____ _____    ______ ____
ROOT
ATOM      1  N   UNL     1     -11.184  12.316  64.761  0.00  0.00    +0.306 N 
ATOM      2  C   UNL     1     -12.202  12.229  63.720  0.00  0.00    +0.171 C 
ATOM      3  C   UNL     1     -10.423  11.095  64.756  0.00  0.00    +0.171 C 
ENDROOT
BRANCH   1   4
ATOM      4  C   UNL     1     -10.363  13.507  64.595  0.00  0.00    +0.109 C 
BRANCH   4   5
ATOM      5  C   UNL     1     -11.297  14.668  64.926  0.00  0.00    +0.061 C 
BRANCH   5   6
ATOM      6  C   UNL     1     -10.425  15.805  65.377  0.00  0.00    +0.006 C 
BRANCH   6   7
ATOM      7  C   UNL     1      -9.210  15.352  66.151  0.00  0.00    +0.000 C 
BRANCH   7   8
ATOM      8  C   UNL     1      -8.434  16.610  66.524  0.00  0.00    +0.000 C 
BRANCH   8   9
ATOM      9  C   UNL     1      -8.283  16.742  68.025  0.00  0.00    +0.000 C 
BRANCH   9  10
ATOM     10  C   UNL     1      -8.558  18.162  68.453  0.00  0.00    +0.000 C 
BRANCH  10  11
ATOM     11  C   UNL     1      -9.981  18.475  68.033  0.00  0.00    +0.000 C 
BRANCH  11  13
ATOM     12  C   UNL     1     -10.531  19.783  66.001  0.00  0.00    +0.000 C 
ATOM     13  C   UNL     1      -9.961  19.855  67.405  0.00  0.00    +0.000 C 
ENDBRANCH  11  13
ENDBRANCH  10  11
ENDBRANCH   9  10
ENDBRANCH   8   9
ENDBRANCH   7   8
ENDBRANCH   6   7
ENDBRANCH   5   6
ENDBRANCH   4   5
ENDBRANCH   1   4
BRANCH   1  14
ATOM     14  C   UNL     1     -11.931  12.479  66.007  0.00  0.00    +0.109 C 
BRANCH  14  15
ATOM     15  C   UNL     1     -11.284  11.503  66.986  0.00  0.00    +0.061 C 
BRANCH  15  16
ATOM     16  C   UNL     1     -11.275  12.067  68.392  0.00  0.00    +0.006 C 
BRANCH  16  17
ATOM     17  C   UNL     1     -11.882  13.462  68.286  0.00  0.00    +0.000 C 
BRANCH  17  18
ATOM     18  C   UNL     1     -11.041  14.401  69.129  0.00  0.00    +0.000 C 
BRANCH  18  19
ATOM     19  C   UNL     1     -11.780  15.662  69.488  0.00  0.00    +0.000 C 
BRANCH  19  20
ATOM     20  C   UNL     1     -12.028  15.801  70.966  0.00  0.00    +0.000 C 
BRANCH  20  21
ATOM     21  C   UNL     1     -13.451  15.353  71.258  0.00  0.00    +0.000 C 
BRANCH  21  22
ATOM     22  C   UNL     1     -13.731  15.571  72.722  0.00  0.00    +0.000 C 
ATOM     23  C   UNL     1     -12.475  15.500  73.552  0.00  0.00    +0.000 C 
ENDBRANCH  21  22
ENDBRANCH  20  21
ENDBRANCH  19  20
ENDBRANCH  18  19
ENDBRANCH  17  18
ENDBRANCH  16  17
ENDBRANCH  15  16
ENDBRANCH  14  15
ENDBRANCH   1  14
TORSDOF 18
ENDMDL
MODEL 2
REMARK VINA RESULT:      -4.4      2.329      6.679
REMARK  Name = 
REMARK  18 active torsions:
REMARK  status: ('A' for Active; 'I' for Inactive)
REMARK    1  A    between atoms: C_2  and  C_3
REMARK    2  A    between atoms: C_3  and  C_4
REMARK    3  A    between atoms: C_4  and  C_5
REMARK    4  A    between atoms: C_5  and  C_6
REMARK    5  A    between atoms: C_6  and  C_7
REMARK    6  A    between atoms: C_7  and  C_8
REMARK    7  A    between atoms: C_8  and  C_9
REMARK    8  A    between atoms: C_9  and  C_10
REMARK    9  A    between atoms: C_10  and  N_11
REMARK   10  A    between atoms: N_11  and  C_14
REMARK   11  A    between atoms: C_14  and  C_15
REMARK   12  A    between atoms: C_15  and  C_16
REMARK   13  A    between atoms: C_16  and  C_17
REMARK   14  A    between atoms: C_17  and  C_18
REMARK   15  A    between atoms: C_18  and  C_19
REMARK   16  A    between atoms: C_19  and  C_20
REMARK   17  A    between atoms: C_20  and  C_21
REMARK   18  A    between atoms: C_21  and  C_22
REMARK                            x       y       z     vdW  Elec       q    Type
REMARK                         _______ _______ _______ _____ _____    ______ ____
ROOT
ATOM      1  N   UNL     1     -13.369  14.384  72.054  0.00  0.00    +0.306 N 
ATOM      2  C   UNL     1     -14.624  15.041  71.702  0.00  0.00    +0.171 C 
ATOM      3  C   UNL     1     -12.851  15.002  73.245  0.00  0.00    +0.171 C 
ENDROOT
BRANCH   1   4
ATOM      4  C   UNL     1     -13.548  12.945  72.182  0.00  0.00    +0.109 C 
BRANCH   4   5
ATOM      5  C   UNL     1     -12.718  12.351  71.046  0.00  0.00    +0.061 C 
BRANCH   5   6
ATOM      6  C   UNL     1     -12.711  10.863  71.254  0.00  0.00    +0.006 C 
BRANCH   6   7
ATOM      7  C   UNL     1     -11.886  10.122  70.230  0.00  0.00    +0.000 C 
BRANCH   7   8
ATOM      8  C   UNL     1     -11.603  11.105  69.100  0.00  0.00    +0.000 C 
BRANCH   8   9
ATOM      9  C   UNL     1     -11.175  10.387  67.837  0.00  0.00    +0.000 C 
BRANCH   9  10
ATOM     10  C   UNL     1     -10.882  11.385  66.745  0.00  0.00    +0.000 C 
BRANCH  10  11
ATOM     11  C   UNL     1     -11.711  12.618  67.048  0.00  0.00    +0.000 C 
BRANCH  11  13
ATOM     12  C   UNL     1     -10.923  13.516  64.878  0.00  0.00    +0.000 C 
ATOM     13  C   UNL     1     -12.146  13.195  65.715  0.00  0.00    +0.000 C 
ENDBRANCH  11  13
ENDBRANCH  10  11
ENDBRANCH   9  10
ENDBRANCH   8   9
ENDBRANCH   7   8
ENDBRANCH   6   7
ENDBRANCH   5   6
ENDBRANCH   4   5
ENDBRANCH   1   4
BRANCH   1  14
ATOM     14  C   UNL     1     -12.491  14.608  70.906  0.00  0.00    +0.109 C 
BRANCH  14  15
ATOM     15  C   UNL     1     -11.803  15.940  71.190  0.00  0.00    +0.061 C 
BRANCH  15  16
ATOM     16  C   UNL     1     -11.086  16.456  69.960  0.00  0.00    +0.006 C 
BRANCH  16  17
ATOM     17  C   UNL     1     -10.017  15.418  69.635  0.00  0.00    +0.000 C 
BRANCH  17  18
ATOM     18  C   UNL     1      -9.674  15.547  68.163  0.00  0.00    +0.000 C 
BRANCH  18  19
ATOM     19  C   UNL     1     -10.738  16.279  67.391  0.00  0.00    +0.000 C 
BRANCH  19  20
ATOM     20  C   UNL     1     -10.192  17.404  66.553  0.00  0.00    +0.000 C 
BRANCH  20  21
ATOM     21  C   UNL     1     -10.619  18.720  67.180  0.00  0.00    +0.000 C 
BRANCH  21  22
ATOM     22  C   UNL     1      -9.394  19.571  67.392  0.00  0.00    +0.000 C 
ATOM     23  C   UNL     1      -8.684  19.224  68.676  0.00  0.00    +0.000 C 
ENDBRANCH  21  22
ENDBRANCH  20  21
ENDBRANCH  19  20
ENDBRANCH  18  19
ENDBRANCH  17  18
ENDBRANCH  16  17
ENDBRANCH  15  16
ENDBRANCH  14  15
ENDBRANCH   1  14
TORSDOF 18
ENDMDL
MODEL 3
REMARK VINA RESULT:      -4.3      2.088      5.528
REMARK  Name = 
REMARK  18 active torsions:
REMARK  status: ('A' for Active; 'I' for Inactive)
REMARK    1  A    between atoms: C_2  and  C_3
REMARK    2  A    between atoms: C_3  and  C_4
REMARK    3  A    between atoms: C_4  and  C_5
REMARK    4  A    between atoms: C_5  and  C_6
REMARK    5  A    between atoms: C_6  and  C_7
REMARK    6  A    between atoms: C_7  and  C_8
REMARK    7  A    between atoms: C_8  and  C_9
REMARK    8  A    between atoms: C_9  and  C_10
REMARK    9  A    between atoms: C_10  and  N_11
REMARK   10  A    between atoms: N_11  and  C_14
REMARK   11  A    between atoms: C_14  and  C_15
REMARK   12  A    between atoms: C_15  and  C_16
REMARK   13  A    between atoms: C_16  and  C_17
REMARK   14  A    between atoms: C_17  and  C_18
REMARK   15  A    between atoms: C_18  and  C_19
REMARK   16  A    between atoms: C_19  and  C_20
REMARK   17  A    between atoms: C_20  and  C_21
REMARK   18  A    between atoms: C_21  and  C_22
REMARK                            x       y       z     vdW  Elec       q    Type
REMARK                         _______ _______ _______ _____ _____    ______ ____
ROOT
ATOM      1  N   UNL     1      -9.638  17.894  67.790  0.00  0.00    +0.306 N 
ATOM      2  C   UNL     1      -8.492  18.388  68.546  0.00  0.00    +0.171 C 
ATOM      3  C   UNL     1     -10.281  19.014  67.157  0.00  0.00    +0.171 C 
ENDROOT
BRANCH   1   4
ATOM      4  C   UNL     1      -9.241  16.853  66.854  0.00  0.00    +0.109 C 
BRANCH   4   5
ATOM      5  C   UNL     1     -10.257  16.947  65.718  0.00  0.00    +0.061 C 
BRANCH   5   6
ATOM      6  C   UNL     1     -10.782  15.557  65.497  0.00  0.00    +0.006 C 
BRANCH   6   7
ATOM      7  C   UNL     1      -9.832  14.480  65.963  0.00  0.00    +0.000 C 
BRANCH   7   8
ATOM      8  C   UNL     1     -10.649  13.199  66.088  0.00  0.00    +0.000 C 
BRANCH   8   9
ATOM      9  C   UNL     1     -11.741  13.339  67.128  0.00  0.00    +0.000 C 
BRANCH   9  10
ATOM     10  C   UNL     1     -11.866  12.066  67.925  0.00  0.00    +0.000 C 
BRANCH  10  11
ATOM     11  C   UNL     1     -10.516  11.823  68.573  0.00  0.00    +0.000 C 
BRANCH  11  13
ATOM     12  C   UNL     1     -10.772   9.571  67.572  0.00  0.00    +0.000 C 
ATOM     13  C   UNL     1     -10.415  10.333  68.834  0.00  0.00    +0.000 C 
ENDBRANCH  11  13
ENDBRANCH  10  11
ENDBRANCH   9  10
ENDBRANCH   8   9
ENDBRANCH   7   8
ENDBRANCH   6   7
ENDBRANCH   5   6
ENDBRANCH   4   5
ENDBRANCH   1   4
BRANCH   1  14
ATOM     14  C   UNL     1     -10.506  17.268  68.786  0.00  0.00    +0.109 C 
BRANCH  14  15
ATOM     15  C   UNL     1      -9.716  16.066  69.297  0.00  0.00    +0.061 C 
BRANCH  15  16
ATOM     16  C   UNL     1     -10.584  15.170  70.157  0.00  0.00    +0.006 C 
BRANCH  16  17
ATOM     17  C   UNL     1     -11.797  16.010  70.542  0.00  0.00    +0.000 C 
BRANCH  17  18
ATOM     18  C   UNL     1     -11.918  15.986  72.054  0.00  0.00    +0.000 C 
BRANCH  18  19
ATOM     19  C   UNL     1     -13.330  15.733  72.510  0.00  0.00    +0.000 C 
BRANCH  19  20
ATOM     20  C   UNL     1     -14.022  14.657  71.718  0.00  0.00    +0.000 C 
BRANCH  20  21
ATOM     21  C   UNL     1     -13.713  13.315  72.362  0.00  0.00    +0.000 C 
BRANCH  21  22
ATOM     22  C   UNL     1     -12.941  12.477  71.376  0.00  0.00    +0.000 C 
ATOM     23  C   UNL     1     -13.023  11.008  71.702  0.00  0.00    +0.000 C 
ENDBRANCH  21  22
ENDBRANCH  20  21
ENDBRANCH  19  20
ENDBRANCH  18  19
ENDBRANCH  17  18
ENDBRANCH  16  17
ENDBRANCH  15  16
ENDBRANCH  14  15
ENDBRANCH   1  14
TORSDOF 18
ENDMDL
MODEL 4
REMARK VINA RESULT:      -4.3      2.551      6.027
REMARK  Name = 
REMARK  18 active torsions:
REMARK  status: ('A' for Active; 'I' for Inactive)
REMARK    1  A    between atoms: C_2  and  C_3
REMARK    2  A    between atoms: C_3  and  C_4
REMARK    3  A    between atoms: C_4  and  C_5
REMARK    4  A    between atoms: C_5  and  C_6
REMARK    5  A    between atoms: C_6  and  C_7
REMARK    6  A    between atoms: C_7  and  C_8
REMARK    7  A    between atoms: C_8  and  C_9
REMARK    8  A    between atoms: C_9  and  C_10
REMARK    9  A    between atoms: C_10  and  N_11
REMARK   10  A    between atoms: N_11  and  C_14
REMARK   11  A    between atoms: C_14  and  C_15
REMARK   12  A    between atoms: C_15  and  C_16
REMARK   13  A    between atoms: C_16  and  C_17
REMARK   14  A    between atoms: C_17  and  C_18
REMARK   15  A    between atoms: C_18  and  C_19
REMARK   16  A    between atoms: C_19  and  C_20
REMARK   17  A    between atoms: C_20  and  C_21
REMARK   18  A    between atoms: C_21  and  C_22
REMARK                            x       y       z     vdW  Elec       q    Type
REMARK                         _______ _______ _______ _____ _____    ______ ____
ROOT
ATOM      1  N   UNL     1     -11.251  13.389  65.836  0.00  0.00    +0.306 N 
ATOM      2  C   UNL     1     -10.583  14.344  64.958  0.00  0.00    +0.171 C 
ATOM      3  C   UNL     1     -12.253  12.694  65.073  0.00  0.00    +0.171 C 
ENDROOT
BRANCH   1   4
ATOM      4  C   UNL     1     -10.291  12.500  66.473  0.00  0.00    +0.109 C 
BRANCH   4   5
ATOM      5  C   UNL     1     -11.066  11.207  66.718  0.00  0.00    +0.061 C 
BRANCH   5   6
ATOM      6  C   UNL     1     -10.474  10.580  67.948  0.00  0.00    +0.006 C 
BRANCH   6   7
ATOM      7  C   UNL     1     -10.817  11.321  69.218  0.00  0.00    +0.000 C 
BRANCH   7   8
ATOM      8  C   UNL     1     -12.240  10.920  69.590  0.00  0.00    +0.000 C 
BRANCH   8   9
ATOM      9  C   UNL     1     -12.514  11.159  71.061  0.00  0.00    +0.000 C 
BRANCH   9  10
ATOM     10  C   UNL     1     -12.938   9.874  71.726  0.00  0.00    +0.000 C 
BRANCH  10  11
ATOM     11  C   UNL     1     -11.949   8.811  71.288  0.00  0.00    +0.000 C 
BRANCH  11  13
ATOM     12  C   UNL     1     -10.270   7.937  72.887  0.00  0.00    +0.000 C 
ATOM     13  C   UNL     1     -11.730   7.897  72.478  0.00  0.00    +0.000 C 
ENDBRANCH  11  13
ENDBRANCH  10  11
ENDBRANCH   9  10
ENDBRANCH   8   9
ENDBRANCH   7   8
ENDBRANCH   6   7
ENDBRANCH   5   6
ENDBRANCH   4   5
ENDBRANCH   1   4
BRANCH   1  14
ATOM     14  C   UNL     1     -11.849  14.203  66.893  0.00  0.00    +0.109 C 
BRANCH  14  15
ATOM     15  C   UNL     1     -10.715  15.094  67.393  0.00  0.00    +0.061 C 
BRANCH  15  16
ATOM     16  C   UNL     1     -11.188  16.003  68.509  0.00  0.00    +0.006 C 
BRANCH  16  17
ATOM     17  C   UNL     1     -10.563  15.454  69.787  0.00  0.00    +0.000 C 
BRANCH  17  18
ATOM     18  C   UNL     1     -11.631  14.679  70.533  0.00  0.00    +0.000 C 
BRANCH  18  19
ATOM     19  C   UNL     1     -12.960  15.385  70.525  0.00  0.00    +0.000 C 
BRANCH  19  20
ATOM     20  C   UNL     1     -13.991  14.713  71.391  0.00  0.00    +0.000 C 
BRANCH  20  21
ATOM     21  C   UNL     1     -13.395  14.505  72.773  0.00  0.00    +0.000 C 
BRANCH  21  22
ATOM     22  C   UNL     1     -13.255  15.848  73.442  0.00  0.00    +0.000 C 
ATOM     23  C   UNL     1     -12.374  15.779  74.663  0.00  0.00    +0.000 C 
ENDBRANCH  21  22
ENDBRANCH  20  21
ENDBRANCH  19  20
ENDBRANCH  18  19
ENDBRANCH  17  18
ENDBRANCH  16  17
ENDBRANCH  15  16
ENDBRANCH  14  15
ENDBRANCH   1  14
TORSDOF 18
ENDMDL
MODEL 5
REMARK VINA RESULT:      -4.3      1.425      2.199
REMARK  Name = 
REMARK  18 active torsions:
REMARK  status: ('A' for Active; 'I' for Inactive)
REMARK    1  A    between atoms: C_2  and  C_3
REMARK    2  A    between atoms: C_3  and  C_4
REMARK    3  A    between atoms: C_4  and  C_5
REMARK    4  A    between atoms: C_5  and  C_6
REMARK    5  A    between atoms: C_6  and  C_7
REMARK    6  A    between atoms: C_7  and  C_8
REMARK    7  A    between atoms: C_8  and  C_9
REMARK    8  A    between atoms: C_9  and  C_10
REMARK    9  A    between atoms: C_10  and  N_11
REMARK   10  A    between atoms: N_11  and  C_14
REMARK   11  A    between atoms: C_14  and  C_15
REMARK   12  A    between atoms: C_15  and  C_16
REMARK   13  A    between atoms: C_16  and  C_17
REMARK   14  A    between atoms: C_17  and  C_18
REMARK   15  A    between atoms: C_18  and  C_19
REMARK   16  A    between atoms: C_19  and  C_20
REMARK   17  A    between atoms: C_20  and  C_21
REMARK   18  A    between atoms: C_21  and  C_22
REMARK                            x       y       z     vdW  Elec       q    Type
REMARK                         _______ _______ _______ _____ _____    ______ ____
ROOT
ATOM      1  N   UNL     1     -11.531  13.305  65.162  0.00  0.00    +0.306 N 
ATOM      2  C   UNL     1     -12.718  14.088  65.490  0.00  0.00    +0.171 C 
ATOM      3  C   UNL     1     -11.705  12.745  63.849  0.00  0.00    +0.171 C 
ENDROOT
BRANCH   1   4
ATOM      4  C   UNL     1     -10.321  14.104  65.292  0.00  0.00    +0.109 C 
BRANCH   4   5
ATOM      5  C   UNL     1     -10.785  15.543  65.081  0.00  0.00    +0.061 C 
BRANCH   5   6
ATOM      6  C   UNL     1      -9.941  16.401  65.980  0.00  0.00    +0.006 C 
BRANCH   6   7
ATOM      7  C   UNL     1     -10.432  17.826  66.077  0.00  0.00    +0.000 C 
BRANCH   7   8
ATOM      8  C   UNL     1     -10.047  18.329  67.463  0.00  0.00    +0.000 C 
BRANCH   8   9
ATOM      9  C   UNL     1      -9.304  19.647  67.386  0.00  0.00    +0.000 C 
BRANCH   9  10
ATOM     10  C   UNL     1      -7.819  19.414  67.497  0.00  0.00    +0.000 C 
BRANCH  10  11
ATOM     11  C   UNL     1      -7.195  19.969  66.230  0.00  0.00    +0.000 C 
BRANCH  11  13
ATOM     12  C   UNL     1      -6.468  17.608  66.421  0.00  0.00    +0.000 C 
ATOM     13  C   UNL     1      -6.596  18.793  65.483  0.00  0.00    +0.000 C 
ENDBRANCH  11  13
ENDBRANCH  10  11
ENDBRANCH   9  10
ENDBRANCH   8   9
ENDBRANCH   7   8
ENDBRANCH   6   7
ENDBRANCH   5   6
ENDBRANCH   4   5
ENDBRANCH   1   4
BRANCH   1  14
ATOM     14  C   UNL     1     -11.471  12.264  66.187  0.00  0.00    +0.109 C 
BRANCH  14  15
ATOM     15  C   UNL     1     -10.866  12.949  67.409  0.00  0.00    +0.061 C 
BRANCH  15  16
ATOM     16  C   UNL     1     -11.411  12.356  68.692  0.00  0.00    +0.006 C 
BRANCH  16  17
ATOM     17  C   UNL     1     -12.079  13.509  69.434  0.00  0.00    +0.000 C 
BRANCH  17  18
ATOM     18  C   UNL     1     -11.465  14.802  68.934  0.00  0.00    +0.000 C 
BRANCH  18  19
ATOM     19  C   UNL     1     -11.159  15.759  70.054  0.00  0.00    +0.000 C 
BRANCH  19  20
ATOM     20  C   UNL     1     -11.373  15.161  71.418  0.00  0.00    +0.000 C 
BRANCH  20  21
ATOM     21  C   UNL     1     -12.332  16.054  72.189  0.00  0.00    +0.000 C 
BRANCH  21  22
ATOM     22  C   UNL     1     -13.463  15.206  72.710  0.00  0.00    +0.000 C 
ATOM     23  C   UNL     1     -14.594  15.106  71.718  0.00  0.00    +0.000 C 
ENDBRANCH  21  22
ENDBRANCH  20  21
ENDBRANCH  19  20
ENDBRANCH  18  19
ENDBRANCH  17  18
ENDBRANCH  16  17
ENDBRANCH  15  16
ENDBRANCH  14  15
ENDBRANCH   1  14
TORSDOF 18
ENDMDL
MODEL 6
REMARK VINA RESULT:      -4.3      2.701      6.608
REMARK  Name = 
REMARK  18 active torsions:
REMARK  status: ('A' for Active; 'I' for Inactive)
REMARK    1  A    between atoms: C_2  and  C_3
REMARK    2  A    between atoms: C_3  and  C_4
REMARK    3  A    between atoms: C_4  and  C_5
REMARK    4  A    between atoms: C_5  and  C_6
REMARK    5  A    between atoms: C_6  and  C_7
REMARK    6  A    between atoms: C_7  and  C_8
REMARK    7  A    between atoms: C_8  and  C_9
REMARK    8  A    between atoms: C_9  and  C_10
REMARK    9  A    between atoms: C_10  and  N_11
REMARK   10  A    between atoms: N_11  and  C_14
REMARK   11  A    between atoms: C_14  and  C_15
REMARK   12  A    between atoms: C_15  and  C_16
REMARK   13  A    between atoms: C_16  and  C_17
REMARK   14  A    between atoms: C_17  and  C_18
REMARK   15  A    between atoms: C_18  and  C_19
REMARK   16  A    between atoms: C_19  and  C_20
REMARK   17  A    between atoms: C_20  and  C_21
REMARK   18  A    between atoms: C_21  and  C_22
REMARK                            x       y       z     vdW  Elec       q    Type
REMARK                         _______ _______ _______ _____ _____    ______ ____
ROOT
ATOM      1  N   UNL     1     -12.950  14.967  71.787  0.00  0.00    +0.306 N 
ATOM      2  C   UNL     1     -12.677  14.940  73.220  0.00  0.00    +0.171 C 
ATOM      3  C   UNL     1     -14.354  15.211  71.597  0.00  0.00    +0.171 C 
ENDROOT
BRANCH   1   4
ATOM      4  C   UNL     1     -12.100  15.935  71.109  0.00  0.00    +0.109 C 
BRANCH   4   5
ATOM      5  C   UNL     1     -12.173  15.547  69.634  0.00  0.00    +0.061 C 
BRANCH   5   6
ATOM      6  C   UNL     1     -10.836  15.882  69.036  0.00  0.00    +0.006 C 
BRANCH   6   7
ATOM      7  C   UNL     1      -9.921  14.686  68.916  0.00  0.00    +0.000 C 
BRANCH   7   8
ATOM      8  C   UNL     1     -10.575  13.731  67.924  0.00  0.00    +0.000 C 
BRANCH   8   9
ATOM      9  C   UNL     1     -10.330  14.168  66.494  0.00  0.00    +0.000 C 
BRANCH   9  10
ATOM     10  C   UNL     1     -11.631  14.210  65.733  0.00  0.00    +0.000 C 
BRANCH  10  11
ATOM     11  C   UNL     1     -12.152  12.787  65.681  0.00  0.00    +0.000 C 
BRANCH  11  13
ATOM     12  C   UNL     1     -11.260  12.124  63.466  0.00  0.00    +0.000 C 
ATOM     13  C   UNL     1     -12.512  12.502  64.235  0.00  0.00    +0.000 C 
ENDBRANCH  11  13
ENDBRANCH  10  11
ENDBRANCH   9  10
ENDBRANCH   8   9
ENDBRANCH   7   8
ENDBRANCH   6   7
ENDBRANCH   5   6
ENDBRANCH   4   5
ENDBRANCH   1   4
BRANCH   1  14
ATOM     14  C   UNL     1     -12.563  13.643  71.303  0.00  0.00    +0.109 C 
BRANCH  14  15
ATOM     15  C   UNL     1     -13.442  12.667  72.081  0.00  0.00    +0.061 C 
BRANCH  15  16
ATOM     16  C   UNL     1     -13.118  11.233  71.717  0.00  0.00    +0.006 C 
BRANCH  16  17
ATOM     17  C   UNL     1     -12.185  11.309  70.514  0.00  0.00    +0.000 C 
BRANCH  17  18
ATOM     18  C   UNL     1     -11.330  10.056  70.507  0.00  0.00    +0.000 C 
BRANCH  18  19
ATOM     19  C   UNL     1     -10.131  10.187  69.608  0.00  0.00    +0.000 C 
BRANCH  19  20
ATOM     20  C   UNL     1     -10.166   9.245  68.435  0.00  0.00    +0.000 C 
BRANCH  20  21
ATOM     21  C   UNL     1     -10.768   9.979  67.248  0.00  0.00    +0.000 C 
BRANCH  21  22
ATOM     22  C   UNL     1      -9.875   9.769  66.053  0.00  0.00    +0.000 C 
ATOM     23  C   UNL     1      -8.793  10.816  65.968  0.00  0.00    +0.000 C 
ENDBRANCH  21  22
ENDBRANCH  20  21
ENDBRANCH  19  20
ENDBRANCH  18  19
ENDBRANCH  17  18
ENDBRANCH  16  17
ENDBRANCH  15  16
ENDBRANCH  14  15
ENDBRANCH   1  14
TORSDOF 18
ENDMDL
MODEL 7
REMARK VINA RESULT:      -4.2      2.603      6.108
REMARK  Name = 
REMARK  18 active torsions:
REMARK  status: ('A' for Active; 'I' for Inactive)
REMARK    1  A    between atoms: C_2  and  C_3
REMARK    2  A    between atoms: C_3  and  C_4
REMARK    3  A    between atoms: C_4  and  C_5
REMARK    4  A    between atoms: C_5  and  C_6
REMARK    5  A    between atoms: C_6  and  C_7
REMARK    6  A    between atoms: C_7  and  C_8
REMARK    7  A    between atoms: C_8  and  C_9
REMARK    8  A    between atoms: C_9  and  C_10
REMARK    9  A    between atoms: C_10  and  N_11
REMARK   10  A    between atoms: N_11  and  C_14
REMARK   11  A    between atoms: C_14  and  C_15
REMARK   12  A    between atoms: C_15  and  C_16
REMARK   13  A    between atoms: C_16  and  C_17
REMARK   14  A    between atoms: C_17  and  C_18
REMARK   15  A    between atoms: C_18  and  C_19
REMARK   16  A    between atoms: C_19  and  C_20
REMARK   17  A    between atoms: C_20  and  C_21
REMARK   18  A    between atoms: C_21  and  C_22
REMARK                            x       y       z     vdW  Elec       q    Type
REMARK                         _______ _______ _______ _____ _____    ______ ____
ROOT
ATOM      1  N   UNL     1     -11.212  12.572  64.568  0.00  0.00    +0.306 N 
ATOM      2  C   UNL     1     -10.070  11.858  64.004  0.00  0.00    +0.171 C 
ATOM      3  C   UNL     1     -12.285  12.538  63.611  0.00  0.00    +0.171 C 
ENDROOT
BRANCH   1   4
ATOM      4  C   UNL     1     -11.580  12.029  65.867  0.00  0.00    +0.109 C 
BRANCH   4   5
ATOM      5  C   UNL     1     -10.565  10.919  66.125  0.00  0.00    +0.061 C 
BRANCH   5   6
ATOM      6  C   UNL     1     -10.409  10.818  67.615  0.00  0.00    +0.006 C 
BRANCH   6   7
ATOM      7  C   UNL     1     -11.662  11.188  68.372  0.00  0.00    +0.000 C 
BRANCH   7   8
ATOM      8  C   UNL     1     -11.365  10.963  69.850  0.00  0.00    +0.000 C 
BRANCH   8   9
ATOM      9  C   UNL     1     -12.629  10.658  70.627  0.00  0.00    +0.000 C 
BRANCH   9  10
ATOM     10  C   UNL     1     -12.451   9.396  71.433  0.00  0.00    +0.000 C 
BRANCH  10  11
ATOM     11  C   UNL     1     -13.764   9.150  72.152  0.00  0.00    +0.000 C 
BRANCH  11  13
ATOM     12  C   UNL     1     -13.054   6.890  71.425  0.00  0.00    +0.000 C 
ATOM     13  C   UNL     1     -14.247   7.776  71.730  0.00  0.00    +0.000 C 
ENDBRANCH  11  13
ENDBRANCH  10  11
ENDBRANCH   9  10
ENDBRANCH   8   9
ENDBRANCH   7   8
ENDBRANCH   6   7
ENDBRANCH   5   6
ENDBRANCH   4   5
ENDBRANCH   1   4
BRANCH   1  14
ATOM     14  C   UNL     1     -10.733  13.934  64.791  0.00  0.00    +0.109 C 
BRANCH  14  15
ATOM     15  C   UNL     1     -11.473  14.413  66.037  0.00  0.00    +0.061 C 
BRANCH  15  16
ATOM     16  C   UNL     1     -10.689  15.493  66.755  0.00  0.00    +0.006 C 
BRANCH  16  17
ATOM     17  C   UNL     1      -9.679  14.761  67.633  0.00  0.00    +0.000 C 
BRANCH  17  18
ATOM     18  C   UNL     1     -10.357  14.436  68.951  0.00  0.00    +0.000 C 
BRANCH  18  19
ATOM     19  C   UNL     1     -10.483  15.642  69.841  0.00  0.00    +0.000 C 
BRANCH  19  20
ATOM     20  C   UNL     1     -11.856  15.797  70.436  0.00  0.00    +0.000 C 
BRANCH  20  21
ATOM     21  C   UNL     1     -12.567  14.456  70.356  0.00  0.00    +0.000 C 
BRANCH  21  22
ATOM     22  C   UNL     1     -13.203  14.171  71.692  0.00  0.00    +0.000 C 
ATOM     23  C   UNL     1     -13.948  15.367  72.227  0.00  0.00    +0.000 C 
ENDBRANCH  21  22
ENDBRANCH  20  21
ENDBRANCH  19  20
ENDBRANCH  18  19
ENDBRANCH  17  18
ENDBRANCH  16  17
ENDBRANCH  15  16
ENDBRANCH  14  15
ENDBRANCH   1  14
TORSDOF 18
ENDMDL
MODEL 8
REMARK VINA RESULT:      -4.2      2.714      6.321
REMARK  Name = 
REMARK  18 active torsions:
REMARK  status: ('A' for Active; 'I' for Inactive)
REMARK    1  A    between atoms: C_2  and  C_3
REMARK    2  A    between atoms: C_3  and  C_4
REMARK    3  A    between atoms: C_4  and  C_5
REMARK    4  A    between atoms: C_5  and  C_6
REMARK    5  A    between atoms: C_6  and  C_7
REMARK    6  A    between atoms: C_7  and  C_8
REMARK    7  A    between atoms: C_8  and  C_9
REMARK    8  A    between atoms: C_9  and  C_10
REMARK    9  A    between atoms: C_10  and  N_11
REMARK   10  A    between atoms: N_11  and  C_14
REMARK   11  A    between atoms: C_14  and  C_15
REMARK   12  A    between atoms: C_15  and  C_16
REMARK   13  A    between atoms: C_16  and  C_17
REMARK   14  A    between atoms: C_17  and  C_18
REMARK   15  A    between atoms: C_18  and  C_19
REMARK   16  A    between atoms: C_19  and  C_20
REMARK   17  A    between atoms: C_20  and  C_21
REMARK   18  A    between atoms: C_21  and  C_22
REMARK                            x       y       z     vdW  Elec       q    Type
REMARK                         _______ _______ _______ _____ _____    ______ ____
ROOT
ATOM      1  N   UNL     1     -11.669  13.138  64.958  0.00  0.00    +0.306 N 
ATOM      2  C   UNL     1     -11.971  12.593  63.639  0.00  0.00    +0.171 C 
ATOM      3  C   UNL     1     -12.780  13.948  65.380  0.00  0.00    +0.171 C 
ENDROOT
BRANCH   1   4
ATOM      4  C   UNL     1     -11.337  12.079  65.901  0.00  0.00    +0.109 C 
BRANCH   4   5
ATOM      5  C   UNL     1     -11.720  12.644  67.266  0.00  0.00    +0.061 C 
BRANCH   5   6
ATOM      6  C   UNL     1     -10.851  11.950  68.276  0.00  0.00    +0.006 C 
BRANCH   6   7
ATOM      7  C   UNL     1     -11.523  10.766  68.928  0.00  0.00    +0.000 C 
BRANCH   7   8
ATOM      8  C   UNL     1     -12.020  11.240  70.290  0.00  0.00    +0.000 C 
BRANCH   8   9
ATOM      9  C   UNL     1     -12.006  10.115  71.305  0.00  0.00    +0.000 C 
BRANCH   9  10
ATOM     10  C   UNL     1     -13.408   9.615  71.545  0.00  0.00    +0.000 C 
BRANCH  10  11
ATOM     11  C   UNL     1     -13.280   8.194  72.060  0.00  0.00    +0.000 C 
BRANCH  11  13
ATOM     12  C   UNL     1     -11.791   6.215  71.990  0.00  0.00    +0.000 C 
ATOM     13  C   UNL     1     -11.982   7.640  71.506  0.00  0.00    +0.000 C 
ENDBRANCH  11  13
ENDBRANCH  10  11
ENDBRANCH   9  10
ENDBRANCH   8   9
ENDBRANCH   7   8
ENDBRANCH   6   7
ENDBRANCH   5   6
ENDBRANCH   4   5
ENDBRANCH   1   4
BRANCH   1  14
ATOM     14  C   UNL     1     -10.461  13.939  64.769  0.00  0.00    +0.109 C 
BRANCH  14  15
ATOM     15  C   UNL     1     -10.906  15.382  64.991  0.00  0.00    +0.061 C 
BRANCH  15  16
ATOM     16  C   UNL     1      -9.896  16.141  65.826  0.00  0.00    +0.006 C 
BRANCH  16  17
ATOM     17  C   UNL     1     -10.485  16.214  67.230  0.00  0.00    +0.000 C 
BRANCH  17  18
ATOM     18  C   UNL     1      -9.452  15.669  68.197  0.00  0.00    +0.000 C 
BRANCH  18  19
ATOM     19  C   UNL     1     -10.048  15.327  69.537  0.00  0.00    +0.000 C 
BRANCH  19  20
ATOM     20  C   UNL     1     -11.347  16.037  69.803  0.00  0.00    +0.000 C 
BRANCH  20  21
ATOM     21  C   UNL     1     -12.369  15.010  70.262  0.00  0.00    +0.000 C 
BRANCH  21  22
ATOM     22  C   UNL     1     -13.045  15.528  71.505  0.00  0.00    +0.000 C 
ATOM     23  C   UNL     1     -12.057  16.119  72.477  0.00  0.00    +0.000 C 
ENDBRANCH  21  22
ENDBRANCH  20  21
ENDBRANCH  19  20
ENDBRANCH  18  19
ENDBRANCH  17  18
ENDBRANCH  16  17
ENDBRANCH  15  16
ENDBRANCH  14  15
ENDBRANCH   1  14
TORSDOF 18
ENDMDL
MODEL 9
REMARK VINA RESULT:      -4.1      1.149      2.016
REMARK  Name = 
REMARK  18 active torsions:
REMARK  status: ('A' for Active; 'I' for Inactive)
REMARK    1  A    between atoms: C_2  and  C_3
REMARK    2  A    between atoms: C_3  and  C_4
REMARK    3  A    between atoms: C_4  and  C_5
REMARK    4  A    between atoms: C_5  and  C_6
REMARK    5  A    between atoms: C_6  and  C_7
REMARK    6  A    between atoms: C_7  and  C_8
REMARK    7  A    between atoms: C_8  and  C_9
REMARK    8  A    between atoms: C_9  and  C_10
REMARK    9  A    between atoms: C_10  and  N_11
REMARK   10  A    between atoms: N_11  and  C_14
REMARK   11  A    between atoms: C_14  and  C_15
REMARK   12  A    between atoms: C_15  and  C_16
REMARK   13  A    between atoms: C_16  and  C_17
REMARK   14  A    between atoms: C_17  and  C_18
REMARK   15  A    between atoms: C_18  and  C_19
REMARK   16  A    between atoms: C_19  and  C_20
REMARK   17  A    between atoms: C_20  and  C_21
REMARK   18  A    between atoms: C_21  and  C_22
REMARK                            x       y       z     vdW  Elec       q    Type
REMARK                         _______ _______ _______ _____ _____    ______ ____
ROOT
ATOM      1  N   UNL     1     -10.457  11.156  66.451  0.00  0.00    +0.306 N 
ATOM      2  C   UNL     1     -10.016   9.777  66.273  0.00  0.00    +0.171 C 
ATOM      3  C   UNL     1      -9.322  11.950  66.839  0.00  0.00    +0.171 C 
ENDROOT
BRANCH   1   4
ATOM      4  C   UNL     1     -11.126  11.652  65.257  0.00  0.00    +0.109 C 
BRANCH   4   5
ATOM      5  C   UNL     1     -11.956  12.838  65.743  0.00  0.00    +0.061 C 
BRANCH   5   6
ATOM      6  C   UNL     1     -11.957  13.846  64.630  0.00  0.00    +0.006 C 
BRANCH   6   7
ATOM      7  C   UNL     1     -10.829  14.845  64.730  0.00  0.00    +0.000 C 
BRANCH   7   8
ATOM      8  C   UNL     1     -10.806  15.337  66.173  0.00  0.00    +0.000 C 
BRANCH   8   9
ATOM      9  C   UNL     1      -9.411  15.752  66.592  0.00  0.00    +0.000 C 
BRANCH   9  10
ATOM     10  C   UNL     1      -9.247  17.244  66.448  0.00  0.00    +0.000 C 
BRANCH  10  11
ATOM     11  C   UNL     1     -10.459  17.880  67.101  0.00  0.00    +0.000 C 
BRANCH  11  13
ATOM     12  C   UNL     1      -9.864  20.234  67.594  0.00  0.00    +0.000 C 
ATOM     13  C   UNL     1      -9.939  18.830  68.163  0.00  0.00    +0.000 C 
ENDBRANCH  11  13
ENDBRANCH  10  11
ENDBRANCH   9  10
ENDBRANCH   8   9
ENDBRANCH   7   8
ENDBRANCH   6   7
ENDBRANCH   5   6
ENDBRANCH   4   5
ENDBRANCH   1   4
BRANCH   1  14
ATOM     14  C   UNL     1     -11.461  11.098  67.512  0.00  0.00    +0.109 C 
BRANCH  14  15
ATOM     15  C   UNL     1     -10.763  11.663  68.746  0.00  0.00    +0.061 C 
BRANCH  15  16
ATOM     16  C   UNL     1     -11.771  12.183  69.751  0.00  0.00    +0.006 C 
BRANCH  16  17
ATOM     17  C   UNL     1     -12.050  13.628  69.352  0.00  0.00    +0.000 C 
BRANCH  17  18
ATOM     18  C   UNL     1     -10.772  14.420  69.545  0.00  0.00    +0.000 C 
BRANCH  18  19
ATOM     19  C   UNL     1     -11.019  15.752  70.202  0.00  0.00    +0.000 C 
BRANCH  19  20
ATOM     20  C   UNL     1     -12.312  15.801  70.969  0.00  0.00    +0.000 C 
BRANCH  20  21
ATOM     21  C   UNL     1     -11.992  16.052  72.433  0.00  0.00    +0.000 C 
BRANCH  21  22
ATOM     22  C   UNL     1     -13.028  15.356  73.277  0.00  0.00    +0.000 C 
ATOM     23  C   UNL     1     -13.509  14.079  72.637  0.00  0.00    +0.000 C 
ENDBRANCH  21  22
ENDBRANCH  20  21
ENDBRANCH  19  20
ENDBRANCH  18  19
ENDBRANCH  17  18
ENDBRANCH  16  17
ENDBRANCH  15  16
ENDBRANCH  14  15
ENDBRANCH   1  14
TORSDOF 18
ENDMDL
