MODEL 1
REMARK VINA RESULT:      -5.6      0.000      0.000
REMARK  Name = 
REMARK  4 active torsions:
REMARK  status: ('A' for Active; 'I' for Inactive)
REMARK    1  A    between atoms: C_2  and  N_4
REMARK    2  A    between atoms: N_4  and  C_5
REMARK    3  A    between atoms: C_5  and  C_6
REMARK    4  A    between atoms: C_6  and  C_8
REMARK                            x       y       z     vdW  Elec       q    Type
REMARK                         _______ _______ _______ _____ _____    ______ ____
ROOT
ATOM      1  C   UNL     1     -10.439  14.531  67.033  0.00  0.00    +0.013 A 
ATOM      2  C   UNL     1     -10.525  15.647  66.285  0.00  0.00    +0.044 A 
ATOM      3  C   UNL     1     -11.146  15.622  65.063  0.00  0.00    +0.234 A 
ATOM      4  O   UNL     1     -11.195  16.803  64.331  0.00  0.00    -0.283 OA
ATOM      5  C   UNL     1     -11.834  14.478  64.695  0.00  0.00    +0.234 A 
ATOM      6  O   UNL     1     -12.755  14.679  63.667  0.00  0.00    -0.283 OA
ATOM      7  C   UNL     1     -12.271  13.672  65.738  0.00  0.00    +0.045 A 
ATOM      8  C   UNL     1     -11.478  13.613  66.877  0.00  0.00    +0.002 A 
ENDROOT
BRANCH   1   9
ATOM      9  C   UNL     1     -10.284  14.747  68.668  0.00  0.00    +0.192 C 
ATOM     10  O   UNL     1     -10.859  13.348  69.034  0.00  0.00    -0.217 OA
BRANCH   9  11
ATOM     11  C   UNL     1     -11.824  15.437  68.733  0.00  0.00    +0.126 C 
BRANCH  11  12
ATOM     12  N   UNL     1     -11.787  16.249  69.920  0.00  0.00    -0.216 NA
BRANCH  12  14
ATOM     13  C   UNL     1     -13.536  15.172  70.955  0.00  0.00    +0.019 C 
ATOM     14  C   UNL     1     -12.476  15.664  71.034  0.00  0.00    +0.073 C 
ATOM     15  C   UNL     1     -11.923  16.172  72.330  0.00  0.00    +0.019 C 
ENDBRANCH  12  14
ENDBRANCH  11  12
ENDBRANCH   9  11
ENDBRANCH   1   9
TORSDOF 4
ENDMDL
MODEL 2
REMARK VINA RESULT:      -5.6      2.373      3.091
REMARK  Name = 
REMARK  4 active torsions:
REMARK  status: ('A' for Active; 'I' for Inactive)
REMARK    1  A    between atoms: C_2  and  N_4
REMARK    2  A    between atoms: N_4  and  C_5
REMARK    3  A    between atoms: C_5  and  C_6
REMARK    4  A    between atoms: C_6  and  C_8
REMARK                            x       y       z     vdW  Elec       q    Type
REMARK                         _______ _______ _______ _____ _____    ______ ____
ROOT
ATOM      1  C   UNL     1     -10.455  15.079  67.185  0.00  0.00    +0.013 A 
ATOM      2  C   UNL     1     -10.570  16.026  66.236  0.00  0.00    +0.044 A 
ATOM      3  C   UNL     1     -11.164  15.741  65.033  0.00  0.00    +0.234 A 
ATOM      4  O   UNL     1     -11.244  16.757  64.087  0.00  0.00    -0.283 OA
ATOM      5  C   UNL     1     -11.799  14.520  64.882  0.00  0.00    +0.234 A 
ATOM      6  O   UNL     1     -12.705  14.480  63.824  0.00  0.00    -0.283 OA
ATOM      7  C   UNL     1     -12.225  13.910  66.056  0.00  0.00    +0.045 A 
ATOM      8  C   UNL     1     -11.454  14.105  67.195  0.00  0.00    +0.002 A 
ENDROOT
BRANCH   1   9
ATOM      9  C   UNL     1     -10.344  15.611  68.750  0.00  0.00    +0.192 C 
ATOM     10  O   UNL     1     -11.604  16.520  68.664  0.00  0.00    -0.217 OA
BRANCH   9  11
ATOM     11  C   UNL     1      -9.349  16.882  68.258  0.00  0.00    +0.126 C 
BRANCH  11  12
ATOM     12  N   UNL     1      -9.950  18.042  68.860  0.00  0.00    -0.216 NA
BRANCH  12  14
ATOM     13  C   UNL     1     -10.479  19.669  67.322  0.00  0.00    +0.019 C 
ATOM     14  C   UNL     1      -9.729  19.251  68.120  0.00  0.00    +0.073 C 
ATOM     15  C   UNL     1      -8.280  19.626  68.131  0.00  0.00    +0.019 C 
ENDBRANCH  12  14
ENDBRANCH  11  12
ENDBRANCH   9  11
ENDBRANCH   1   9
TORSDOF 4
ENDMDL
MODEL 3
REMARK VINA RESULT:      -5.4      2.355      3.228
REMARK  Name = 
REMARK  4 active torsions:
REMARK  status: ('A' for Active; 'I' for Inactive)
REMARK    1  A    between atoms: C_2  and  N_4
REMARK    2  A    between atoms: N_4  and  C_5
REMARK    3  A    between atoms: C_5  and  C_6
REMARK    4  A    between atoms: C_6  and  C_8
REMARK                            x       y       z     vdW  Elec       q    Type
REMARK                         _______ _______ _______ _____ _____    ______ ____
ROOT
ATOM      1  C   UNL     1     -11.476  14.487  68.793  0.00  0.00    +0.013 A 
ATOM      2  C   UNL     1     -11.930  14.140  67.575  0.00  0.00    +0.044 A 
ATOM      3  C   UNL     1     -11.844  12.841  67.141  0.00  0.00    +0.234 A 
ATOM      4  O   UNL     1     -12.320  12.546  65.868  0.00  0.00    -0.283 OA
ATOM      5  C   UNL     1     -11.449  11.868  68.043  0.00  0.00    +0.234 A 
ATOM      6  O   UNL     1     -11.783  10.571  67.657  0.00  0.00    -0.283 OA
ATOM      7  C   UNL     1     -11.657  12.165  69.384  0.00  0.00    +0.045 A 
ATOM      8  C   UNL     1     -11.542  13.493  69.771  0.00  0.00    +0.002 A 
ENDROOT
BRANCH   1   9
ATOM      9  C   UNL     1     -12.159  15.829  69.483  0.00  0.00    +0.192 C 
ATOM     10  O   UNL     1     -11.054  16.804  68.982  0.00  0.00    -0.217 OA
BRANCH   9  11
ATOM     11  C   UNL     1     -11.308  15.540  70.912  0.00  0.00    +0.126 C 
BRANCH  11  12
ATOM     12  N   UNL     1     -12.016  16.317  71.896  0.00  0.00    -0.216 NA
BRANCH  12  14
ATOM     13  C   UNL     1     -14.071  15.420  72.411  0.00  0.00    +0.019 C 
ATOM     14  C   UNL     1     -12.937  15.545  72.679  0.00  0.00    +0.073 C 
ATOM     15  C   UNL     1     -12.415  15.339  74.068  0.00  0.00    +0.019 C 
ENDBRANCH  12  14
ENDBRANCH  11  12
ENDBRANCH   9  11
ENDBRANCH   1   9
TORSDOF 4
ENDMDL
MODEL 4
REMARK VINA RESULT:      -5.3      2.742      3.752
REMARK  Name = 
REMARK  4 active torsions:
REMARK  status: ('A' for Active; 'I' for Inactive)
REMARK    1  A    between atoms: C_2  and  N_4
REMARK    2  A    between atoms: N_4  and  C_5
REMARK    3  A    between atoms: C_5  and  C_6
REMARK    4  A    between atoms: C_6  and  C_8
REMARK                            x       y       z     vdW  Elec       q    Type
REMARK                         _______ _______ _______ _____ _____    ______ ____
ROOT
ATOM      1  C   UNL     1     -10.854  15.367  66.389  0.00  0.00    +0.013 A 
ATOM      2  C   UNL     1     -10.986  14.152  66.954  0.00  0.00    +0.044 A 
ATOM      3  C   UNL     1     -11.907  13.255  66.476  0.00  0.00    +0.234 A 
ATOM      4  O   UNL     1     -12.005  12.020  67.107  0.00  0.00    -0.283 OA
ATOM      5  C   UNL     1     -12.570  13.554  65.297  0.00  0.00    +0.234 A 
ATOM      6  O   UNL     1     -13.151  12.447  64.680  0.00  0.00    -0.283 OA
ATOM      7  C   UNL     1     -11.922  14.440  64.446  0.00  0.00    +0.045 A 
ATOM      8  C   UNL     1     -11.151  15.438  65.027  0.00  0.00    +0.002 A 
ENDROOT
BRANCH   1   9
ATOM      9  C   UNL     1      -9.382  16.105  66.559  0.00  0.00    +0.192 C 
ATOM     10  O   UNL     1      -8.692  14.866  67.200  0.00  0.00    -0.217 OA
BRANCH   9  11
ATOM     11  C   UNL     1      -9.836  16.684  68.078  0.00  0.00    +0.126 C 
BRANCH  11  12
ATOM     12  N   UNL     1     -10.786  17.723  67.781  0.00  0.00    -0.216 NA
BRANCH  12  14
ATOM     13  C   UNL     1      -9.805  19.685  68.472  0.00  0.00    +0.019 C 
ATOM     14  C   UNL     1     -10.185  19.011  67.591  0.00  0.00    +0.073 C 
ATOM     15  C   UNL     1     -10.533  19.570  66.246  0.00  0.00    +0.019 C 
ENDBRANCH  12  14
ENDBRANCH  11  12
ENDBRANCH   9  11
ENDBRANCH   1   9
TORSDOF 4
ENDMDL
MODEL 5
REMARK VINA RESULT:      -5.3      2.584      3.587
REMARK  Name = 
REMARK  4 active torsions:
REMARK  status: ('A' for Active; 'I' for Inactive)
REMARK    1  A    between atoms: C_2  and  N_4
REMARK    2  A    between atoms: N_4  and  C_5
REMARK    3  A    between atoms: C_5  and  C_6
REMARK    4  A    between atoms: C_6  and  C_8
REMARK                            x       y       z     vdW  Elec       q    Type
REMARK                         _______ _______ _______ _____ _____    ______ ____
ROOT
ATOM      1  C   UNL     1     -10.681  13.804  66.118  0.00  0.00    +0.013 A 
ATOM      2  C   UNL     1     -11.147  14.707  65.234  0.00  0.00    +0.044 A 
ATOM      3  C   UNL     1     -10.699  16.004  65.260  0.00  0.00    +0.234 A 
ATOM      4  O   UNL     1     -11.225  16.894  64.330  0.00  0.00    -0.283 OA
ATOM      5  C   UNL     1      -9.637  16.320  66.089  0.00  0.00    +0.234 A 
ATOM      6  O   UNL     1      -8.994  17.510  65.755  0.00  0.00    -0.283 OA
ATOM      7  C   UNL     1      -8.799  15.264  66.429  0.00  0.00    +0.045 A 
ATOM      8  C   UNL     1      -9.375  14.008  66.563  0.00  0.00    +0.002 A 
ENDROOT
BRANCH   1   9
ATOM      9  C   UNL     1     -10.746  12.215  65.654  0.00  0.00    +0.192 C 
ATOM     10  O   UNL     1     -12.293  12.109  65.784  0.00  0.00    -0.217 OA
BRANCH   9  11
ATOM     11  C   UNL     1     -10.541  11.728  67.257  0.00  0.00    +0.126 C 
BRANCH  11  12
ATOM     12  N   UNL     1     -11.868  11.798  67.810  0.00  0.00    -0.216 NA
BRANCH  12  14
ATOM     13  C   UNL     1     -11.938  13.050  69.738  0.00  0.00    +0.019 C 
ATOM     14  C   UNL     1     -11.887  11.995  69.230  0.00  0.00    +0.073 C 
ATOM     15  C   UNL     1     -11.363  10.787  69.944  0.00  0.00    +0.019 C 
ENDBRANCH  12  14
ENDBRANCH  11  12
ENDBRANCH   9  11
ENDBRANCH   1   9
TORSDOF 4
ENDMDL
MODEL 6
REMARK VINA RESULT:      -5.2      3.316      5.570
REMARK  Name = 
REMARK  4 active torsions:
REMARK  status: ('A' for Active; 'I' for Inactive)
REMARK    1  A    between atoms: C_2  and  N_4
REMARK    2  A    between atoms: N_4  and  C_5
REMARK    3  A    between atoms: C_5  and  C_6
REMARK    4  A    between atoms: C_6  and  C_8
REMARK                            x       y       z     vdW  Elec       q    Type
REMARK                         _______ _______ _______ _____ _____    ______ ____
ROOT
ATOM      1  C   UNL     1     -11.684  15.519  69.604  0.00  0.00    +0.013 A 
ATOM      2  C   UNL     1     -11.550  16.145  70.788  0.00  0.00    +0.044 A 
ATOM      3  C   UNL     1     -12.275  15.740  71.879  0.00  0.00    +0.234 A 
ATOM      4  O   UNL     1     -12.102  16.433  73.072  0.00  0.00    -0.283 OA
ATOM      5  C   UNL     1     -13.009  14.569  71.787  0.00  0.00    +0.234 A 
ATOM      6  O   UNL     1     -13.361  14.024  73.021  0.00  0.00    -0.283 OA
ATOM      7  C   UNL     1     -12.575  13.656  70.833  0.00  0.00    +0.045 A 
ATOM      8  C   UNL     1     -12.016  14.165  69.668  0.00  0.00    +0.002 A 
ENDROOT
BRANCH   1   9
ATOM      9  C   UNL     1     -10.393  15.607  68.570  0.00  0.00    +0.192 C 
ATOM     10  O   UNL     1      -9.327  15.366  69.679  0.00  0.00    -0.217 OA
BRANCH   9  11
ATOM     11  C   UNL     1     -10.309  17.277  68.801  0.00  0.00    +0.126 C 
BRANCH  11  12
ATOM     12  N   UNL     1     -11.024  17.816  67.674  0.00  0.00    -0.216 NA
BRANCH  12  14
ATOM     13  C   UNL     1     -10.413  19.423  66.146  0.00  0.00    +0.019 C 
ATOM     14  C   UNL     1     -10.556  19.109  67.266  0.00  0.00    +0.073 C 
ATOM     15  C   UNL     1      -9.843  19.798  68.388  0.00  0.00    +0.019 C 
ENDBRANCH  12  14
ENDBRANCH  11  12
ENDBRANCH   9  11
ENDBRANCH   1   9
TORSDOF 4
ENDMDL
MODEL 7
REMARK VINA RESULT:      -5.1      1.912      2.595
REMARK  Name = 
REMARK  4 active torsions:
REMARK  status: ('A' for Active; 'I' for Inactive)
REMARK    1  A    between atoms: C_2  and  N_4
REMARK    2  A    between atoms: N_4  and  C_5
REMARK    3  A    between atoms: C_5  and  C_6
REMARK    4  A    between atoms: C_6  and  C_8
REMARK                            x       y       z     vdW  Elec       q    Type
REMARK                         _______ _______ _______ _____ _____    ______ ____
ROOT
ATOM      1  C   UNL     1     -11.664  12.653  67.217  0.00  0.00    +0.013 A 
ATOM      2  C   UNL     1     -11.065  11.881  66.292  0.00  0.00    +0.044 A 
ATOM      3  C   UNL     1     -11.483  11.905  64.986  0.00  0.00    +0.234 A 
ATOM      4  O   UNL     1     -10.833  11.078  64.077  0.00  0.00    -0.283 OA
ATOM      5  C   UNL     1     -12.408  12.863  64.605  0.00  0.00    +0.234 A 
ATOM      6  O   UNL     1     -12.459  13.085  63.230  0.00  0.00    -0.283 OA
ATOM      7  C   UNL     1     -12.458  14.004  65.396  0.00  0.00    +0.045 A 
ATOM      8  C   UNL     1     -12.199  13.855  66.752  0.00  0.00    +0.002 A 
ENDROOT
BRANCH   1   9
ATOM      9  C   UNL     1     -10.757  13.058  68.542  0.00  0.00    +0.192 C 
ATOM     10  O   UNL     1     -11.243  11.854  69.401  0.00  0.00    -0.217 OA
BRANCH   9  11
ATOM     11  C   UNL     1     -12.014  14.025  69.121  0.00  0.00    +0.126 C 
BRANCH  11  12
ATOM     12  N   UNL     1     -12.233  13.541  70.458  0.00  0.00    -0.216 NA
BRANCH  12  14
ATOM     13  C   UNL     1     -12.984  15.562  71.260  0.00  0.00    +0.019 C 
ATOM     14  C   UNL     1     -13.077  14.393  71.244  0.00  0.00    +0.073 C 
ATOM     15  C   UNL     1     -13.725  13.626  72.355  0.00  0.00    +0.019 C 
ENDBRANCH  12  14
ENDBRANCH  11  12
ENDBRANCH   9  11
ENDBRANCH   1   9
TORSDOF 4
ENDMDL
MODEL 8
REMARK VINA RESULT:      -5.1      2.766      5.552
REMARK  Name = 
REMARK  4 active torsions:
REMARK  status: ('A' for Active; 'I' for Inactive)
REMARK    1  A    between atoms: C_2  and  N_4
REMARK    2  A    between atoms: N_4  and  C_5
REMARK    3  A    between atoms: C_5  and  C_6
REMARK    4  A    between atoms: C_6  and  C_8
REMARK                            x       y       z     vdW  Elec       q    Type
REMARK                         _______ _______ _______ _____ _____    ______ ____
ROOT
ATOM      1  C   UNL     1     -11.543  14.832  69.770  0.00  0.00    +0.013 A 
ATOM      2  C   UNL     1     -11.804  13.518  69.900  0.00  0.00    +0.044 A 
ATOM      3  C   UNL     1     -12.514  13.052  70.978  0.00  0.00    +0.234 A 
ATOM      4  O   UNL     1     -12.743  11.683  71.064  0.00  0.00    -0.283 OA
ATOM      5  C   UNL     1     -13.105  13.970  71.828  0.00  0.00    +0.234 A 
ATOM      6  O   UNL     1     -14.120  13.436  72.620  0.00  0.00    -0.283 OA
ATOM      7  C   UNL     1     -13.371  15.219  71.279  0.00  0.00    +0.045 A 
ATOM      8  C   UNL     1     -12.489  15.698  70.320  0.00  0.00    +0.002 A 
ENDROOT
BRANCH   1   9
ATOM      9  C   UNL     1     -11.283  15.385  68.230  0.00  0.00    +0.192 C 
ATOM     10  O   UNL     1      -9.865  14.756  68.108  0.00  0.00    -0.217 OA
BRANCH   9  11
ATOM     11  C   UNL     1     -10.635  16.818  68.843  0.00  0.00    +0.126 C 
BRANCH  11  12
ATOM     12  N   UNL     1     -10.994  17.806  67.859  0.00  0.00    -0.216 NA
BRANCH  12  14
ATOM     13  C   UNL     1      -9.594  19.380  68.785  0.00  0.00    +0.019 C 
ATOM     14  C   UNL     1     -10.106  18.932  67.830  0.00  0.00    +0.073 C 
ATOM     15  C   UNL     1     -10.293  19.727  66.574  0.00  0.00    +0.019 C 
ENDBRANCH  12  14
ENDBRANCH  11  12
ENDBRANCH   9  11
ENDBRANCH   1   9
TORSDOF 4
ENDMDL
MODEL 9
REMARK VINA RESULT:      -5.1      1.601      2.134
REMARK  Name = 
REMARK  4 active torsions:
REMARK  status: ('A' for Active; 'I' for Inactive)
REMARK    1  A    between atoms: C_2  and  N_4
REMARK    2  A    between atoms: N_4  and  C_5
REMARK    3  A    between atoms: C_5  and  C_6
REMARK    4  A    between atoms: C_6  and  C_8
REMARK                            x       y       z     vdW  Elec       q    Type
REMARK                         _______ _______ _______ _____ _____    ______ ____
ROOT
ATOM      1  C   UNL     1     -10.371  13.181  66.045  0.00  0.00    +0.013 A 
ATOM      2  C   UNL     1      -9.669  14.309  66.258  0.00  0.00    +0.044 A 
ATOM      3  C   UNL     1      -9.914  15.435  65.513  0.00  0.00    +0.234 A 
ATOM      4  O   UNL     1      -9.149  16.567  65.771  0.00  0.00    -0.283 OA
ATOM      5  C   UNL     1     -11.010  15.442  64.668  0.00  0.00    +0.234 A 
ATOM      6  O   UNL     1     -11.418  16.719  64.283  0.00  0.00    -0.283 OA
ATOM      7  C   UNL     1     -12.034  14.562  64.995  0.00  0.00    +0.045 A 
ATOM      8  C   UNL     1     -11.677  13.356  65.584  0.00  0.00    +0.002 A 
ENDROOT
BRANCH   1   9
ATOM      9  C   UNL     1     -10.493  12.134  67.323  0.00  0.00    +0.192 C 
ATOM     10  O   UNL     1     -12.049  12.111  67.319  0.00  0.00    -0.217 OA
BRANCH   9  11
ATOM     11  C   UNL     1     -10.479  13.432  68.401  0.00  0.00    +0.126 C 
BRANCH  11  12
ATOM     12  N   UNL     1     -11.691  13.263  69.158  0.00  0.00    -0.216 NA
BRANCH  12  14
ATOM     13  C   UNL     1     -11.908  15.543  69.381  0.00  0.00    +0.019 C 
ATOM     14  C   UNL     1     -12.144  14.470  69.788  0.00  0.00    +0.073 C 
ATOM     15  C   UNL     1     -12.513  14.219  71.218  0.00  0.00    +0.019 C 
ENDBRANCH  12  14
ENDBRANCH  11  12
ENDBRANCH   9  11
ENDBRANCH   1   9
TORSDOF 4
ENDMDL
