MODEL 1
REMARK VINA RESULT:      -5.2      0.000      0.000
REMARK  Name = 
REMARK  3 active torsions:
REMARK  status: ('A' for Active; 'I' for Inactive)
REMARK    1  A    between atoms: C_3  and  C_5
REMARK    2  A    between atoms: C_8  and  N_9
REMARK    3  A    between atoms: C_15  and  C_16
REMARK                            x       y       z     vdW  Elec       q    Type
REMARK                         _______ _______ _______ _____ _____    ______ ____
ROOT
ATOM      1  C   UNL     1     -12.432  12.907  70.424  0.00  0.00    +0.067 A 
ATOM      2  C   UNL     1     -12.155  11.547  70.383  0.00  0.00    +0.042 A 
ATOM      3  I   UNL     1     -13.150  10.207  71.679  0.00  0.00    -0.042 I 
ATOM      4  C   UNL     1     -11.341  10.991  69.416  0.00  0.00    +0.092 A 
ATOM      5  C   UNL     1     -11.066  11.775  68.303  0.00  0.00    +0.053 A 
ATOM      6  I   UNL     1     -10.112  10.807  66.701  0.00  0.00    -0.041 I 
ATOM      7  C   UNL     1     -11.447  13.112  68.253  0.00  0.00    +0.084 A 
ATOM      8  C   UNL     1     -11.963  13.710  69.395  0.00  0.00    +0.051 A 
ATOM      9  I   UNL     1     -11.657  15.755  69.775  0.00  0.00    -0.041 I 
ENDROOT
BRANCH   1  12
ATOM     10  C   UNL     1     -12.581  15.117  73.452  0.00  0.00    +0.139 C 
ATOM     11  N   UNL     1     -12.205  13.985  72.633  0.00  0.00    -0.200 NA
ATOM     12  C   UNL     1     -13.070  13.466  71.622  0.00  0.00    +0.266 C 
ATOM     13  O   UNL     1     -14.165  14.038  71.468  0.00  0.00    -0.268 OA
ENDBRANCH   1  12
BRANCH   7  14
ATOM     14  N   UNL     1     -10.743  13.939  67.354  0.00  0.00    -0.178 NA
ATOM     15  C   UNL     1     -11.320  14.253  66.080  0.00  0.00    +0.246 C 
ATOM     16  O   UNL     1     -12.564  14.189  66.005  0.00  0.00    -0.273 OA
ATOM     17  C   UNL     1     -10.485  15.154  65.226  0.00  0.00    +0.097 C 
ENDBRANCH   7  14
BRANCH   4  18
ATOM     18  C   UNL     1     -10.471   9.878  69.820  0.00  0.00    +0.389 C 
ATOM     19  O   UNL     1      -9.108  10.143  69.887  0.00  0.00    -0.241 OA
ATOM     20  O   UNL     1     -10.785   8.747  69.339  0.00  0.00    -0.241 OA
ENDBRANCH   4  18
TORSDOF 3
ENDMDL
MODEL 2
REMARK VINA RESULT:      -5.1      1.611      4.531
REMARK  Name = 
REMARK  3 active torsions:
REMARK  status: ('A' for Active; 'I' for Inactive)
REMARK    1  A    between atoms: C_3  and  C_5
REMARK    2  A    between atoms: C_8  and  N_9
REMARK    3  A    between atoms: C_15  and  C_16
REMARK                            x       y       z     vdW  Elec       q    Type
REMARK                         _______ _______ _______ _____ _____    ______ ____
ROOT
ATOM      1  C   UNL     1     -11.763  13.370  69.473  0.00  0.00    +0.067 A 
ATOM      2  C   UNL     1     -11.552  14.131  68.331  0.00  0.00    +0.042 A 
ATOM      3  I   UNL     1     -11.364  16.232  68.458  0.00  0.00    -0.042 I 
ATOM      4  C   UNL     1     -11.313  13.557  67.098  0.00  0.00    +0.092 A 
ATOM      5  C   UNL     1     -10.974  12.210  67.090  0.00  0.00    +0.053 A 
ATOM      6  I   UNL     1     -10.292  11.438  65.259  0.00  0.00    -0.041 I 
ATOM      7  C   UNL     1     -11.045  11.444  68.248  0.00  0.00    +0.084 A 
ATOM      8  C   UNL     1     -11.619  11.994  69.387  0.00  0.00    +0.051 A 
ATOM      9  I   UNL     1     -12.647  10.787  70.768  0.00  0.00    -0.041 I 
ENDROOT
BRANCH   1  12
ATOM     10  C   UNL     1     -11.752  15.990  72.159  0.00  0.00    +0.139 C 
ATOM     11  N   UNL     1     -11.350  14.798  71.444  0.00  0.00    -0.200 NA
ATOM     12  C   UNL     1     -12.279  14.028  70.679  0.00  0.00    +0.266 C 
ATOM     13  O   UNL     1     -13.455  14.434  70.646  0.00  0.00    -0.268 OA
ENDBRANCH   1  12
BRANCH   7  14
ATOM     14  N   UNL     1     -11.156  10.048  68.079  0.00  0.00    -0.178 NA
ATOM     15  C   UNL     1     -10.016   9.213  68.315  0.00  0.00    +0.246 C 
ATOM     16  O   UNL     1      -9.147   9.667  69.086  0.00  0.00    -0.273 OA
ATOM     17  C   UNL     1     -10.268   7.751  68.121  0.00  0.00    +0.097 C 
ENDBRANCH   7  14
BRANCH   4  18
ATOM     18  C   UNL     1     -11.876  14.227  65.917  0.00  0.00    +0.389 C 
ATOM     19  O   UNL     1     -13.039  13.679  65.385  0.00  0.00    -0.241 OA
ATOM     20  O   UNL     1     -11.025  14.633  65.070  0.00  0.00    -0.241 OA
ENDBRANCH   4  18
TORSDOF 3
ENDMDL
MODEL 3
REMARK VINA RESULT:      -5.1      2.926      3.546
REMARK  Name = 
REMARK  3 active torsions:
REMARK  status: ('A' for Active; 'I' for Inactive)
REMARK    1  A    between atoms: C_3  and  C_5
REMARK    2  A    between atoms: C_8  and  N_9
REMARK    3  A    between atoms: C_15  and  C_16
REMARK                            x       y       z     vdW  Elec       q    Type
REMARK                         _______ _______ _______ _____ _____    ______ ____
ROOT
ATOM      1  C   UNL     1     -11.188  10.578  68.621  0.00  0.00    +0.067 A 
ATOM      2  C   UNL     1     -10.523   9.544  67.977  0.00  0.00    +0.042 A 
ATOM      3  I   UNL     1     -10.474   7.607  68.821  0.00  0.00    -0.042 I 
ATOM      4  C   UNL     1      -9.995   9.685  66.709  0.00  0.00    +0.092 A 
ATOM      5  C   UNL     1     -10.424  10.782  65.971  0.00  0.00    +0.053 A 
ATOM      6  I   UNL     1      -9.878  10.803  63.942  0.00  0.00    -0.041 I 
ATOM      7  C   UNL     1     -11.206  11.775  66.549  0.00  0.00    +0.084 A 
ATOM      8  C   UNL     1     -11.423  11.752  67.920  0.00  0.00    +0.051 A 
ATOM      9  I   UNL     1     -11.676  13.536  69.003  0.00  0.00    -0.041 I 
ENDROOT
BRANCH   1  12
ATOM     10  C   UNL     1     -13.135   9.336  71.578  0.00  0.00    +0.139 C 
ATOM     11  N   UNL     1     -12.824  10.143  70.418  0.00  0.00    -0.200 NA
ATOM     12  C   UNL     1     -11.478  10.453  70.054  0.00  0.00    +0.266 C 
ATOM     13  O   UNL     1     -10.576   9.989  70.777  0.00  0.00    -0.268 OA
ENDBRANCH   1  12
BRANCH   7  14
ATOM     14  N   UNL     1     -11.196  13.037  65.918  0.00  0.00    -0.178 NA
ATOM     15  C   UNL     1     -12.186  13.343  64.929  0.00  0.00    +0.246 C 
ATOM     16  O   UNL     1     -13.256  12.705  65.001  0.00  0.00    -0.273 OA
ATOM     17  C   UNL     1     -12.080  14.718  64.350  0.00  0.00    +0.097 C 
ENDBRANCH   7  14
BRANCH   4  18
ATOM     18  C   UNL     1      -8.729   8.998  66.421  0.00  0.00    +0.389 C 
ATOM     19  O   UNL     1      -8.822   7.717  65.887  0.00  0.00    -0.241 OA
ATOM     20  O   UNL     1      -7.815   9.166  67.285  0.00  0.00    -0.241 OA
ENDBRANCH   4  18
TORSDOF 3
ENDMDL
MODEL 4
REMARK VINA RESULT:      -5.1      2.762      5.274
REMARK  Name = 
REMARK  3 active torsions:
REMARK  status: ('A' for Active; 'I' for Inactive)
REMARK    1  A    between atoms: C_3  and  C_5
REMARK    2  A    between atoms: C_8  and  N_9
REMARK    3  A    between atoms: C_15  and  C_16
REMARK                            x       y       z     vdW  Elec       q    Type
REMARK                         _______ _______ _______ _____ _____    ______ ____
ROOT
ATOM      1  C   UNL     1     -10.750  14.623  67.901  0.00  0.00    +0.067 A 
ATOM      2  C   UNL     1     -10.696  15.245  66.661  0.00  0.00    +0.042 A 
ATOM      3  I   UNL     1     -10.147  17.279  66.502  0.00  0.00    -0.042 I 
ATOM      4  C   UNL     1     -10.851  14.546  65.480  0.00  0.00    +0.092 A 
ATOM      5  C   UNL     1     -10.744  13.163  65.552  0.00  0.00    +0.053 A 
ATOM      6  I   UNL     1     -10.649  12.145  63.717  0.00  0.00    -0.041 I 
ATOM      7  C   UNL     1     -10.662  12.512  66.778  0.00  0.00    +0.084 A 
ATOM      8  C   UNL     1     -10.854  13.241  67.944  0.00  0.00    +0.051 A 
ATOM      9  I   UNL     1     -11.707  12.349  69.646  0.00  0.00    -0.041 I 
ENDROOT
BRANCH   1  12
ATOM     10  C   UNL     1     -12.459  15.894  70.990  0.00  0.00    +0.139 C 
ATOM     11  N   UNL     1     -12.169  15.746  69.579  0.00  0.00    -0.200 NA
ATOM     12  C   UNL     1     -10.853  15.451  69.107  0.00  0.00    +0.266 C 
ATOM     13  O   UNL     1      -9.962  15.317  69.967  0.00  0.00    -0.268 OA
ENDBRANCH   1  12
BRANCH   7  14
ATOM     14  N   UNL     1     -11.033  11.151  66.799  0.00  0.00    -0.178 NA
ATOM     15  C   UNL     1     -10.019  10.141  66.872  0.00  0.00    +0.246 C 
ATOM     16  O   UNL     1      -8.931  10.485  67.376  0.00  0.00    -0.273 OA
ATOM     17  C   UNL     1     -10.541   8.739  66.907  0.00  0.00    +0.097 C 
ENDBRANCH   7  14
BRANCH   4  18
ATOM     18  C   UNL     1     -11.562  15.217  64.383  0.00  0.00    +0.389 C 
ATOM     19  O   UNL     1     -11.255  16.557  64.168  0.00  0.00    -0.241 OA
ATOM     20  O   UNL     1     -12.788  14.911  64.268  0.00  0.00    -0.241 OA
ENDBRANCH   4  18
TORSDOF 3
ENDMDL
MODEL 5
REMARK VINA RESULT:      -5.1      2.726      6.211
REMARK  Name = 
REMARK  3 active torsions:
REMARK  status: ('A' for Active; 'I' for Inactive)
REMARK    1  A    between atoms: C_3  and  C_5
REMARK    2  A    between atoms: C_8  and  N_9
REMARK    3  A    between atoms: C_15  and  C_16
REMARK                            x       y       z     vdW  Elec       q    Type
REMARK                         _______ _______ _______ _____ _____    ______ ____
ROOT
ATOM      1  C   UNL     1     -10.857  12.030  68.049  0.00  0.00    +0.067 A 
ATOM      2  C   UNL     1     -11.199  13.358  68.260  0.00  0.00    +0.042 A 
ATOM      3  I   UNL     1     -11.147  14.748  66.669  0.00  0.00    -0.042 I 
ATOM      4  C   UNL     1     -11.721  13.803  69.459  0.00  0.00    +0.092 A 
ATOM      5  C   UNL     1     -12.192  12.832  70.335  0.00  0.00    +0.053 A 
ATOM      6  I   UNL     1     -13.278  13.528  71.992  0.00  0.00    -0.041 I 
ATOM      7  C   UNL     1     -11.982  11.479  70.087  0.00  0.00    +0.084 A 
ATOM      8  C   UNL     1     -11.153  11.105  69.039  0.00  0.00    +0.051 A 
ATOM      9  I   UNL     1     -10.012   9.342  69.142  0.00  0.00    -0.041 I 
ENDROOT
BRANCH   1  12
ATOM     10  C   UNL     1     -10.277  11.634  64.363  0.00  0.00    +0.139 C 
ATOM     11  N   UNL     1     -10.779  11.324  65.685  0.00  0.00    -0.200 NA
ATOM     12  C   UNL     1     -10.060  11.680  66.867  0.00  0.00    +0.266 C 
ATOM     13  O   UNL     1      -8.981  12.281  66.712  0.00  0.00    -0.268 OA
ENDBRANCH   1  12
BRANCH   7  14
ATOM     14  N   UNL     1     -12.047  10.615  71.200  0.00  0.00    -0.178 NA
ATOM     15  C   UNL     1     -13.223   9.825  71.417  0.00  0.00    +0.246 C 
ATOM     16  O   UNL     1     -13.915   9.576  70.410  0.00  0.00    -0.273 OA
ATOM     17  C   UNL     1     -13.160   8.935  72.617  0.00  0.00    +0.097 C 
ENDBRANCH   7  14
BRANCH   4  18
ATOM     18  C   UNL     1     -11.324  15.140  69.917  0.00  0.00    +0.389 C 
ATOM     19  O   UNL     1     -12.119  16.204  69.502  0.00  0.00    -0.241 OA
ATOM     20  O   UNL     1     -10.075  15.361  69.922  0.00  0.00    -0.241 OA
ENDBRANCH   4  18
TORSDOF 3
ENDMDL
MODEL 6
REMARK VINA RESULT:      -4.8      3.211      6.108
REMARK  Name = 
REMARK  3 active torsions:
REMARK  status: ('A' for Active; 'I' for Inactive)
REMARK    1  A    between atoms: C_3  and  C_5
REMARK    2  A    between atoms: C_8  and  N_9
REMARK    3  A    between atoms: C_15  and  C_16
REMARK                            x       y       z     vdW  Elec       q    Type
REMARK                         _______ _______ _______ _____ _____    ______ ____
ROOT
ATOM      1  C   UNL     1     -10.832  10.232  68.595  0.00  0.00    +0.067 A 
ATOM      2  C   UNL     1     -10.252   9.441  67.612  0.00  0.00    +0.042 A 
ATOM      3  I   UNL     1      -9.599  10.293  65.792  0.00  0.00    -0.042 I 
ATOM      4  C   UNL     1      -9.945   8.112  67.824  0.00  0.00    +0.092 A 
ATOM      5  C   UNL     1      -9.936   7.673  69.143  0.00  0.00    +0.053 A 
ATOM      6  I   UNL     1      -9.148   5.755  69.476  0.00  0.00    -0.041 I 
ATOM      7  C   UNL     1     -10.387   8.491  70.174  0.00  0.00    +0.084 A 
ATOM      8  C   UNL     1     -11.004   9.695  69.862  0.00  0.00    +0.051 A 
ATOM      9  I   UNL     1     -12.511  10.486  71.094  0.00  0.00    -0.041 I 
ENDROOT
BRANCH   1  12
ATOM     10  C   UNL     1     -10.578  13.829  67.558  0.00  0.00    +0.139 C 
ATOM     11  N   UNL     1     -10.542  12.678  68.435  0.00  0.00    -0.200 NA
ATOM     12  C   UNL     1     -11.380  11.541  68.221  0.00  0.00    +0.266 C 
ATOM     13  O   UNL     1     -12.141  11.578  67.237  0.00  0.00    -0.268 OA
ENDBRANCH   1  12
BRANCH   7  14
ATOM     14  N   UNL     1     -10.792   7.846  71.361  0.00  0.00    -0.178 NA
ATOM     15  C   UNL     1      -9.903   7.805  72.485  0.00  0.00    +0.246 C 
ATOM     16  O   UNL     1      -9.043   8.706  72.543  0.00  0.00    -0.273 OA
ATOM     17  C   UNL     1     -10.457   7.112  73.689  0.00  0.00    +0.097 C 
ENDBRANCH   7  14
BRANCH   4  18
ATOM     18  C   UNL     1     -10.120   7.186  66.697  0.00  0.00    +0.389 C 
ATOM     19  O   UNL     1     -11.231   6.351  66.742  0.00  0.00    -0.241 OA
ATOM     20  O   UNL     1      -9.053   6.655  66.264  0.00  0.00    -0.241 OA
ENDBRANCH   4  18
TORSDOF 3
ENDMDL
MODEL 7
REMARK VINA RESULT:      -4.8      2.683      4.879
REMARK  Name = 
REMARK  3 active torsions:
REMARK  status: ('A' for Active; 'I' for Inactive)
REMARK    1  A    between atoms: C_3  and  C_5
REMARK    2  A    between atoms: C_8  and  N_9
REMARK    3  A    between atoms: C_15  and  C_16
REMARK                            x       y       z     vdW  Elec       q    Type
REMARK                         _______ _______ _______ _____ _____    ______ ____
ROOT
ATOM      1  C   UNL     1     -11.208  13.002  68.520  0.00  0.00    +0.067 A 
ATOM      2  C   UNL     1     -11.773  12.616  69.728  0.00  0.00    +0.042 A 
ATOM      3  I   UNL     1     -11.835  10.579  70.285  0.00  0.00    -0.042 I 
ATOM      4  C   UNL     1     -12.183  13.534  70.675  0.00  0.00    +0.092 A 
ATOM      5  C   UNL     1     -11.724  14.837  70.523  0.00  0.00    +0.053 A 
ATOM      6  I   UNL     1     -12.076  16.136  72.137  0.00  0.00    -0.041 I 
ATOM      7  C   UNL     1     -11.035  15.228  69.380  0.00  0.00    +0.084 A 
ATOM      8  C   UNL     1     -10.949  14.348  68.310  0.00  0.00    +0.051 A 
ATOM      9  I   UNL     1     -10.862  15.059  66.333  0.00  0.00    -0.041 I 
ENDROOT
BRANCH   1  12
ATOM     10  C   UNL     1      -9.725   9.923  66.971  0.00  0.00    +0.139 C 
ATOM     11  N   UNL     1      -9.808  11.301  67.407  0.00  0.00    -0.200 NA
ATOM     12  C   UNL     1     -11.052  12.001  67.458  0.00  0.00    +0.266 C 
ATOM     13  O   UNL     1     -12.070  11.369  67.118  0.00  0.00    -0.268 OA
ENDBRANCH   1  12
BRANCH   7  14
ATOM     14  N   UNL     1     -11.030  16.607  69.085  0.00  0.00    -0.178 NA
ATOM     15  C   UNL     1      -9.792  17.329  69.095  0.00  0.00    +0.246 C 
ATOM     16  O   UNL     1      -8.759  16.658  68.899  0.00  0.00    -0.273 OA
ATOM     17  C   UNL     1      -9.916  18.778  68.745  0.00  0.00    +0.097 C 
ENDBRANCH   7  14
BRANCH   4  18
ATOM     18  C   UNL     1     -13.391  13.218  71.448  0.00  0.00    +0.389 C 
ATOM     19  O   UNL     1     -14.463  14.094  71.317  0.00  0.00    -0.241 OA
ATOM     20  O   UNL     1     -13.183  12.780  72.620  0.00  0.00    -0.241 OA
ENDBRANCH   4  18
TORSDOF 3
ENDMDL
MODEL 8
REMARK VINA RESULT:      -4.7      3.597      5.285
REMARK  Name = 
REMARK  3 active torsions:
REMARK  status: ('A' for Active; 'I' for Inactive)
REMARK    1  A    between atoms: C_3  and  C_5
REMARK    2  A    between atoms: C_8  and  N_9
REMARK    3  A    between atoms: C_15  and  C_16
REMARK                            x       y       z     vdW  Elec       q    Type
REMARK                         _______ _______ _______ _____ _____    ______ ____
ROOT
ATOM      1  C   UNL     1      -9.596  14.867  66.943  0.00  0.00    +0.067 A 
ATOM      2  C   UNL     1     -10.533  13.844  66.894  0.00  0.00    +0.042 A 
ATOM      3  I   UNL     1     -12.216  13.988  65.624  0.00  0.00    -0.042 I 
ATOM      4  C   UNL     1     -10.345  12.641  67.546  0.00  0.00    +0.092 A 
ATOM      5  C   UNL     1      -9.057  12.363  67.987  0.00  0.00    +0.053 A 
ATOM      6  I   UNL     1      -8.715  10.407  68.672  0.00  0.00    -0.041 I 
ATOM      7  C   UNL     1      -8.055  13.325  67.928  0.00  0.00    +0.084 A 
ATOM      8  C   UNL     1      -8.387  14.627  67.578  0.00  0.00    +0.051 A 
ATOM      9  I   UNL     1      -7.319  16.261  68.358  0.00  0.00    -0.041 I 
ENDROOT
BRANCH   1  12
ATOM     10  C   UNL     1     -10.444  18.496  67.378  0.00  0.00    +0.139 C 
ATOM     11  N   UNL     1     -10.631  17.061  67.399  0.00  0.00    -0.200 NA
ATOM     12  C   UNL     1      -9.976  16.201  66.465  0.00  0.00    +0.266 C 
ATOM     13  O   UNL     1      -9.224  16.742  65.632  0.00  0.00    -0.268 OA
ENDBRANCH   1  12
BRANCH   7  14
ATOM     14  N   UNL     1      -6.958  13.151  68.799  0.00  0.00    -0.178 NA
ATOM     15  C   UNL     1      -5.706  12.689  68.277  0.00  0.00    +0.246 C 
ATOM     16  O   UNL     1      -5.496  12.908  67.067  0.00  0.00    -0.273 OA
ATOM     17  C   UNL     1      -4.617  12.565  69.296  0.00  0.00    +0.097 C 
ENDBRANCH   7  14
BRANCH   4  18
ATOM     18  C   UNL     1     -11.527  11.996  68.134  0.00  0.00    +0.389 C 
ATOM     19  O   UNL     1     -11.682  12.114  69.511  0.00  0.00    -0.241 OA
ATOM     20  O   UNL     1     -11.823  10.864  67.645  0.00  0.00    -0.241 OA
ENDBRANCH   4  18
TORSDOF 3
ENDMDL
MODEL 9
REMARK VINA RESULT:      -4.7      3.387      5.672
REMARK  Name = 
REMARK  3 active torsions:
REMARK  status: ('A' for Active; 'I' for Inactive)
REMARK    1  A    between atoms: C_3  and  C_5
REMARK    2  A    between atoms: C_8  and  N_9
REMARK    3  A    between atoms: C_15  and  C_16
REMARK                            x       y       z     vdW  Elec       q    Type
REMARK                         _______ _______ _______ _____ _____    ______ ____
ROOT
ATOM      1  C   UNL     1     -11.067   9.983  68.787  0.00  0.00    +0.067 A 
ATOM      2  C   UNL     1     -11.328   9.667  70.113  0.00  0.00    +0.042 A 
ATOM      3  I   UNL     1     -12.687  10.821  71.248  0.00  0.00    -0.042 I 
ATOM      4  C   UNL     1     -10.836   8.520  70.706  0.00  0.00    +0.092 A 
ATOM      5  C   UNL     1     -10.344   7.537  69.857  0.00  0.00    +0.053 A 
ATOM      6  I   UNL     1      -9.914   5.681  70.739  0.00  0.00    -0.041 I 
ATOM      7  C   UNL     1     -10.194   7.775  68.495  0.00  0.00    +0.084 A 
ATOM      8  C   UNL     1     -10.384   9.062  68.008  0.00  0.00    +0.051 A 
ATOM      9  I   UNL     1      -9.307   9.755  66.341  0.00  0.00    -0.041 I 
ENDROOT
BRANCH   1  12
ATOM     10  C   UNL     1     -10.196  13.431  67.590  0.00  0.00    +0.139 C 
ATOM     11  N   UNL     1     -10.398  12.345  68.525  0.00  0.00    -0.200 NA
ATOM     12  C   UNL     1     -11.382  11.333  68.304  0.00  0.00    +0.266 C 
ATOM     13  O   UNL     1     -12.056  11.420  67.261  0.00  0.00    -0.268 OA
ENDBRANCH   1  12
BRANCH   7  14
ATOM     14  N   UNL     1      -9.277   6.954  67.806  0.00  0.00    -0.178 NA
ATOM     15  C   UNL     1      -9.759   5.848  67.032  0.00  0.00    +0.246 C 
ATOM     16  O   UNL     1     -10.933   5.932  66.619  0.00  0.00    -0.273 OA
ATOM     17  C   UNL     1      -8.691   5.067  66.333  0.00  0.00    +0.097 C 
ENDBRANCH   7  14
BRANCH   4  18
ATOM     18  C   UNL     1     -10.434   8.605  72.117  0.00  0.00    +0.389 C 
ATOM     19  O   UNL     1      -9.071   8.723  72.370  0.00  0.00    -0.241 OA
ATOM     20  O   UNL     1     -11.074   7.847  72.907  0.00  0.00    -0.241 OA
ENDBRANCH   4  18
TORSDOF 3
ENDMDL
