MODEL 1
REMARK VINA RESULT:      -6.4      0.000      0.000
REMARK  Name = 
REMARK  4 active torsions:
REMARK  status: ('A' for Active; 'I' for Inactive)
REMARK    1  A    between atoms: C_2  and  C_4
REMARK    2  A    between atoms: N_6  and  C_7
REMARK    3  A    between atoms: C_10  and  N_11
REMARK    4  A    between atoms: C_14  and  C_15
REMARK                            x       y       z     vdW  Elec       q    Type
REMARK                         _______ _______ _______ _____ _____    ______ ____
ROOT
ATOM      1  C   UNL     1     -11.310  15.882  69.632  0.00  0.00    +0.074 A 
ATOM      2  C   UNL     1     -11.670  16.291  70.911  0.00  0.00    +0.027 A 
ATOM      3  C   UNL     1     -12.494  15.507  71.708  0.00  0.00    +0.142 A 
ATOM      4  C   UNL     1     -12.692  14.203  71.339  0.00  0.00    +0.294 A 
ATOM      5  C   UNL     1     -12.430  13.792  70.038  0.00  0.00    +0.077 A 
ATOM      6  C   UNL     1     -11.955  14.738  69.174  0.00  0.00    +0.023 A 
ENDROOT
BRANCH   3   7
ATOM      7  C   UNL     1     -12.631  15.865  73.137  0.00  0.00    +0.424 C 
ATOM      8  F   UNL     1     -12.252  14.803  73.917  0.00  0.00    -0.166 F 
ATOM      9  F   UNL     1     -11.841  16.984  73.369  0.00  0.00    -0.166 F 
ATOM     10  F   UNL     1     -13.939  16.218  73.405  0.00  0.00    -0.166 F 
ENDBRANCH   3   7
BRANCH   1  12
ATOM     11  C   UNL     1      -9.339  17.000  68.601  0.00  0.00    +0.245 C 
ATOM     12  N   UNL     1     -10.748  16.817  68.703  0.00  0.00    -0.179 NA
ATOM     13  O   UNL     1      -8.624  16.070  69.069  0.00  0.00    -0.273 OA
BRANCH  11  15
ATOM     14  C   UNL     1      -8.511  18.405  66.836  0.00  0.00    +0.010 C 
ATOM     15  C   UNL     1      -8.717  18.334  68.339  0.00  0.00    +0.079 C 
ATOM     16  C   UNL     1      -9.744  19.392  68.710  0.00  0.00    +0.010 C 
ENDBRANCH  11  15
ENDBRANCH   1  12
BRANCH   4  17
ATOM     17  N   UNL     1     -13.371  13.243  72.159  0.00  0.00    +0.081 N 
ATOM     18  O   UNL     1     -14.708  13.506  72.405  0.00  0.00    -0.576 OA
ATOM     19  O   UNL     1     -13.080  12.026  72.042  0.00  0.00    +0.041 OA
ENDBRANCH   4  17
TORSDOF 4
ENDMDL
MODEL 2
REMARK VINA RESULT:      -6.1      3.889      6.590
REMARK  Name = 
REMARK  4 active torsions:
REMARK  status: ('A' for Active; 'I' for Inactive)
REMARK    1  A    between atoms: C_2  and  C_4
REMARK    2  A    between atoms: N_6  and  C_7
REMARK    3  A    between atoms: C_10  and  N_11
REMARK    4  A    between atoms: C_14  and  C_15
REMARK                            x       y       z     vdW  Elec       q    Type
REMARK                         _______ _______ _______ _____ _____    ______ ____
ROOT
ATOM      1  C   UNL     1     -11.560  15.797  69.401  0.00  0.00    +0.074 A 
ATOM      2  C   UNL     1     -11.660  15.004  68.263  0.00  0.00    +0.027 A 
ATOM      3  C   UNL     1     -10.763  15.143  67.213  0.00  0.00    +0.142 A 
ATOM      4  C   UNL     1      -9.610  15.846  67.442  0.00  0.00    +0.294 A 
ATOM      5  C   UNL     1      -9.520  16.718  68.520  0.00  0.00    +0.077 A 
ATOM      6  C   UNL     1     -10.616  16.815  69.331  0.00  0.00    +0.023 A 
ENDROOT
BRANCH   3   7
ATOM      7  C   UNL     1     -10.760  14.110  66.153  0.00  0.00    +0.424 C 
ATOM      8  F   UNL     1      -9.738  13.224  66.375  0.00  0.00    -0.166 F 
ATOM      9  F   UNL     1     -12.000  13.485  66.173  0.00  0.00    -0.166 F 
ATOM     10  F   UNL     1     -10.618  14.711  64.917  0.00  0.00    -0.166 F 
ENDBRANCH   3   7
BRANCH   1  12
ATOM     11  C   UNL     1     -12.558  15.357  71.639  0.00  0.00    +0.245 C 
ATOM     12  N   UNL     1     -12.655  15.888  70.320  0.00  0.00    -0.179 NA
ATOM     13  O   UNL     1     -11.389  15.155  72.071  0.00  0.00    -0.273 OA
BRANCH  11  15
ATOM     14  C   UNL     1     -14.943  15.084  71.528  0.00  0.00    +0.010 C 
ATOM     15  C   UNL     1     -13.711  14.704  72.331  0.00  0.00    +0.079 C 
ATOM     16  C   UNL     1     -13.525  13.201  72.198  0.00  0.00    +0.010 C 
ENDBRANCH  11  15
ENDBRANCH   1  12
BRANCH   4  17
ATOM     17  N   UNL     1      -8.526  15.916  66.507  0.00  0.00    +0.081 N 
ATOM     18  O   UNL     1      -8.479  17.062  65.730  0.00  0.00    -0.576 OA
ATOM     19  O   UNL     1      -7.406  15.447  66.834  0.00  0.00    +0.041 OA
ENDBRANCH   4  17
TORSDOF 4
ENDMDL
MODEL 3
REMARK VINA RESULT:      -6.1      5.233      5.994
REMARK  Name = 
REMARK  4 active torsions:
REMARK  status: ('A' for Active; 'I' for Inactive)
REMARK    1  A    between atoms: C_2  and  C_4
REMARK    2  A    between atoms: N_6  and  C_7
REMARK    3  A    between atoms: C_10  and  N_11
REMARK    4  A    between atoms: C_14  and  C_15
REMARK                            x       y       z     vdW  Elec       q    Type
REMARK                         _______ _______ _______ _____ _____    ______ ____
ROOT
ATOM      1  C   UNL     1     -10.013  15.664  66.815  0.00  0.00    +0.074 A 
ATOM      2  C   UNL     1     -10.821  15.288  65.748  0.00  0.00    +0.027 A 
ATOM      3  C   UNL     1     -11.033  13.948  65.449  0.00  0.00    +0.142 A 
ATOM      4  C   UNL     1     -10.690  13.017  66.393  0.00  0.00    +0.294 A 
ATOM      5  C   UNL     1      -9.809  13.344  67.416  0.00  0.00    +0.077 A 
ATOM      6  C   UNL     1      -9.330  14.624  67.436  0.00  0.00    +0.023 A 
ENDROOT
BRANCH   3   7
ATOM      7  C   UNL     1     -12.094  13.608  64.476  0.00  0.00    +0.424 C 
ATOM      8  F   UNL     1     -13.106  12.937  65.112  0.00  0.00    -0.166 F 
ATOM      9  F   UNL     1     -12.539  14.794  63.906  0.00  0.00    -0.166 F 
ATOM     10  F   UNL     1     -11.565  12.834  63.461  0.00  0.00    -0.166 F 
ENDBRANCH   3   7
BRANCH   1  12
ATOM     11  C   UNL     1     -10.190  17.964  67.751  0.00  0.00    +0.245 C 
ATOM     12  N   UNL     1      -9.533  17.010  66.922  0.00  0.00    -0.179 NA
ATOM     13  O   UNL     1     -10.948  17.494  68.644  0.00  0.00    -0.273 OA
BRANCH  11  15
ATOM     14  C   UNL     1      -8.939  20.009  67.590  0.00  0.00    +0.010 C 
ATOM     15  C   UNL     1     -10.316  19.406  67.376  0.00  0.00    +0.079 C 
ATOM     16  C   UNL     1     -10.611  19.461  65.885  0.00  0.00    +0.010 C 
ENDBRANCH  11  15
ENDBRANCH   1  12
BRANCH   4  17
ATOM     17  N   UNL     1     -11.015  11.625  66.287  0.00  0.00    +0.081 N 
ATOM     18  O   UNL     1     -10.051  10.830  65.691  0.00  0.00    -0.576 OA
ATOM     19  O   UNL     1     -11.658  11.076  67.217  0.00  0.00    +0.041 OA
ENDBRANCH   4  17
TORSDOF 4
ENDMDL
MODEL 4
REMARK VINA RESULT:      -6.0      5.448      7.167
REMARK  Name = 
REMARK  4 active torsions:
REMARK  status: ('A' for Active; 'I' for Inactive)
REMARK    1  A    between atoms: C_2  and  C_4
REMARK    2  A    between atoms: N_6  and  C_7
REMARK    3  A    between atoms: C_10  and  N_11
REMARK    4  A    between atoms: C_14  and  C_15
REMARK                            x       y       z     vdW  Elec       q    Type
REMARK                         _______ _______ _______ _____ _____    ______ ____
ROOT
ATOM      1  C   UNL     1      -9.267  16.478  66.038  0.00  0.00    +0.074 A 
ATOM      2  C   UNL     1      -9.964  17.519  66.640  0.00  0.00    +0.027 A 
ATOM      3  C   UNL     1      -9.303  18.482  67.392  0.00  0.00    +0.142 A 
ATOM      4  C   UNL     1      -7.941  18.564  67.278  0.00  0.00    +0.294 A 
ATOM      5  C   UNL     1      -7.212  17.497  66.766  0.00  0.00    +0.077 A 
ATOM      6  C   UNL     1      -7.921  16.395  66.376  0.00  0.00    +0.023 A 
ENDROOT
BRANCH   3   7
ATOM      7  C   UNL     1     -10.051  19.695  67.789  0.00  0.00    +0.424 C 
ATOM      8  F   UNL     1      -9.500  20.796  67.185  0.00  0.00    -0.166 F 
ATOM      9  F   UNL     1     -11.378  19.511  67.419  0.00  0.00    -0.166 F 
ATOM     10  F   UNL     1     -10.020  19.833  69.164  0.00  0.00    -0.166 F 
ENDBRANCH   3   7
BRANCH   1  12
ATOM     11  C   UNL     1     -11.126  15.453  64.738  0.00  0.00    +0.245 C 
ATOM     12  N   UNL     1      -9.964  15.325  65.552  0.00  0.00    -0.179 NA
ATOM     13  O   UNL     1     -11.285  16.570  64.171  0.00  0.00    -0.273 OA
BRANCH  11  15
ATOM     14  C   UNL     1     -11.951  13.343  63.937  0.00  0.00    +0.010 C 
ATOM     15  C   UNL     1     -12.288  14.517  64.839  0.00  0.00    +0.079 C 
ATOM     16  C   UNL     1     -12.326  13.998  66.268  0.00  0.00    +0.010 C 
ENDBRANCH  11  15
ENDBRANCH   1  12
BRANCH   4  17
ATOM     17  N   UNL     1      -7.159  19.616  67.857  0.00  0.00    +0.081 N 
ATOM     18  O   UNL     1      -6.788  19.428  69.178  0.00  0.00    -0.576 OA
ATOM     19  O   UNL     1      -6.310  20.208  67.144  0.00  0.00    +0.041 OA
ENDBRANCH   4  17
TORSDOF 4
ENDMDL
MODEL 5
REMARK VINA RESULT:      -6.0      5.993      8.124
REMARK  Name = 
REMARK  4 active torsions:
REMARK  status: ('A' for Active; 'I' for Inactive)
REMARK    1  A    between atoms: C_2  and  C_4
REMARK    2  A    between atoms: N_6  and  C_7
REMARK    3  A    between atoms: C_10  and  N_11
REMARK    4  A    between atoms: C_14  and  C_15
REMARK                            x       y       z     vdW  Elec       q    Type
REMARK                         _______ _______ _______ _____ _____    ______ ____
ROOT
ATOM      1  C   UNL     1     -11.664  12.242  67.660  0.00  0.00    +0.074 A 
ATOM      2  C   UNL     1     -11.561  11.813  66.342  0.00  0.00    +0.027 A 
ATOM      3  C   UNL     1     -11.670  12.709  65.286  0.00  0.00    +0.142 A 
ATOM      4  C   UNL     1     -11.572  14.046  65.567  0.00  0.00    +0.294 A 
ATOM      5  C   UNL     1     -11.765  14.510  66.862  0.00  0.00    +0.077 A 
ATOM      6  C   UNL     1     -12.033  13.573  67.821  0.00  0.00    +0.023 A 
ENDROOT
BRANCH   3   7
ATOM      7  C   UNL     1     -11.299  12.244  63.932  0.00  0.00    +0.424 C 
ATOM      8  F   UNL     1     -12.260  12.627  63.033  0.00  0.00    -0.166 F 
ATOM      9  F   UNL     1     -10.058  12.787  63.625  0.00  0.00    -0.166 F 
ATOM     10  F   UNL     1     -11.160  10.869  63.934  0.00  0.00    -0.166 F 
ENDBRANCH   3   7
BRANCH   1  12
ATOM     11  C   UNL     1     -10.803  10.558  69.278  0.00  0.00    +0.245 C 
ATOM     12  N   UNL     1     -11.882  11.298  68.715  0.00  0.00    -0.179 NA
ATOM     13  O   UNL     1      -9.647  11.028  69.083  0.00  0.00    -0.273 OA
BRANCH  11  15
ATOM     14  C   UNL     1      -9.728   8.412  69.173  0.00  0.00    +0.010 C 
ATOM     15  C   UNL     1     -10.944   9.137  69.721  0.00  0.00    +0.079 C 
ATOM     16  C   UNL     1     -10.838   9.125  71.238  0.00  0.00    +0.010 C 
ENDBRANCH  11  15
ENDBRANCH   1  12
BRANCH   4  17
ATOM     17  N   UNL     1     -11.490  15.062  64.560  0.00  0.00    +0.081 N 
ATOM     18  O   UNL     1     -12.688  15.396  63.948  0.00  0.00    -0.576 OA
ATOM     19  O   UNL     1     -10.690  16.018  64.720  0.00  0.00    +0.041 OA
ENDBRANCH   4  17
TORSDOF 4
ENDMDL
MODEL 6
REMARK VINA RESULT:      -5.9      4.758      5.685
REMARK  Name = 
REMARK  4 active torsions:
REMARK  status: ('A' for Active; 'I' for Inactive)
REMARK    1  A    between atoms: C_2  and  C_4
REMARK    2  A    between atoms: N_6  and  C_7
REMARK    3  A    between atoms: C_10  and  N_11
REMARK    4  A    between atoms: C_14  and  C_15
REMARK                            x       y       z     vdW  Elec       q    Type
REMARK                         _______ _______ _______ _____ _____    ______ ____
ROOT
ATOM      1  C   UNL     1      -9.794  15.756  66.597  0.00  0.00    +0.074 A 
ATOM      2  C   UNL     1      -9.910  14.509  67.201  0.00  0.00    +0.027 A 
ATOM      3  C   UNL     1     -10.699  13.513  66.640  0.00  0.00    +0.142 A 
ATOM      4  C   UNL     1     -11.108  13.672  65.342  0.00  0.00    +0.294 A 
ATOM      5  C   UNL     1     -11.090  14.928  64.748  0.00  0.00    +0.077 A 
ATOM      6  C   UNL     1     -10.634  15.967  65.510  0.00  0.00    +0.023 A 
ENDROOT
BRANCH   3   7
ATOM      7  C   UNL     1     -10.582  12.140  67.179  0.00  0.00    +0.424 C 
ATOM      8  F   UNL     1      -9.933  11.342  66.272  0.00  0.00    -0.166 F 
ATOM      9  F   UNL     1      -9.894  12.218  68.383  0.00  0.00    -0.166 F 
ATOM     10  F   UNL     1     -11.839  11.638  67.451  0.00  0.00    -0.166 F 
ENDBRANCH   3   7
BRANCH   1  12
ATOM     11  C   UNL     1     -10.095  17.669  68.162  0.00  0.00    +0.245 C 
ATOM     12  N   UNL     1      -9.263  16.868  67.328  0.00  0.00    -0.179 NA
ATOM     13  O   UNL     1     -11.190  17.149  68.515  0.00  0.00    -0.273 OA
BRANCH  11  15
ATOM     14  C   UNL     1      -8.417  19.368  68.427  0.00  0.00    +0.010 C 
ATOM     15  C   UNL     1      -9.914  19.146  68.300  0.00  0.00    +0.079 C 
ATOM     16  C   UNL     1     -10.359  19.780  66.991  0.00  0.00    +0.010 C 
ENDBRANCH  11  15
ENDBRANCH   1  12
BRANCH   4  17
ATOM     17  N   UNL     1     -11.772  12.649  64.590  0.00  0.00    +0.081 N 
ATOM     18  O   UNL     1     -13.147  12.586  64.751  0.00  0.00    -0.576 OA
ATOM     19  O   UNL     1     -11.357  12.372  63.436  0.00  0.00    +0.041 OA
ENDBRANCH   4  17
TORSDOF 4
ENDMDL
MODEL 7
REMARK VINA RESULT:      -5.7      3.699      6.802
REMARK  Name = 
REMARK  4 active torsions:
REMARK  status: ('A' for Active; 'I' for Inactive)
REMARK    1  A    between atoms: C_2  and  C_4
REMARK    2  A    between atoms: N_6  and  C_7
REMARK    3  A    between atoms: C_10  and  N_11
REMARK    4  A    between atoms: C_14  and  C_15
REMARK                            x       y       z     vdW  Elec       q    Type
REMARK                         _______ _______ _______ _____ _____    ______ ____
ROOT
ATOM      1  C   UNL     1     -12.893  10.994  70.961  0.00  0.00    +0.074 A 
ATOM      2  C   UNL     1     -13.018  12.199  71.643  0.00  0.00    +0.027 A 
ATOM      3  C   UNL     1     -12.420  13.358  71.165  0.00  0.00    +0.142 A 
ATOM      4  C   UNL     1     -11.972  13.362  69.870  0.00  0.00    +0.294 A 
ATOM      5  C   UNL     1     -11.749  12.166  69.199  0.00  0.00    +0.077 A 
ATOM      6  C   UNL     1     -12.014  11.013  69.884  0.00  0.00    +0.023 A 
ENDROOT
BRANCH   3   7
ATOM      7  C   UNL     1     -12.797  14.647  71.784  0.00  0.00    +0.424 C 
ATOM      8  F   UNL     1     -13.581  15.364  70.918  0.00  0.00    -0.166 F 
ATOM      9  F   UNL     1     -13.463  14.365  72.971  0.00  0.00    -0.166 F 
ATOM     10  F   UNL     1     -11.658  15.359  72.107  0.00  0.00    -0.166 F 
ENDBRANCH   3   7
BRANCH   1  12
ATOM     11  C   UNL     1     -12.218   8.779  71.875  0.00  0.00    +0.245 C 
ATOM     12  N   UNL     1     -13.218   9.758  71.608  0.00  0.00    -0.179 NA
ATOM     13  O   UNL     1     -11.024   9.189  71.866  0.00  0.00    -0.273 OA
BRANCH  11  15
ATOM     14  C   UNL     1     -13.973   7.176  71.522  0.00  0.00    +0.010 C 
ATOM     15  C   UNL     1     -12.483   7.310  71.781  0.00  0.00    +0.079 C 
ATOM     16  C   UNL     1     -11.757   6.800  70.546  0.00  0.00    +0.010 C 
ENDBRANCH  11  15
ENDBRANCH   1  12
BRANCH   4  17
ATOM     17  N   UNL     1     -11.500  14.537  69.200  0.00  0.00    +0.081 N 
ATOM     18  O   UNL     1     -10.161  14.837  69.391  0.00  0.00    -0.576 OA
ATOM     19  O   UNL     1     -11.949  14.811  68.058  0.00  0.00    +0.041 OA
ENDBRANCH   4  17
TORSDOF 4
ENDMDL
MODEL 8
REMARK VINA RESULT:      -5.6      4.488      6.451
REMARK  Name = 
REMARK  4 active torsions:
REMARK  status: ('A' for Active; 'I' for Inactive)
REMARK    1  A    between atoms: C_2  and  C_4
REMARK    2  A    between atoms: N_6  and  C_7
REMARK    3  A    between atoms: C_10  and  N_11
REMARK    4  A    between atoms: C_14  and  C_15
REMARK                            x       y       z     vdW  Elec       q    Type
REMARK                         _______ _______ _______ _____ _____    ______ ____
ROOT
ATOM      1  C   UNL     1     -11.642  13.571  68.603  0.00  0.00    +0.074 A 
ATOM      2  C   UNL     1     -11.048  14.651  67.960  0.00  0.00    +0.027 A 
ATOM      3  C   UNL     1     -10.780  14.613  66.597  0.00  0.00    +0.142 A 
ATOM      4  C   UNL     1     -11.383  13.635  65.851  0.00  0.00    +0.294 A 
ATOM      5  C   UNL     1     -11.901  12.501  66.465  0.00  0.00    +0.077 A 
ATOM      6  C   UNL     1     -11.793  12.429  67.826  0.00  0.00    +0.023 A 
ENDROOT
BRANCH   3   7
ATOM      7  C   UNL     1     -10.389  15.872  65.925  0.00  0.00    +0.424 C 
ATOM      8  F   UNL     1     -10.420  16.904  66.826  0.00  0.00    -0.166 F 
ATOM      9  F   UNL     1      -9.119  15.687  65.393  0.00  0.00    -0.166 F 
ATOM     10  F   UNL     1     -11.248  16.123  64.872  0.00  0.00    -0.166 F 
ENDBRANCH   3   7
BRANCH   1  12
ATOM     11  C   UNL     1     -12.411  14.333  70.845  0.00  0.00    +0.245 C 
ATOM     12  N   UNL     1     -11.615  13.475  70.032  0.00  0.00    -0.179 NA
ATOM     13  O   UNL     1     -13.385  14.895  70.270  0.00  0.00    -0.273 OA
BRANCH  11  15
ATOM     14  C   UNL     1     -11.809  16.367  71.974  0.00  0.00    +0.010 C 
ATOM     15  C   UNL     1     -11.937  14.866  72.159  0.00  0.00    +0.079 C 
ATOM     16  C   UNL     1     -13.047  14.624  73.170  0.00  0.00    +0.010 C 
ENDBRANCH  11  15
ENDBRANCH   1  12
BRANCH   4  17
ATOM     17  N   UNL     1     -11.335  13.588  64.420  0.00  0.00    +0.081 N 
ATOM     18  O   UNL     1     -10.313  12.824  63.881  0.00  0.00    -0.576 OA
ATOM     19  O   UNL     1     -12.413  13.569  63.773  0.00  0.00    +0.041 OA
ENDBRANCH   4  17
TORSDOF 4
ENDMDL
MODEL 9
REMARK VINA RESULT:      -5.6      3.764      6.137
REMARK  Name = 
REMARK  4 active torsions:
REMARK  status: ('A' for Active; 'I' for Inactive)
REMARK    1  A    between atoms: C_2  and  C_4
REMARK    2  A    between atoms: N_6  and  C_7
REMARK    3  A    between atoms: C_10  and  N_11
REMARK    4  A    between atoms: C_14  and  C_15
REMARK                            x       y       z     vdW  Elec       q    Type
REMARK                         _______ _______ _______ _____ _____    ______ ____
ROOT
ATOM      1  C   UNL     1     -12.223  11.445  70.571  0.00  0.00    +0.074 A 
ATOM      2  C   UNL     1     -11.777  12.548  69.852  0.00  0.00    +0.027 A 
ATOM      3  C   UNL     1     -12.165  13.835  70.201  0.00  0.00    +0.142 A 
ATOM      4  C   UNL     1     -12.737  14.021  71.432  0.00  0.00    +0.294 A 
ATOM      5  C   UNL     1     -13.276  12.947  72.128  0.00  0.00    +0.077 A 
ATOM      6  C   UNL     1     -13.187  11.718  71.535  0.00  0.00    +0.023 A 
ENDROOT
BRANCH   3   7
ATOM      7  C   UNL     1     -11.462  14.974  69.570  0.00  0.00    +0.424 C 
ATOM      8  F   UNL     1     -10.553  15.500  70.450  0.00  0.00    -0.166 F 
ATOM      9  F   UNL     1     -10.851  14.502  68.415  0.00  0.00    -0.166 F 
ATOM     10  F   UNL     1     -12.380  15.934  69.190  0.00  0.00    -0.166 F 
ENDBRANCH   3   7
BRANCH   1  12
ATOM     11  C   UNL     1     -11.183   9.183  70.577  0.00  0.00    +0.245 C 
ATOM     12  N   UNL     1     -12.098  10.126  70.026  0.00  0.00    -0.179 NA
ATOM     13  O   UNL     1     -10.783   9.420  71.751  0.00  0.00    -0.273 OA
BRANCH  11  15
ATOM     14  C   UNL     1     -11.161   6.887  69.870  0.00  0.00    +0.010 C 
ATOM     15  C   UNL     1     -10.425   8.208  69.734  0.00  0.00    +0.079 C 
ATOM     16  C   UNL     1     -10.563   8.660  68.288  0.00  0.00    +0.010 C 
ENDBRANCH  11  15
ENDBRANCH   1  12
BRANCH   4  17
ATOM     17  N   UNL     1     -13.020  15.313  71.985  0.00  0.00    +0.081 N 
ATOM     18  O   UNL     1     -14.350  15.699  71.950  0.00  0.00    -0.576 OA
ATOM     19  O   UNL     1     -12.380  15.698  72.996  0.00  0.00    +0.041 OA
ENDBRANCH   4  17
TORSDOF 4
ENDMDL
