MODEL 1
REMARK VINA RESULT:      -6.0      0.000      0.000
REMARK  Name = 
REMARK  3 active torsions:
REMARK  status: ('A' for Active; 'I' for Inactive)
REMARK    1  A    between atoms: C_6  and  N_7
REMARK    2  A    between atoms: N_7  and  C_8
REMARK    3  A    between atoms: C_13  and  C_14
REMARK                            x       y       z     vdW  Elec       q    Type
REMARK                         _______ _______ _______ _____ _____    ______ ____
ROOT
ATOM      1  N   UNL     1     -10.598  13.881  68.284  0.00  0.00    -0.213 NA
ENDROOT
BRANCH   1   6
ATOM      2  C   UNL     1     -13.588  13.267  72.177  0.00  0.00    +0.031 C 
ATOM      3  C   UNL     1     -12.580  14.041  71.396  0.00  0.00    -0.025 A 
ATOM      4  C   UNL     1     -12.028  13.542  70.230  0.00  0.00    -0.011 A 
ATOM      5  C   UNL     1     -12.030  12.068  70.027  0.00  0.00    +0.032 C 
ATOM      6  C   UNL     1     -11.354  14.366  69.376  0.00  0.00    +0.066 A 
ATOM      7  C   UNL     1     -11.566  15.727  69.515  0.00  0.00    +0.016 A 
ATOM      8  C   UNL     1     -11.720  16.203  70.793  0.00  0.00    +0.001 A 
ATOM      9  C   UNL     1     -12.233  15.335  71.742  0.00  0.00    -0.004 A 
ENDBRANCH   1   6
BRANCH   1  10
ATOM     10  C   UNL     1     -11.057  13.903  66.955  0.00  0.00    +0.077 A 
ATOM     11  C   UNL     1     -10.181  14.329  65.964  0.00  0.00    +0.095 A 
ATOM     12  C   UNL     1     -10.469  14.035  64.636  0.00  0.00    +0.008 A 
ATOM     13  C   UNL     1     -11.607  13.334  64.266  0.00  0.00    +0.000 A 
ATOM     14  C   UNL     1     -12.400  12.880  65.310  0.00  0.00    +0.001 A 
ATOM     15  C   UNL     1     -12.314  13.525  66.537  0.00  0.00    +0.017 A 
BRANCH  11  16
ATOM     16  C   UNL     1      -9.192  15.370  66.268  0.00  0.00    +0.389 C 
ATOM     17  O   UNL     1      -9.369  16.627  65.733  0.00  0.00    -0.241 OA
ATOM     18  O   UNL     1      -8.065  15.087  66.741  0.00  0.00    -0.241 OA
ENDBRANCH  11  16
ENDBRANCH   1  10
TORSDOF 3
ENDMDL
MODEL 2
REMARK VINA RESULT:      -5.9      3.751      5.426
REMARK  Name = 
REMARK  3 active torsions:
REMARK  status: ('A' for Active; 'I' for Inactive)
REMARK    1  A    between atoms: C_6  and  N_7
REMARK    2  A    between atoms: N_7  and  C_8
REMARK    3  A    between atoms: C_13  and  C_14
REMARK                            x       y       z     vdW  Elec       q    Type
REMARK                         _______ _______ _______ _____ _____    ______ ____
ROOT
ATOM      1  N   UNL     1      -9.530  16.847  65.524  0.00  0.00    -0.213 NA
ENDROOT
BRANCH   1   6
ATOM      2  C   UNL     1      -6.879  20.173  68.049  0.00  0.00    +0.031 C 
ATOM      3  C   UNL     1      -8.146  19.695  67.425  0.00  0.00    -0.025 A 
ATOM      4  C   UNL     1      -8.201  18.509  66.714  0.00  0.00    -0.011 A 
ATOM      5  C   UNL     1      -6.938  17.980  66.133  0.00  0.00    +0.032 C 
ATOM      6  C   UNL     1      -9.404  17.937  66.416  0.00  0.00    +0.066 A 
ATOM      7  C   UNL     1     -10.500  18.357  67.149  0.00  0.00    +0.016 A 
ATOM      8  C   UNL     1     -10.549  19.687  67.486  0.00  0.00    +0.001 A 
ATOM      9  C   UNL     1      -9.345  20.358  67.619  0.00  0.00    -0.004 A 
ENDBRANCH   1   6
BRANCH   1  10
ATOM     10  C   UNL     1      -9.766  15.526  65.946  0.00  0.00    +0.077 A 
ATOM     11  C   UNL     1     -10.571  14.717  65.152  0.00  0.00    +0.095 A 
ATOM     12  C   UNL     1     -10.538  13.341  65.341  0.00  0.00    +0.008 A 
ATOM     13  C   UNL     1      -9.732  12.746  66.300  0.00  0.00    +0.000 A 
ATOM     14  C   UNL     1      -8.904  13.607  67.007  0.00  0.00    +0.001 A 
ATOM     15  C   UNL     1      -9.255  14.949  67.087  0.00  0.00    +0.017 A 
BRANCH  11  16
ATOM     16  C   UNL     1     -11.688  15.311  64.408  0.00  0.00    +0.389 C 
ATOM     17  O   UNL     1     -12.695  14.487  63.958  0.00  0.00    -0.241 OA
ATOM     18  O   UNL     1     -11.612  16.465  63.921  0.00  0.00    -0.241 OA
ENDBRANCH  11  16
ENDBRANCH   1  10
TORSDOF 3
ENDMDL
MODEL 3
REMARK VINA RESULT:      -5.9      2.801      5.844
REMARK  Name = 
REMARK  3 active torsions:
REMARK  status: ('A' for Active; 'I' for Inactive)
REMARK    1  A    between atoms: C_6  and  N_7
REMARK    2  A    between atoms: N_7  and  C_8
REMARK    3  A    between atoms: C_13  and  C_14
REMARK                            x       y       z     vdW  Elec       q    Type
REMARK                         _______ _______ _______ _____ _____    ______ ____
ROOT
ATOM      1  N   UNL     1     -12.179  14.973  69.324  0.00  0.00    -0.213 NA
ENDROOT
BRANCH   1   6
ATOM      2  C   UNL     1      -8.396  16.034  66.319  0.00  0.00    +0.031 C 
ATOM      3  C   UNL     1      -9.536  15.175  66.753  0.00  0.00    -0.025 A 
ATOM      4  C   UNL     1     -10.275  15.470  67.885  0.00  0.00    -0.011 A 
ATOM      5  C   UNL     1      -9.642  16.309  68.937  0.00  0.00    +0.032 C 
ATOM      6  C   UNL     1     -11.481  14.869  68.098  0.00  0.00    +0.066 A 
ATOM      7  C   UNL     1     -12.092  14.277  67.007  0.00  0.00    +0.016 A 
ATOM      8  C   UNL     1     -11.273  13.647  66.104  0.00  0.00    +0.001 A 
ATOM      9  C   UNL     1      -9.973  14.110  65.987  0.00  0.00    -0.004 A 
ENDBRANCH   1   6
BRANCH   1  10
ATOM     10  C   UNL     1     -12.280  13.918  70.248  0.00  0.00    +0.077 A 
ATOM     11  C   UNL     1     -13.075  14.104  71.373  0.00  0.00    +0.095 A 
ATOM     12  C   UNL     1     -13.477  12.993  72.106  0.00  0.00    +0.008 A 
ATOM     13  C   UNL     1     -13.105  11.703  71.756  0.00  0.00    +0.000 A 
ATOM     14  C   UNL     1     -12.372  11.587  70.584  0.00  0.00    +0.001 A 
ATOM     15  C   UNL     1     -11.661  12.693  70.133  0.00  0.00    +0.017 A 
BRANCH  11  16
ATOM     16  C   UNL     1     -13.174  15.436  71.980  0.00  0.00    +0.389 C 
ATOM     17  O   UNL     1     -12.039  16.004  72.515  0.00  0.00    -0.241 OA
ATOM     18  O   UNL     1     -14.282  15.938  72.287  0.00  0.00    -0.241 OA
ENDBRANCH  11  16
ENDBRANCH   1  10
TORSDOF 3
ENDMDL
MODEL 4
REMARK VINA RESULT:      -5.9      2.697      3.963
REMARK  Name = 
REMARK  3 active torsions:
REMARK  status: ('A' for Active; 'I' for Inactive)
REMARK    1  A    between atoms: C_6  and  N_7
REMARK    2  A    between atoms: N_7  and  C_8
REMARK    3  A    between atoms: C_13  and  C_14
REMARK                            x       y       z     vdW  Elec       q    Type
REMARK                         _______ _______ _______ _____ _____    ______ ____
ROOT
ATOM      1  N   UNL     1     -12.163  13.181  66.364  0.00  0.00    -0.213 NA
ENDROOT
BRANCH   1   6
ATOM      2  C   UNL     1      -9.897  17.196  68.157  0.00  0.00    +0.031 C 
ATOM      3  C   UNL     1     -10.893  16.090  68.252  0.00  0.00    -0.025 A 
ATOM      4  C   UNL     1     -11.085  15.196  67.213  0.00  0.00    -0.011 A 
ATOM      5  C   UNL     1     -10.698  15.621  65.841  0.00  0.00    +0.032 C 
ATOM      6  C   UNL     1     -11.761  14.029  67.421  0.00  0.00    +0.066 A 
ATOM      7  C   UNL     1     -11.904  13.610  68.732  0.00  0.00    +0.016 A 
ATOM      8  C   UNL     1     -12.108  14.584  69.677  0.00  0.00    +0.001 A 
ATOM      9  C   UNL     1     -11.593  15.844  69.419  0.00  0.00    -0.004 A 
ENDBRANCH   1   6
BRANCH   1  10
ATOM     10  C   UNL     1     -11.325  12.209  65.791  0.00  0.00    +0.077 A 
ATOM     11  C   UNL     1     -11.166  12.209  64.410  0.00  0.00    +0.095 A 
ATOM     12  C   UNL     1     -10.099  11.514  63.853  0.00  0.00    +0.008 A 
ATOM     13  C   UNL     1      -9.188  10.814  64.631  0.00  0.00    +0.000 A 
ATOM     14  C   UNL     1      -9.366  10.915  66.002  0.00  0.00    +0.001 A 
ATOM     15  C   UNL     1     -10.626  11.246  66.486  0.00  0.00    +0.017 A 
BRANCH  11  16
ATOM     16  C   UNL     1     -12.287  12.607  63.551  0.00  0.00    +0.389 C 
ATOM     17  O   UNL     1     -12.468  13.945  63.278  0.00  0.00    -0.241 OA
ATOM     18  O   UNL     1     -13.237  11.825  63.305  0.00  0.00    -0.241 OA
ENDBRANCH  11  16
ENDBRANCH   1  10
TORSDOF 3
ENDMDL
MODEL 5
REMARK VINA RESULT:      -5.9      3.168      5.151
REMARK  Name = 
REMARK  3 active torsions:
REMARK  status: ('A' for Active; 'I' for Inactive)
REMARK    1  A    between atoms: C_6  and  N_7
REMARK    2  A    between atoms: N_7  and  C_8
REMARK    3  A    between atoms: C_13  and  C_14
REMARK                            x       y       z     vdW  Elec       q    Type
REMARK                         _______ _______ _______ _____ _____    ______ ____
ROOT
ATOM      1  N   UNL     1     -10.482  16.472  66.819  0.00  0.00    -0.213 NA
ENDROOT
BRANCH   1   6
ATOM      2  C   UNL     1      -7.066  19.275  69.042  0.00  0.00    +0.031 C 
ATOM      3  C   UNL     1      -8.183  19.075  68.074  0.00  0.00    -0.025 A 
ATOM      4  C   UNL     1      -8.755  17.831  67.874  0.00  0.00    -0.011 A 
ATOM      5  C   UNL     1      -7.950  16.626  68.210  0.00  0.00    +0.032 C 
ATOM      6  C   UNL     1      -9.954  17.717  67.231  0.00  0.00    +0.066 A 
ATOM      7  C   UNL     1     -10.729  18.859  67.136  0.00  0.00    +0.016 A 
ATOM      8  C   UNL     1     -10.065  20.044  66.937  0.00  0.00    +0.001 A 
ATOM      9  C   UNL     1      -8.769  20.141  67.414  0.00  0.00    -0.004 A 
ENDBRANCH   1   6
BRANCH   1  10
ATOM     10  C   UNL     1     -11.185  15.608  67.677  0.00  0.00    +0.077 A 
ATOM     11  C   UNL     1     -11.498  14.334  67.215  0.00  0.00    +0.095 A 
ATOM     12  C   UNL     1     -11.864  13.356  68.131  0.00  0.00    +0.008 A 
ATOM     13  C   UNL     1     -11.934  13.608  69.493  0.00  0.00    +0.000 A 
ATOM     14  C   UNL     1     -11.541  14.878  69.889  0.00  0.00    +0.001 A 
ATOM     15  C   UNL     1     -11.589  15.909  68.959  0.00  0.00    +0.017 A 
BRANCH  11  16
ATOM     16  C   UNL     1     -11.797  14.132  65.793  0.00  0.00    +0.389 C 
ATOM     17  O   UNL     1     -13.115  14.080  65.395  0.00  0.00    -0.241 OA
ATOM     18  O   UNL     1     -10.926  13.718  64.991  0.00  0.00    -0.241 OA
ENDBRANCH  11  16
ENDBRANCH   1  10
TORSDOF 3
ENDMDL
MODEL 6
REMARK VINA RESULT:      -5.8      2.799      4.169
REMARK  Name = 
REMARK  3 active torsions:
REMARK  status: ('A' for Active; 'I' for Inactive)
REMARK    1  A    between atoms: C_6  and  N_7
REMARK    2  A    between atoms: N_7  and  C_8
REMARK    3  A    between atoms: C_13  and  C_14
REMARK                            x       y       z     vdW  Elec       q    Type
REMARK                         _______ _______ _______ _____ _____    ______ ____
ROOT
ATOM      1  N   UNL     1     -12.093  13.266  66.129  0.00  0.00    -0.213 NA
ENDROOT
BRANCH   1   6
ATOM      2  C   UNL     1     -10.661  16.598  69.493  0.00  0.00    +0.031 C 
ATOM      3  C   UNL     1     -10.515  15.898  68.185  0.00  0.00    -0.025 A 
ATOM      4  C   UNL     1     -11.358  14.862  67.819  0.00  0.00    -0.011 A 
ATOM      5  C   UNL     1     -12.053  14.110  68.897  0.00  0.00    +0.032 C 
ATOM      6  C   UNL     1     -11.413  14.442  66.522  0.00  0.00    +0.066 A 
ATOM      7  C   UNL     1     -10.913  15.302  65.559  0.00  0.00    +0.016 A 
ATOM      8  C   UNL     1      -9.798  16.028  65.895  0.00  0.00    +0.001 A 
ATOM      9  C   UNL     1      -9.603  16.321  67.234  0.00  0.00    -0.004 A 
ENDBRANCH   1   6
BRANCH   1  10
ATOM     10  C   UNL     1     -11.436  12.098  65.705  0.00  0.00    +0.077 A 
ATOM     11  C   UNL     1     -11.332  11.862  64.339  0.00  0.00    +0.095 A 
ATOM     12  C   UNL     1     -10.405  10.931  63.884  0.00  0.00    +0.008 A 
ATOM     13  C   UNL     1      -9.584  10.224  64.750  0.00  0.00    +0.000 A 
ATOM     14  C   UNL     1      -9.692  10.560  66.091  0.00  0.00    +0.001 A 
ATOM     15  C   UNL     1     -10.867  11.156  66.533  0.00  0.00    +0.017 A 
BRANCH  11  16
ATOM     16  C   UNL     1     -12.411  12.295  63.444  0.00  0.00    +0.389 C 
ATOM     17  O   UNL     1     -12.435  13.607  63.024  0.00  0.00    -0.241 OA
ATOM     18  O   UNL     1     -13.450  11.610  63.288  0.00  0.00    -0.241 OA
ENDBRANCH  11  16
ENDBRANCH   1  10
TORSDOF 3
ENDMDL
MODEL 7
REMARK VINA RESULT:      -5.8      3.129      4.704
REMARK  Name = 
REMARK  3 active torsions:
REMARK  status: ('A' for Active; 'I' for Inactive)
REMARK    1  A    between atoms: C_6  and  N_7
REMARK    2  A    between atoms: N_7  and  C_8
REMARK    3  A    between atoms: C_13  and  C_14
REMARK                            x       y       z     vdW  Elec       q    Type
REMARK                         _______ _______ _______ _____ _____    ______ ____
ROOT
ATOM      1  N   UNL     1     -11.967  11.800  67.028  0.00  0.00    -0.213 NA
ENDROOT
BRANCH   1   6
ATOM      2  C   UNL     1     -10.282   9.262  70.926  0.00  0.00    +0.031 C 
ATOM      3  C   UNL     1     -10.658   9.374  69.487  0.00  0.00    -0.025 A 
ATOM      4  C   UNL     1     -11.197  10.539  68.967  0.00  0.00    -0.011 A 
ATOM      5  C   UNL     1     -11.873  11.477  69.902  0.00  0.00    +0.032 C 
ATOM      6  C   UNL     1     -11.249  10.734  67.617  0.00  0.00    +0.066 A 
ATOM      7  C   UNL     1     -10.431   9.938  66.834  0.00  0.00    +0.016 A 
ATOM      8  C   UNL     1     -10.265   8.636  67.234  0.00  0.00    +0.001 A 
ATOM      9  C   UNL     1     -10.388   8.360  68.586  0.00  0.00    -0.004 A 
ENDBRANCH   1   6
BRANCH   1  10
ATOM     10  C   UNL     1     -11.348  12.919  66.444  0.00  0.00    +0.077 A 
ATOM     11  C   UNL     1     -11.704  13.265  65.146  0.00  0.00    +0.095 A 
ATOM     12  C   UNL     1     -11.392  14.535  64.676  0.00  0.00    +0.008 A 
ATOM     13  C   UNL     1     -10.730  15.470  65.459  0.00  0.00    +0.000 A 
ATOM     14  C   UNL     1     -10.468  15.082  66.765  0.00  0.00    +0.001 A 
ATOM     15  C   UNL     1     -10.413  13.724  67.056  0.00  0.00    +0.017 A 
BRANCH  11  16
ATOM     16  C   UNL     1     -12.055  12.212  64.185  0.00  0.00    +0.389 C 
ATOM     17  O   UNL     1     -11.050  11.417  63.679  0.00  0.00    -0.241 OA
ATOM     18  O   UNL     1     -13.163  12.202  63.597  0.00  0.00    -0.241 OA
ENDBRANCH  11  16
ENDBRANCH   1  10
TORSDOF 3
ENDMDL
MODEL 8
REMARK VINA RESULT:      -5.8      2.432      4.958
REMARK  Name = 
REMARK  3 active torsions:
REMARK  status: ('A' for Active; 'I' for Inactive)
REMARK    1  A    between atoms: C_6  and  N_7
REMARK    2  A    between atoms: N_7  and  C_8
REMARK    3  A    between atoms: C_13  and  C_14
REMARK                            x       y       z     vdW  Elec       q    Type
REMARK                         _______ _______ _______ _____ _____    ______ ____
ROOT
ATOM      1  N   UNL     1     -11.158  15.723  67.799  0.00  0.00    -0.213 NA
ENDROOT
BRANCH   1   6
ATOM      2  C   UNL     1     -12.243  12.336  64.360  0.00  0.00    +0.031 C 
ATOM      3  C   UNL     1     -11.769  12.734  65.717  0.00  0.00    -0.025 A 
ATOM      4  C   UNL     1     -11.636  14.063  66.077  0.00  0.00    -0.011 A 
ATOM      5  C   UNL     1     -11.463  15.070  64.996  0.00  0.00    +0.032 C 
ATOM      6  C   UNL     1     -11.500  14.413  67.390  0.00  0.00    +0.066 A 
ATOM      7  C   UNL     1     -11.873  13.473  68.334  0.00  0.00    +0.016 A 
ATOM      8  C   UNL     1     -11.598  12.160  68.044  0.00  0.00    +0.001 A 
ATOM      9  C   UNL     1     -11.543  11.797  66.709  0.00  0.00    -0.004 A 
ENDBRANCH   1   6
BRANCH   1  10
ATOM     10  C   UNL     1      -9.831  16.172  67.923  0.00  0.00    +0.077 A 
ATOM     11  C   UNL     1      -9.594  17.541  67.882  0.00  0.00    +0.095 A 
ATOM     12  C   UNL     1      -8.379  18.029  68.347  0.00  0.00    +0.008 A 
ATOM     13  C   UNL     1      -7.389  17.194  68.845  0.00  0.00    +0.000 A 
ATOM     14  C   UNL     1      -7.720  15.849  68.920  0.00  0.00    +0.001 A 
ATOM     15  C   UNL     1      -8.727  15.366  68.094  0.00  0.00    +0.017 A 
BRANCH  11  16
ATOM     16  C   UNL     1     -10.435  18.398  67.039  0.00  0.00    +0.389 C 
ATOM     17  O   UNL     1     -10.284  18.333  65.671  0.00  0.00    -0.241 OA
ATOM     18  O   UNL     1     -11.060  19.377  67.514  0.00  0.00    -0.241 OA
ENDBRANCH  11  16
ENDBRANCH   1  10
TORSDOF 3
ENDMDL
MODEL 9
REMARK VINA RESULT:      -5.6      1.688      2.154
REMARK  Name = 
REMARK  3 active torsions:
REMARK  status: ('A' for Active; 'I' for Inactive)
REMARK    1  A    between atoms: C_6  and  N_7
REMARK    2  A    between atoms: N_7  and  C_8
REMARK    3  A    between atoms: C_13  and  C_14
REMARK                            x       y       z     vdW  Elec       q    Type
REMARK                         _______ _______ _______ _____ _____    ______ ____
ROOT
ATOM      1  N   UNL     1     -10.523  13.816  68.508  0.00  0.00    -0.213 NA
ENDROOT
BRANCH   1   6
ATOM      2  C   UNL     1     -13.734  13.252  72.228  0.00  0.00    +0.031 C 
ATOM      3  C   UNL     1     -12.675  14.011  71.504  0.00  0.00    -0.025 A 
ATOM      4  C   UNL     1     -12.064  13.501  70.371  0.00  0.00    -0.011 A 
ATOM      5  C   UNL     1     -12.074  12.027  70.171  0.00  0.00    +0.032 C 
ATOM      6  C   UNL     1     -11.332  14.314  69.555  0.00  0.00    +0.066 A 
ATOM      7  C   UNL     1     -11.534  15.678  69.679  0.00  0.00    +0.016 A 
ATOM      8  C   UNL     1     -11.754  16.160  70.945  0.00  0.00    +0.001 A 
ATOM      9  C   UNL     1     -12.330  15.301  71.866  0.00  0.00    -0.004 A 
ENDBRANCH   1   6
BRANCH   1  10
ATOM     10  C   UNL     1     -11.006  13.559  67.213  0.00  0.00    +0.077 A 
ATOM     11  C   UNL     1     -10.803  12.293  66.675  0.00  0.00    +0.095 A 
ATOM     12  C   UNL     1     -11.556  11.899  65.575  0.00  0.00    +0.008 A 
ATOM     13  C   UNL     1     -12.500  12.731  64.990  0.00  0.00    +0.000 A 
ATOM     14  C   UNL     1     -12.699  13.950  65.621  0.00  0.00    +0.001 A 
ATOM     15  C   UNL     1     -11.681  14.459  66.419  0.00  0.00    +0.017 A 
BRANCH  11  16
ATOM     16  C   UNL     1      -9.586  11.547  67.014  0.00  0.00    +0.389 C 
ATOM     17  O   UNL     1      -9.657  10.572  67.984  0.00  0.00    -0.241 OA
ATOM     18  O   UNL     1      -8.449  11.956  66.676  0.00  0.00    -0.241 OA
ENDBRANCH  11  16
ENDBRANCH   1  10
TORSDOF 3
ENDMDL
