MODEL 1
REMARK VINA RESULT:      -6.7      0.000      0.000
REMARK  Name = 
REMARK  1 active torsions:
REMARK  status: ('A' for Active; 'I' for Inactive)
REMARK    1  A    between atoms: O_2  and  C_3
REMARK                            x       y       z     vdW  Elec       q    Type
REMARK                         _______ _______ _______ _____ _____    ______ ____
ROOT
ATOM      1  C   UNL     1     -11.811  11.943  69.825  0.00  0.00    +0.172 A 
ATOM      2  C   UNL     1     -11.500  13.076  69.075  0.00  0.00    +0.168 A 
ATOM      3  O   UNL     1     -11.332  14.376  69.342  0.00  0.00    -0.473 OA
ATOM      4  C   UNL     1     -11.211  15.192  68.051  0.00  0.00    +0.204 C 
ATOM      5  C   UNL     1     -11.216  13.929  67.052  0.00  0.00    +0.067 C 
ATOM      6  C   UNL     1     -10.201  14.248  65.884  0.00  0.00    +0.044 C 
ATOM      7  C   UNL     1     -10.295  12.790  64.992  0.00  0.00    +0.066 C 
ATOM      8  N   UNL     1     -11.512  13.321  64.149  0.00  0.00    -0.272 NA
ATOM      9  C   UNL     1     -12.465  13.931  64.901  0.00  0.00    +0.073 C 
ATOM     10  C   UNL     1     -12.111  12.106  63.579  0.00  0.00    +0.090 C 
ATOM     11  C   UNL     1     -11.283  11.849  65.846  0.00  0.00    +0.042 C 
ATOM     12  C   UNL     1     -10.806  11.639  67.197  0.00  0.00    -0.022 A 
ATOM     13  C   UNL     1     -11.183  10.532  67.948  0.00  0.00    -0.001 A 
ATOM     14  C   UNL     1      -8.909  13.724  66.685  0.00  0.00    -0.027 C 
ATOM     15  C   UNL     1      -8.939  14.035  67.966  0.00  0.00    +0.005 C 
ATOM     16  C   UNL     1     -12.535  14.082  66.329  0.00  0.00    +0.025 C 
ATOM     17  C   UNL     1      -9.508  15.521  68.154  0.00  0.00    +0.214 C 
ATOM     18  O   UNL     1      -9.404  15.402  69.665  0.00  0.00    -0.214 OA
ATOM     19  C   UNL     1     -11.077  12.826  67.819  0.00  0.00    +0.014 A 
ATOM     20  C   UNL     1     -11.706  10.680  69.235  0.00  0.00    +0.040 A 
ENDROOT
BRANCH   1  22
ATOM     21  C   UNL     1     -13.061  10.979  71.664  0.00  0.00    +0.253 C 
ATOM     22  O   UNL     1     -12.726  12.087  70.868  0.00  0.00    -0.468 OA
ENDBRANCH   1  22
TORSDOF 1
ENDMDL
MODEL 2
REMARK VINA RESULT:      -6.5      2.582      4.283
REMARK  Name = 
REMARK  1 active torsions:
REMARK  status: ('A' for Active; 'I' for Inactive)
REMARK    1  A    between atoms: O_2  and  C_3
REMARK                            x       y       z     vdW  Elec       q    Type
REMARK                         _______ _______ _______ _____ _____    ______ ____
ROOT
ATOM      1  C   UNL     1     -10.835  10.122  67.243  0.00  0.00    +0.172 A 
ATOM      2  C   UNL     1     -10.705  11.188  66.355  0.00  0.00    +0.168 A 
ATOM      3  O   UNL     1     -10.460  11.310  65.045  0.00  0.00    -0.473 OA
ATOM      4  C   UNL     1     -10.214  12.774  64.665  0.00  0.00    +0.204 C 
ATOM      5  C   UNL     1     -10.545  13.384  66.118  0.00  0.00    +0.067 C 
ATOM      6  C   UNL     1     -11.311  14.747  65.893  0.00  0.00    +0.044 C 
ATOM      7  C   UNL     1     -11.631  15.188  67.516  0.00  0.00    +0.066 C 
ATOM      8  N   UNL     1     -10.248  15.927  67.645  0.00  0.00    -0.272 NA
ATOM      9  C   UNL     1      -9.208  15.217  67.136  0.00  0.00    +0.073 C 
ATOM     10  C   UNL     1     -10.037  16.044  69.094  0.00  0.00    +0.090 C 
ATOM     11  C   UNL     1     -11.069  13.962  68.394  0.00  0.00    +0.042 C 
ATOM     12  C   UNL     1     -11.687  12.703  68.033  0.00  0.00    -0.022 A 
ATOM     13  C   UNL     1     -11.747  11.631  68.916  0.00  0.00    -0.001 A 
ATOM     14  C   UNL     1     -12.759  14.062  65.750  0.00  0.00    -0.027 C 
ATOM     15  C   UNL     1     -12.725  12.925  65.085  0.00  0.00    +0.005 C 
ATOM     16  C   UNL     1      -9.199  13.891  66.582  0.00  0.00    +0.025 C 
ATOM     17  C   UNL     1     -11.719  13.049  63.844  0.00  0.00    +0.214 C 
ATOM     18  O   UNL     1     -11.969  11.600  63.459  0.00  0.00    -0.214 OA
ATOM     19  C   UNL     1     -11.092  12.385  66.844  0.00  0.00    +0.014 A 
ATOM     20  C   UNL     1     -11.301  10.362  68.538  0.00  0.00    +0.040 A 
ENDROOT
BRANCH   1  22
ATOM     21  C   UNL     1     -10.562   7.742  66.875  0.00  0.00    +0.253 C 
ATOM     22  O   UNL     1     -10.003   9.018  67.056  0.00  0.00    -0.468 OA
ENDBRANCH   1  22
TORSDOF 1
ENDMDL
MODEL 3
REMARK VINA RESULT:      -6.4      2.393      4.714
REMARK  Name = 
REMARK  1 active torsions:
REMARK  status: ('A' for Active; 'I' for Inactive)
REMARK    1  A    between atoms: O_2  and  C_3
REMARK                            x       y       z     vdW  Elec       q    Type
REMARK                         _______ _______ _______ _____ _____    ______ ____
ROOT
ATOM      1  C   UNL     1      -9.995  15.890  66.374  0.00  0.00    +0.172 A 
ATOM      2  C   UNL     1     -10.840  14.814  66.111  0.00  0.00    +0.168 A 
ATOM      3  O   UNL     1     -12.018  14.659  65.497  0.00  0.00    -0.473 OA
ATOM      4  C   UNL     1     -12.570  13.245  65.713  0.00  0.00    +0.204 C 
ATOM      5  C   UNL     1     -11.276  12.675  66.483  0.00  0.00    +0.067 C 
ATOM      6  C   UNL     1     -11.066  11.183  66.011  0.00  0.00    +0.044 C 
ATOM      7  C   UNL     1      -9.636  10.791  66.867  0.00  0.00    +0.066 C 
ATOM      8  N   UNL     1     -10.453  10.330  68.130  0.00  0.00    -0.272 NA
ATOM      9  C   UNL     1     -11.450  11.188  68.469  0.00  0.00    +0.073 C 
ATOM     10  C   UNL     1      -9.469  10.344  69.220  0.00  0.00    +0.090 C 
ATOM     11  C   UNL     1      -9.221  12.152  67.619  0.00  0.00    +0.042 C 
ATOM     12  C   UNL     1      -9.027  13.250  66.695  0.00  0.00    -0.022 A 
ATOM     13  C   UNL     1      -8.229  14.344  67.008  0.00  0.00    -0.001 A 
ATOM     14  C   UNL     1     -10.223  11.577  64.700  0.00  0.00    -0.027 C 
ATOM     15  C   UNL     1     -10.682  12.658  64.101  0.00  0.00    +0.005 C 
ATOM     16  C   UNL     1     -11.795  12.456  67.887  0.00  0.00    +0.025 C 
ATOM     17  C   UNL     1     -12.284  12.646  64.107  0.00  0.00    +0.214 C 
ATOM     18  O   UNL     1     -12.326  13.997  63.413  0.00  0.00    -0.214 OA
ATOM     19  C   UNL     1     -10.301  13.599  66.342  0.00  0.00    +0.014 A 
ATOM     20  C   UNL     1      -8.714  15.649  66.877  0.00  0.00    +0.040 A 
ENDROOT
BRANCH   1  22
ATOM     21  C   UNL     1     -10.435  17.656  67.974  0.00  0.00    +0.253 C 
ATOM     22  O   UNL     1     -10.584  17.116  66.686  0.00  0.00    -0.468 OA
ENDBRANCH   1  22
TORSDOF 1
ENDMDL
MODEL 4
REMARK VINA RESULT:      -6.4      1.726      2.263
REMARK  Name = 
REMARK  1 active torsions:
REMARK  status: ('A' for Active; 'I' for Inactive)
REMARK    1  A    between atoms: O_2  and  C_3
REMARK                            x       y       z     vdW  Elec       q    Type
REMARK                         _______ _______ _______ _____ _____    ______ ____
ROOT
ATOM      1  C   UNL     1     -12.368  14.979  70.272  0.00  0.00    +0.172 A 
ATOM      2  C   UNL     1     -11.680  15.485  69.170  0.00  0.00    +0.168 A 
ATOM      3  O   UNL     1     -11.343  16.706  68.740  0.00  0.00    -0.473 OA
ATOM      4  C   UNL     1     -10.764  16.650  67.322  0.00  0.00    +0.204 C 
ATOM      5  C   UNL     1     -10.763  15.044  67.204  0.00  0.00    +0.067 C 
ATOM      6  C   UNL     1      -9.456  14.630  66.419  0.00  0.00    +0.044 C 
ATOM      7  C   UNL     1      -9.602  12.925  66.463  0.00  0.00    +0.066 C 
ATOM      8  N   UNL     1     -10.459  12.910  65.144  0.00  0.00    -0.272 NA
ATOM      9  C   UNL     1     -11.435  13.856  65.124  0.00  0.00    +0.073 C 
ATOM     10  C   UNL     1     -11.118  11.598  65.159  0.00  0.00    +0.090 C 
ATOM     11  C   UNL     1     -10.924  12.648  67.338  0.00  0.00    +0.042 C 
ATOM     12  C   UNL     1     -10.834  13.227  68.662  0.00  0.00    -0.022 A 
ATOM     13  C   UNL     1     -11.580  12.743  69.730  0.00  0.00    -0.001 A 
ATOM     14  C   UNL     1      -8.516  14.625  67.724  0.00  0.00    -0.027 C 
ATOM     15  C   UNL     1      -8.795  15.604  68.561  0.00  0.00    +0.005 C 
ATOM     16  C   UNL     1     -11.817  14.787  66.151  0.00  0.00    +0.025 C 
ATOM     17  C   UNL     1      -9.106  16.948  67.745  0.00  0.00    +0.214 C 
ATOM     18  O   UNL     1      -9.392  17.699  69.034  0.00  0.00    -0.214 OA
ATOM     19  C   UNL     1     -11.021  14.563  68.439  0.00  0.00    +0.014 A 
ATOM     20  C   UNL     1     -12.361  13.601  70.510  0.00  0.00    +0.040 A 
ENDROOT
BRANCH   1  22
ATOM     21  C   UNL     1     -14.379  15.098  71.617  0.00  0.00    +0.253 C 
ATOM     22  O   UNL     1     -13.464  15.703  70.741  0.00  0.00    -0.468 OA
ENDBRANCH   1  22
TORSDOF 1
ENDMDL
MODEL 5
REMARK VINA RESULT:      -6.3      2.094      3.986
REMARK  Name = 
REMARK  1 active torsions:
REMARK  status: ('A' for Active; 'I' for Inactive)
REMARK    1  A    between atoms: O_2  and  C_3
REMARK                            x       y       z     vdW  Elec       q    Type
REMARK                         _______ _______ _______ _____ _____    ______ ____
ROOT
ATOM      1  C   UNL     1     -11.729  12.974  69.198  0.00  0.00    +0.172 A 
ATOM      2  C   UNL     1     -11.140  13.039  67.937  0.00  0.00    +0.168 A 
ATOM      3  O   UNL     1     -10.841  12.153  66.980  0.00  0.00    -0.473 OA
ATOM      4  C   UNL     1      -9.988  12.796  65.881  0.00  0.00    +0.204 C 
ATOM      5  C   UNL     1     -10.058  14.293  66.467  0.00  0.00    +0.067 C 
ATOM      6  C   UNL     1     -10.168  15.277  65.236  0.00  0.00    +0.044 C 
ATOM      7  C   UNL     1     -10.302  16.775  66.053  0.00  0.00    +0.066 C 
ATOM      8  N   UNL     1      -8.739  16.944  66.114  0.00  0.00    -0.272 NA
ATOM      9  C   UNL     1      -8.089  15.813  66.493  0.00  0.00    +0.073 C 
ATOM     10  C   UNL     1      -8.526  17.948  67.164  0.00  0.00    +0.090 C 
ATOM     11  C   UNL     1     -10.331  16.390  67.615  0.00  0.00    +0.042 C 
ATOM     12  C   UNL     1     -11.419  15.489  67.935  0.00  0.00    -0.022 A 
ATOM     13  C   UNL     1     -11.946  15.395  69.218  0.00  0.00    -0.001 A 
ATOM     14  C   UNL     1     -11.766  15.154  65.111  0.00  0.00    -0.027 C 
ATOM     15  C   UNL     1     -12.205  13.931  65.333  0.00  0.00    +0.005 C 
ATOM     16  C   UNL     1      -8.633  14.547  66.904  0.00  0.00    +0.025 C 
ATOM     17  C   UNL     1     -11.218  12.866  64.656  0.00  0.00    +0.214 C 
ATOM     18  O   UNL     1     -12.052  11.712  65.187  0.00  0.00    -0.214 OA
ATOM     19  C   UNL     1     -10.992  14.286  67.443  0.00  0.00    +0.014 A 
ATOM     20  C   UNL     1     -12.074  14.158  69.855  0.00  0.00    +0.040 A 
ENDROOT
BRANCH   1  22
ATOM     21  C   UNL     1     -12.472  11.218  70.693  0.00  0.00    +0.253 C 
ATOM     22  O   UNL     1     -11.441  11.863  69.991  0.00  0.00    -0.468 OA
ENDBRANCH   1  22
TORSDOF 1
ENDMDL
MODEL 6
REMARK VINA RESULT:      -6.2      4.489      6.846
REMARK  Name = 
REMARK  1 active torsions:
REMARK  status: ('A' for Active; 'I' for Inactive)
REMARK    1  A    between atoms: O_2  and  C_3
REMARK                            x       y       z     vdW  Elec       q    Type
REMARK                         _______ _______ _______ _____ _____    ______ ____
ROOT
ATOM      1  C   UNL     1      -9.492  15.828  66.109  0.00  0.00    +0.172 A 
ATOM      2  C   UNL     1      -9.273  17.200  66.218  0.00  0.00    +0.168 A 
ATOM      3  O   UNL     1      -9.990  18.300  65.964  0.00  0.00    -0.473 OA
ATOM      4  C   UNL     1      -9.125  19.560  66.079  0.00  0.00    +0.204 C 
ATOM      5  C   UNL     1      -7.803  18.809  66.608  0.00  0.00    +0.067 C 
ATOM      6  C   UNL     1      -7.126  19.748  67.684  0.00  0.00    +0.044 C 
ATOM      7  C   UNL     1      -5.811  18.762  68.164  0.00  0.00    +0.066 C 
ATOM      8  N   UNL     1      -4.896  19.330  67.018  0.00  0.00    -0.272 NA
ATOM      9  C   UNL     1      -5.521  19.402  65.814  0.00  0.00    +0.073 C 
ATOM     10  C   UNL     1      -3.817  18.340  66.896  0.00  0.00    +0.090 C 
ATOM     11  C   UNL     1      -6.005  17.390  67.344  0.00  0.00    +0.042 C 
ATOM     12  C   UNL     1      -7.286  16.770  67.612  0.00  0.00    -0.022 A 
ATOM     13  C   UNL     1      -7.496  15.408  67.433  0.00  0.00    -0.001 A 
ATOM     14  C   UNL     1      -8.025  19.217  68.906  0.00  0.00    -0.027 C 
ATOM     15  C   UNL     1      -9.278  18.994  68.562  0.00  0.00    +0.005 C 
ATOM     16  C   UNL     1      -6.843  18.970  65.450  0.00  0.00    +0.025 C 
ATOM     17  C   UNL     1      -9.786  20.149  67.574  0.00  0.00    +0.214 C 
ATOM     18  O   UNL     1     -11.141  19.475  67.436  0.00  0.00    -0.214 OA
ATOM     19  C   UNL     1      -8.168  17.545  66.912  0.00  0.00    +0.014 A 
ATOM     20  C   UNL     1      -8.569  14.940  66.668  0.00  0.00    +0.040 A 
ENDROOT
BRANCH   1  22
ATOM     21  C   UNL     1     -10.538  14.009  64.897  0.00  0.00    +0.253 C 
ATOM     22  O   UNL     1     -10.236  15.375  65.019  0.00  0.00    -0.468 OA
ENDBRANCH   1  22
TORSDOF 1
ENDMDL
MODEL 7
REMARK VINA RESULT:      -6.1      5.655      8.448
REMARK  Name = 
REMARK  1 active torsions:
REMARK  status: ('A' for Active; 'I' for Inactive)
REMARK    1  A    between atoms: O_2  and  C_3
REMARK                            x       y       z     vdW  Elec       q    Type
REMARK                         _______ _______ _______ _____ _____    ______ ____
ROOT
ATOM      1  C   UNL     1      -9.238  18.116  66.472  0.00  0.00    +0.172 A 
ATOM      2  C   UNL     1      -7.871  18.323  66.303  0.00  0.00    +0.168 A 
ATOM      3  O   UNL     1      -7.000  18.155  65.302  0.00  0.00    -0.473 OA
ATOM      4  C   UNL     1      -5.559  18.357  65.785  0.00  0.00    +0.204 C 
ATOM      5  C   UNL     1      -5.945  18.819  67.278  0.00  0.00    +0.067 C 
ATOM      6  C   UNL     1      -4.931  19.955  67.696  0.00  0.00    +0.044 C 
ATOM      7  C   UNL     1      -5.540  20.352  69.246  0.00  0.00    +0.066 C 
ATOM      8  N   UNL     1      -4.662  19.244  69.935  0.00  0.00    -0.272 NA
ATOM      9  C   UNL     1      -4.686  18.053  69.282  0.00  0.00    +0.073 C 
ATOM     10  C   UNL     1      -5.300  19.042  71.243  0.00  0.00    +0.090 C 
ATOM     11  C   UNL     1      -6.852  19.436  69.419  0.00  0.00    +0.042 C 
ATOM     12  C   UNL     1      -7.822  19.667  68.369  0.00  0.00    -0.022 A 
ATOM     13  C   UNL     1      -9.174  19.390  68.541  0.00  0.00    -0.001 A 
ATOM     14  C   UNL     1      -5.774  21.142  67.014  0.00  0.00    -0.027 C 
ATOM     15  C   UNL     1      -6.314  20.792  65.864  0.00  0.00    +0.005 C 
ATOM     16  C   UNL     1      -5.444  17.669  68.122  0.00  0.00    +0.025 C 
ATOM     17  C   UNL     1      -5.283  19.895  65.027  0.00  0.00    +0.214 C 
ATOM     18  O   UNL     1      -6.297  19.719  63.910  0.00  0.00    -0.214 OA
ATOM     19  C   UNL     1      -7.278  19.032  67.287  0.00  0.00    +0.014 A 
ATOM     20  C   UNL     1      -9.869  18.601  67.621  0.00  0.00    +0.040 A 
ENDROOT
BRANCH   1  22
ATOM     21  C   UNL     1      -9.318  15.716  66.143  0.00  0.00    +0.253 C 
ATOM     22  O   UNL     1      -9.806  17.001  65.853  0.00  0.00    -0.468 OA
ENDBRANCH   1  22
TORSDOF 1
ENDMDL
MODEL 8
REMARK VINA RESULT:      -6.1      2.209      4.333
REMARK  Name = 
REMARK  1 active torsions:
REMARK  status: ('A' for Active; 'I' for Inactive)
REMARK    1  A    between atoms: O_2  and  C_3
REMARK                            x       y       z     vdW  Elec       q    Type
REMARK                         _______ _______ _______ _____ _____    ______ ____
ROOT
ATOM      1  C   UNL     1      -7.834  15.173  67.425  0.00  0.00    +0.172 A 
ATOM      2  C   UNL     1      -9.170  14.942  67.103  0.00  0.00    +0.168 A 
ATOM      3  O   UNL     1     -10.198  15.702  66.711  0.00  0.00    -0.473 OA
ATOM      4  C   UNL     1     -11.506  14.903  66.716  0.00  0.00    +0.204 C 
ATOM      5  C   UNL     1     -10.837  13.485  67.077  0.00  0.00    +0.067 C 
ATOM      6  C   UNL     1     -11.610  12.377  66.259  0.00  0.00    +0.044 C 
ATOM      7  C   UNL     1     -10.721  10.986  66.714  0.00  0.00    +0.066 C 
ATOM      8  N   UNL     1     -11.626  10.755  67.980  0.00  0.00    -0.272 NA
ATOM      9  C   UNL     1     -11.866  11.891  68.686  0.00  0.00    +0.073 C 
ATOM     10  C   UNL     1     -10.829   9.865  68.834  0.00  0.00    +0.090 C 
ATOM     11  C   UNL     1      -9.536  11.543  67.650  0.00  0.00    +0.042 C 
ATOM     12  C   UNL     1      -8.716  12.523  66.968  0.00  0.00    -0.022 A 
ATOM     13  C   UNL     1      -7.405  12.781  67.352  0.00  0.00    -0.001 A 
ATOM     14  C   UNL     1     -10.726  12.557  64.928  0.00  0.00    -0.027 C 
ATOM     15  C   UNL     1     -10.422  13.815  64.680  0.00  0.00    +0.005 C 
ATOM     16  C   UNL     1     -11.355  13.217  68.472  0.00  0.00    +0.025 C 
ATOM     17  C   UNL     1     -11.683  14.753  64.995  0.00  0.00    +0.214 C 
ATOM     18  O   UNL     1     -10.886  15.995  64.634  0.00  0.00    -0.214 OA
ATOM     19  C   UNL     1      -9.501  13.642  66.955  0.00  0.00    +0.014 A 
ATOM     20  C   UNL     1      -6.974  14.086  67.605  0.00  0.00    +0.040 A 
ENDROOT
BRANCH   1  22
ATOM     21  C   UNL     1      -6.736  16.304  69.266  0.00  0.00    +0.253 C 
ATOM     22  O   UNL     1      -7.526  16.352  68.106  0.00  0.00    -0.468 OA
ENDBRANCH   1  22
TORSDOF 1
ENDMDL
MODEL 9
REMARK VINA RESULT:      -6.1      5.139      7.711
REMARK  Name = 
REMARK  1 active torsions:
REMARK  status: ('A' for Active; 'I' for Inactive)
REMARK    1  A    between atoms: O_2  and  C_3
REMARK                            x       y       z     vdW  Elec       q    Type
REMARK                         _______ _______ _______ _____ _____    ______ ____
ROOT
ATOM      1  C   UNL     1      -5.467  19.897  69.918  0.00  0.00    +0.172 A 
ATOM      2  C   UNL     1      -6.377  19.927  68.864  0.00  0.00    +0.168 A 
ATOM      3  O   UNL     1      -6.759  20.840  67.963  0.00  0.00    -0.473 OA
ATOM      4  C   UNL     1      -7.979  20.356  67.172  0.00  0.00    +0.204 C 
ATOM      5  C   UNL     1      -8.025  18.882  67.817  0.00  0.00    +0.067 C 
ATOM      6  C   UNL     1      -8.433  17.877  66.668  0.00  0.00    +0.044 C 
ATOM      7  C   UNL     1      -8.356  16.394  67.520  0.00  0.00    +0.066 C 
ATOM      8  N   UNL     1      -9.848  16.530  68.000  0.00  0.00    -0.272 NA
ATOM      9  C   UNL     1     -10.155  17.770  68.462  0.00  0.00    +0.073 C 
ATOM     10  C   UNL     1      -9.946  15.601  69.134  0.00  0.00    +0.090 C 
ATOM     11  C   UNL     1      -7.835  16.790  68.990  0.00  0.00    +0.042 C 
ATOM     12  C   UNL     1      -6.557  17.470  68.952  0.00  0.00    -0.022 A 
ATOM     13  C   UNL     1      -5.695  17.480  70.042  0.00  0.00    -0.001 A 
ATOM     14  C   UNL     1      -6.934  17.689  66.120  0.00  0.00    -0.027 C 
ATOM     15  C   UNL     1      -6.237  18.808  66.136  0.00  0.00    +0.005 C 
ATOM     16  C   UNL     1      -9.300  18.914  68.629  0.00  0.00    +0.025 C 
ATOM     17  C   UNL     1      -7.161  20.032  65.674  0.00  0.00    +0.214 C 
ATOM     18  O   UNL     1      -6.020  21.013  65.889  0.00  0.00    -0.214 OA
ATOM     19  C   UNL     1      -6.877  18.725  68.511  0.00  0.00    +0.014 A 
ATOM     20  C   UNL     1      -5.177  18.679  70.539  0.00  0.00    +0.040 A 
ENDROOT
BRANCH   1  22
ATOM     21  C   UNL     1      -4.210  21.203  71.527  0.00  0.00    +0.253 C 
ATOM     22  O   UNL     1      -5.323  21.055  70.683  0.00  0.00    -0.468 OA
ENDBRANCH   1  22
TORSDOF 1
ENDMDL
