MODEL 1
REMARK VINA RESULT:      -7.7      0.000      0.000
REMARK  Name = 
REMARK  4 active torsions:
REMARK  status: ('A' for Active; 'I' for Inactive)
REMARK    1  A    between atoms: S_2  and  C_5
REMARK    2  A    between atoms: C_10  and  C_11
REMARK    3  A    between atoms: C_16  and  C_17
REMARK    4  A    between atoms: C_17  and  C_18
REMARK                            x       y       z     vdW  Elec       q    Type
REMARK                         _______ _______ _______ _____ _____    ______ ____
ROOT
ATOM      1  C   UNL     1     -10.598  13.187  66.286  0.00  0.00    +0.130 A 
ATOM      2  C   UNL     1     -11.014  13.758  65.091  0.00  0.00    +0.091 A 
ATOM      3  C   UNL     1     -10.899  15.125  64.863  0.00  0.00    +0.023 A 
ATOM      4  C   UNL     1     -10.467  15.932  65.901  0.00  0.00    +0.086 A 
ATOM      5  N   UNL     1      -9.911  17.233  65.651  0.00  0.00    -0.218 NA
ATOM      6  C   UNL     1      -9.298  17.869  66.965  0.00  0.00    +0.193 C 
ATOM      7  N   UNL     1     -10.734  18.071  67.612  0.00  0.00    -0.057 NA
ATOM      8  S   UNL     1     -10.815  16.552  68.465  0.00  0.00    +0.080 S 
ATOM      9  O   UNL     1     -12.108  16.306  69.140  0.00  0.00    -0.152 OA
ATOM     10  O   UNL     1      -9.651  16.543  69.396  0.00  0.00    -0.152 OA
ATOM     11  C   UNL     1     -10.486  15.389  67.184  0.00  0.00    +0.140 A 
ATOM     12  C   UNL     1     -10.415  14.041  67.365  0.00  0.00    +0.041 A 
ENDROOT
BRANCH   1  14
ATOM     13  N   UNL     1      -9.236  11.515  67.219  0.00  0.00    +0.039 NA
ATOM     14  S   UNL     1      -9.931  11.597  66.229  0.00  0.00    +0.094 S 
ATOM     15  O   UNL     1     -10.876  10.506  66.520  0.00  0.00    -0.150 OA
ATOM     16  O   UNL     1      -8.972  11.357  65.142  0.00  0.00    -0.150 OA
ENDBRANCH   1  14
BRANCH   2  17
ATOM     17  C   UNL     1     -11.788  12.918  64.156  0.00  0.00    +0.420 C 
ATOM     18  F   UNL     1     -10.971  12.204  63.285  0.00  0.00    -0.166 F 
ATOM     19  F   UNL     1     -12.721  12.125  64.752  0.00  0.00    -0.166 F 
ATOM     20  F   UNL     1     -12.497  13.793  63.334  0.00  0.00    -0.166 F 
ENDBRANCH   2  17
BRANCH   6  21
ATOM     21  C   UNL     1      -9.280  19.384  66.312  0.00  0.00    +0.068 C 
BRANCH  21  22
ATOM     22  C   UNL     1      -7.885  19.822  66.565  0.00  0.00    -0.019 A 
ATOM     23  C   UNL     1      -7.360  19.996  67.830  0.00  0.00    -0.004 A 
ATOM     24  C   UNL     1      -6.244  20.763  68.067  0.00  0.00    -0.000 A 
ATOM     25  C   UNL     1      -5.693  21.393  66.967  0.00  0.00    -0.000 A 
ATOM     26  C   UNL     1      -5.860  20.767  65.737  0.00  0.00    -0.000 A 
ATOM     27  C   UNL     1      -6.987  19.981  65.523  0.00  0.00    -0.004 A 
ENDBRANCH  21  22
ENDBRANCH   6  21
TORSDOF 4
ENDMDL
MODEL 2
REMARK VINA RESULT:      -7.4      4.181      7.679
REMARK  Name = 
REMARK  4 active torsions:
REMARK  status: ('A' for Active; 'I' for Inactive)
REMARK    1  A    between atoms: S_2  and  C_5
REMARK    2  A    between atoms: C_10  and  C_11
REMARK    3  A    between atoms: C_16  and  C_17
REMARK    4  A    between atoms: C_17  and  C_18
REMARK                            x       y       z     vdW  Elec       q    Type
REMARK                         _______ _______ _______ _____ _____    ______ ____
ROOT
ATOM      1  C   UNL     1      -8.619  17.229  66.469  0.00  0.00    +0.130 A 
ATOM      2  C   UNL     1      -9.583  17.883  67.223  0.00  0.00    +0.091 A 
ATOM      3  C   UNL     1     -10.525  17.178  67.963  0.00  0.00    +0.023 A 
ATOM      4  C   UNL     1     -10.560  15.800  67.842  0.00  0.00    +0.086 A 
ATOM      5  N   UNL     1     -11.168  14.979  68.852  0.00  0.00    -0.218 NA
ATOM      6  C   UNL     1     -10.897  13.440  68.596  0.00  0.00    +0.193 C 
ATOM      7  N   UNL     1     -11.844  13.421  67.322  0.00  0.00    -0.057 NA
ATOM      8  S   UNL     1     -10.623  13.768  66.125  0.00  0.00    +0.080 S 
ATOM      9  O   UNL     1     -11.152  13.942  64.755  0.00  0.00    -0.152 OA
ATOM     10  O   UNL     1      -9.619  12.671  66.236  0.00  0.00    -0.152 OA
ATOM     11  C   UNL     1      -9.886  15.235  66.762  0.00  0.00    +0.140 A 
ATOM     12  C   UNL     1      -8.844  15.890  66.179  0.00  0.00    +0.041 A 
ENDROOT
BRANCH   1  14
ATOM     13  N   UNL     1      -6.299  17.045  66.144  0.00  0.00    +0.039 NA
ATOM     14  S   UNL     1      -7.065  17.965  66.335  0.00  0.00    +0.094 S 
ATOM     15  O   UNL     1      -6.830  18.722  65.094  0.00  0.00    -0.150 OA
ATOM     16  O   UNL     1      -6.545  18.564  67.572  0.00  0.00    -0.150 OA
ENDBRANCH   1  14
BRANCH   2  17
ATOM     17  C   UNL     1      -9.729  19.342  67.045  0.00  0.00    +0.420 C 
ATOM     18  F   UNL     1      -9.006  20.065  67.989  0.00  0.00    -0.166 F 
ATOM     19  F   UNL     1      -9.498  19.779  65.776  0.00  0.00    -0.166 F 
ATOM     20  F   UNL     1     -11.062  19.642  67.319  0.00  0.00    -0.166 F 
ENDBRANCH   2  17
BRANCH   6  21
ATOM     21  C   UNL     1     -12.109  12.980  69.616  0.00  0.00    +0.068 C 
BRANCH  21  22
ATOM     22  C   UNL     1     -11.748  11.575  69.926  0.00  0.00    -0.019 A 
ATOM     23  C   UNL     1     -12.480  10.772  70.777  0.00  0.00    -0.004 A 
ATOM     24  C   UNL     1     -11.952   9.647  71.367  0.00  0.00    -0.000 A 
ATOM     25  C   UNL     1     -10.623   9.383  71.095  0.00  0.00    -0.000 A 
ATOM     26  C   UNL     1     -10.136   9.821  69.869  0.00  0.00    -0.000 A 
ATOM     27  C   UNL     1     -10.695  10.949  69.280  0.00  0.00    -0.004 A 
ENDBRANCH  21  22
ENDBRANCH   6  21
TORSDOF 4
ENDMDL
MODEL 3
REMARK VINA RESULT:      -7.0      4.453      7.249
REMARK  Name = 
REMARK  4 active torsions:
REMARK  status: ('A' for Active; 'I' for Inactive)
REMARK    1  A    between atoms: S_2  and  C_5
REMARK    2  A    between atoms: C_10  and  C_11
REMARK    3  A    between atoms: C_16  and  C_17
REMARK    4  A    between atoms: C_17  and  C_18
REMARK                            x       y       z     vdW  Elec       q    Type
REMARK                         _______ _______ _______ _____ _____    ______ ____
ROOT
ATOM      1  C   UNL     1      -8.238  17.932  67.215  0.00  0.00    +0.130 A 
ATOM      2  C   UNL     1      -9.490  18.530  67.234  0.00  0.00    +0.091 A 
ATOM      3  C   UNL     1     -10.614  17.844  67.681  0.00  0.00    +0.023 A 
ATOM      4  C   UNL     1     -10.483  16.503  68.001  0.00  0.00    +0.086 A 
ATOM      5  N   UNL     1     -11.432  15.846  68.856  0.00  0.00    -0.218 NA
ATOM      6  C   UNL     1     -10.956  14.386  69.244  0.00  0.00    +0.193 C 
ATOM      7  N   UNL     1     -11.186  13.852  67.767  0.00  0.00    -0.057 NA
ATOM      8  S   UNL     1      -9.575  14.147  67.165  0.00  0.00    +0.080 S 
ATOM      9  O   UNL     1      -9.406  13.861  65.723  0.00  0.00    -0.152 OA
ATOM     10  O   UNL     1      -8.662  13.351  68.035  0.00  0.00    -0.152 OA
ATOM     11  C   UNL     1      -9.339  15.848  67.554  0.00  0.00    +0.140 A 
ATOM     12  C   UNL     1      -8.198  16.547  67.298  0.00  0.00    +0.041 A 
ENDROOT
BRANCH   1  14
ATOM     13  N   UNL     1      -5.997  18.158  67.882  0.00  0.00    +0.039 NA
ATOM     14  S   UNL     1      -6.866  18.927  67.533  0.00  0.00    +0.094 S 
ATOM     15  O   UNL     1      -6.208  19.494  66.343  0.00  0.00    -0.150 OA
ATOM     16  O   UNL     1      -6.992  19.818  68.695  0.00  0.00    -0.150 OA
ENDBRANCH   1  14
BRANCH   2  17
ATOM     17  C   UNL     1      -9.645  19.834  66.559  0.00  0.00    +0.420 C 
ATOM     18  F   UNL     1      -9.537  20.903  67.442  0.00  0.00    -0.166 F 
ATOM     19  F   UNL     1      -8.858  19.994  65.459  0.00  0.00    -0.166 F 
ATOM     20  F   UNL     1     -10.961  19.888  66.102  0.00  0.00    -0.166 F 
ENDBRANCH   2  17
BRANCH   6  21
ATOM     21  C   UNL     1     -12.467  13.944  69.735  0.00  0.00    +0.068 C 
BRANCH  21  22
ATOM     22  C   UNL     1     -12.650  14.749  70.967  0.00  0.00    -0.019 A 
ATOM     23  C   UNL     1     -11.607  15.145  71.779  0.00  0.00    -0.004 A 
ATOM     24  C   UNL     1     -11.792  15.527  73.087  0.00  0.00    -0.000 A 
ATOM     25  C   UNL     1     -13.086  15.453  73.566  0.00  0.00    -0.000 A 
ATOM     26  C   UNL     1     -14.108  15.622  72.638  0.00  0.00    -0.000 A 
ATOM     27  C   UNL     1     -13.895  15.247  71.317  0.00  0.00    -0.004 A 
ENDBRANCH  21  22
ENDBRANCH   6  21
TORSDOF 4
ENDMDL
MODEL 4
REMARK VINA RESULT:      -6.9      4.925      8.121
REMARK  Name = 
REMARK  4 active torsions:
REMARK  status: ('A' for Active; 'I' for Inactive)
REMARK    1  A    between atoms: S_2  and  C_5
REMARK    2  A    between atoms: C_10  and  C_11
REMARK    3  A    between atoms: C_16  and  C_17
REMARK    4  A    between atoms: C_17  and  C_18
REMARK                            x       y       z     vdW  Elec       q    Type
REMARK                         _______ _______ _______ _____ _____    ______ ____
ROOT
ATOM      1  C   UNL     1      -6.740  19.776  67.350  0.00  0.00    +0.130 A 
ATOM      2  C   UNL     1      -6.404  19.077  68.501  0.00  0.00    +0.091 A 
ATOM      3  C   UNL     1      -7.029  17.879  68.829  0.00  0.00    +0.023 A 
ATOM      4  C   UNL     1      -8.084  17.449  68.042  0.00  0.00    +0.086 A 
ATOM      5  N   UNL     1      -8.487  16.070  68.028  0.00  0.00    -0.218 NA
ATOM      6  C   UNL     1      -9.564  15.788  66.902  0.00  0.00    +0.193 C 
ATOM      7  N   UNL     1     -10.680  16.612  67.675  0.00  0.00    -0.057 NA
ATOM      8  S   UNL     1     -10.389  18.156  66.918  0.00  0.00    +0.080 S 
ATOM      9  O   UNL     1     -11.199  19.263  67.471  0.00  0.00    -0.152 OA
ATOM     10  O   UNL     1     -10.600  17.942  65.458  0.00  0.00    -0.152 OA
ATOM     11  C   UNL     1      -8.662  18.379  67.183  0.00  0.00    +0.140 A 
ATOM     12  C   UNL     1      -7.946  19.451  66.743  0.00  0.00    +0.041 A 
ENDROOT
BRANCH   1  14
ATOM     13  N   UNL     1      -5.898  20.793  65.407  0.00  0.00    +0.039 NA
ATOM     14  S   UNL     1      -5.488  20.639  66.537  0.00  0.00    +0.094 S 
ATOM     15  O   UNL     1      -5.341  22.052  66.925  0.00  0.00    -0.150 OA
ATOM     16  O   UNL     1      -4.243  19.887  66.327  0.00  0.00    -0.150 OA
ENDBRANCH   1  14
BRANCH   2  17
ATOM     17  C   UNL     1      -5.531  19.745  69.486  0.00  0.00    +0.420 C 
ATOM     18  F   UNL     1      -4.181  19.509  69.242  0.00  0.00    -0.166 F 
ATOM     19  F   UNL     1      -5.797  21.068  69.668  0.00  0.00    -0.166 F 
ATOM     20  F   UNL     1      -5.777  19.131  70.713  0.00  0.00    -0.166 F 
ENDBRANCH   2  17
BRANCH   6  21
ATOM     21  C   UNL     1     -10.017  14.358  67.588  0.00  0.00    +0.068 C 
BRANCH  21  22
ATOM     22  C   UNL     1     -10.683  13.661  66.460  0.00  0.00    -0.019 A 
ATOM     23  C   UNL     1      -9.996  13.017  65.451  0.00  0.00    -0.004 A 
ATOM     24  C   UNL     1     -10.568  12.730  64.234  0.00  0.00    -0.000 A 
ATOM     25  C   UNL     1     -11.868  13.164  64.055  0.00  0.00    -0.000 A 
ATOM     26  C   UNL     1     -12.660  13.255  65.193  0.00  0.00    -0.000 A 
ATOM     27  C   UNL     1     -12.061  13.528  66.418  0.00  0.00    -0.004 A 
ENDBRANCH  21  22
ENDBRANCH   6  21
TORSDOF 4
ENDMDL
MODEL 5
REMARK VINA RESULT:      -6.9      5.039      8.003
REMARK  Name = 
REMARK  4 active torsions:
REMARK  status: ('A' for Active; 'I' for Inactive)
REMARK    1  A    between atoms: S_2  and  C_5
REMARK    2  A    between atoms: C_10  and  C_11
REMARK    3  A    between atoms: C_16  and  C_17
REMARK    4  A    between atoms: C_17  and  C_18
REMARK                            x       y       z     vdW  Elec       q    Type
REMARK                         _______ _______ _______ _____ _____    ______ ____
ROOT
ATOM      1  C   UNL     1      -6.412  19.385  66.625  0.00  0.00    +0.130 A 
ATOM      2  C   UNL     1      -6.383  19.517  68.006  0.00  0.00    +0.091 A 
ATOM      3  C   UNL     1      -7.334  18.901  68.812  0.00  0.00    +0.023 A 
ATOM      4  C   UNL     1      -8.387  18.243  68.203  0.00  0.00    +0.086 A 
ATOM      5  N   UNL     1      -9.143  17.240  68.901  0.00  0.00    -0.218 NA
ATOM      6  C   UNL     1     -10.147  16.487  67.936  0.00  0.00    +0.193 C 
ATOM      7  N   UNL     1     -11.067  17.771  67.789  0.00  0.00    -0.057 NA
ATOM      8  S   UNL     1     -10.304  18.437  66.368  0.00  0.00    +0.080 S 
ATOM      9  O   UNL     1     -10.836  19.754  65.957  0.00  0.00    -0.152 OA
ATOM     10  O   UNL     1     -10.429  17.393  65.311  0.00  0.00    -0.152 OA
ATOM     11  C   UNL     1      -8.613  18.507  66.854  0.00  0.00    +0.140 A 
ATOM     12  C   UNL     1      -7.599  18.943  66.057  0.00  0.00    +0.041 A 
ENDROOT
BRANCH   1  14
ATOM     13  N   UNL     1      -5.160  18.863  64.706  0.00  0.00    +0.039 NA
ATOM     14  S   UNL     1      -4.904  19.345  65.788  0.00  0.00    +0.094 S 
ATOM     15  O   UNL     1      -4.395  20.654  65.342  0.00  0.00    -0.150 OA
ATOM     16  O   UNL     1      -3.910  18.409  66.330  0.00  0.00    -0.150 OA
ENDBRANCH   1  14
BRANCH   2  17
ATOM     17  C   UNL     1      -5.457  20.510  68.587  0.00  0.00    +0.420 C 
ATOM     18  F   UNL     1      -4.202  19.971  68.850  0.00  0.00    -0.166 F 
ATOM     19  F   UNL     1      -5.379  21.680  67.894  0.00  0.00    -0.166 F 
ATOM     20  F   UNL     1      -5.968  20.839  69.841  0.00  0.00    -0.166 F 
ENDBRANCH   2  17
BRANCH   6  21
ATOM     21  C   UNL     1     -11.027  15.889  69.197  0.00  0.00    +0.068 C 
BRANCH  21  22
ATOM     22  C   UNL     1     -11.487  14.581  68.672  0.00  0.00    -0.019 A 
ATOM     23  C   UNL     1     -11.738  13.485  69.474  0.00  0.00    -0.004 A 
ATOM     24  C   UNL     1     -11.769  12.202  68.981  0.00  0.00    -0.000 A 
ATOM     25  C   UNL     1     -11.491  12.058  67.635  0.00  0.00    -0.000 A 
ATOM     26  C   UNL     1     -11.817  13.129  66.811  0.00  0.00    -0.000 A 
ATOM     27  C   UNL     1     -11.797  14.418  67.332  0.00  0.00    -0.004 A 
ENDBRANCH  21  22
ENDBRANCH   6  21
TORSDOF 4
ENDMDL
MODEL 6
REMARK VINA RESULT:      -6.8      5.390      8.029
REMARK  Name = 
REMARK  4 active torsions:
REMARK  status: ('A' for Active; 'I' for Inactive)
REMARK    1  A    between atoms: S_2  and  C_5
REMARK    2  A    between atoms: C_10  and  C_11
REMARK    3  A    between atoms: C_16  and  C_17
REMARK    4  A    between atoms: C_17  and  C_18
REMARK                            x       y       z     vdW  Elec       q    Type
REMARK                         _______ _______ _______ _____ _____    ______ ____
ROOT
ATOM      1  C   UNL     1      -5.966  18.056  69.030  0.00  0.00    +0.130 A 
ATOM      2  C   UNL     1      -6.849  19.071  68.689  0.00  0.00    +0.091 A 
ATOM      3  C   UNL     1      -8.218  18.841  68.603  0.00  0.00    +0.023 A 
ATOM      4  C   UNL     1      -8.679  17.545  68.750  0.00  0.00    +0.086 A 
ATOM      5  N   UNL     1     -10.044  17.276  69.108  0.00  0.00    -0.218 NA
ATOM      6  C   UNL     1     -10.274  15.742  69.424  0.00  0.00    +0.193 C 
ATOM      7  N   UNL     1     -10.085  15.336  67.901  0.00  0.00    -0.057 NA
ATOM      8  S   UNL     1      -8.369  15.023  67.961  0.00  0.00    +0.080 S 
ATOM      9  O   UNL     1      -7.767  14.703  66.648  0.00  0.00    -0.152 OA
ATOM     10  O   UNL     1      -8.186  13.945  68.973  0.00  0.00    -0.152 OA
ATOM     11  C   UNL     1      -7.744  16.518  68.650  0.00  0.00    +0.140 A 
ATOM     12  C   UNL     1      -6.429  16.752  68.920  0.00  0.00    +0.041 A 
ENDROOT
BRANCH   1  14
ATOM     13  N   UNL     1      -4.102  17.419  70.310  0.00  0.00    +0.039 NA
ATOM     14  S   UNL     1      -4.573  18.478  69.955  0.00  0.00    +0.094 S 
ATOM     15  O   UNL     1      -3.431  18.989  69.178  0.00  0.00    -0.150 OA
ATOM     16  O   UNL     1      -4.847  19.152  71.231  0.00  0.00    -0.150 OA
ENDBRANCH   1  14
BRANCH   2  17
ATOM     17  C   UNL     1      -6.284  20.344  68.199  0.00  0.00    +0.420 C 
ATOM     18  F   UNL     1      -5.872  21.174  69.236  0.00  0.00    -0.166 F 
ATOM     19  F   UNL     1      -5.325  20.203  67.242  0.00  0.00    -0.166 F 
ATOM     20  F   UNL     1      -7.333  21.034  67.593  0.00  0.00    -0.166 F 
ENDBRANCH   2  17
BRANCH   6  21
ATOM     21  C   UNL     1     -11.911  15.881  69.276  0.00  0.00    +0.068 C 
BRANCH  21  22
ATOM     22  C   UNL     1     -12.382  15.562  70.646  0.00  0.00    -0.019 A 
ATOM     23  C   UNL     1     -13.683  15.206  70.940  0.00  0.00    -0.004 A 
ATOM     24  C   UNL     1     -14.207  15.302  72.208  0.00  0.00    -0.000 A 
ATOM     25  C   UNL     1     -13.368  15.820  73.176  0.00  0.00    -0.000 A 
ATOM     26  C   UNL     1     -12.005  15.614  72.999  0.00  0.00    -0.000 A 
ATOM     27  C   UNL     1     -11.497  15.502  71.710  0.00  0.00    -0.004 A 
ENDBRANCH  21  22
ENDBRANCH   6  21
TORSDOF 4
ENDMDL
MODEL 7
REMARK VINA RESULT:      -6.6      5.081      8.276
REMARK  Name = 
REMARK  4 active torsions:
REMARK  status: ('A' for Active; 'I' for Inactive)
REMARK    1  A    between atoms: S_2  and  C_5
REMARK    2  A    between atoms: C_10  and  C_11
REMARK    3  A    between atoms: C_16  and  C_17
REMARK    4  A    between atoms: C_17  and  C_18
REMARK                            x       y       z     vdW  Elec       q    Type
REMARK                         _______ _______ _______ _____ _____    ______ ____
ROOT
ATOM      1  C   UNL     1      -5.705  18.705  69.695  0.00  0.00    +0.130 A 
ATOM      2  C   UNL     1      -6.143  19.588  68.718  0.00  0.00    +0.091 A 
ATOM      3  C   UNL     1      -7.161  19.246  67.835  0.00  0.00    +0.023 A 
ATOM      4  C   UNL     1      -7.657  17.954  67.871  0.00  0.00    +0.086 A 
ATOM      5  N   UNL     1      -8.952  17.639  67.336  0.00  0.00    -0.218 NA
ATOM      6  C   UNL     1      -9.382  16.155  67.682  0.00  0.00    +0.193 C 
ATOM      7  N   UNL     1      -8.293  15.544  66.704  0.00  0.00    -0.057 NA
ATOM      8  S   UNL     1      -7.007  15.374  67.871  0.00  0.00    +0.080 S 
ATOM      9  O   UNL     1      -5.726  14.909  67.297  0.00  0.00    -0.152 OA
ATOM     10  O   UNL     1      -7.538  14.475  68.935  0.00  0.00    -0.152 OA
ATOM     11  C   UNL     1      -6.902  16.997  68.545  0.00  0.00    +0.140 A 
ATOM     12  C   UNL     1      -6.042  17.368  69.534  0.00  0.00    +0.041 A 
ENDROOT
BRANCH   1  14
ATOM     13  N   UNL     1      -5.229  18.434  71.979  0.00  0.00    +0.039 NA
ATOM     14  S   UNL     1      -5.189  19.364  71.203  0.00  0.00    +0.094 S 
ATOM     15  O   UNL     1      -3.753  19.679  71.295  0.00  0.00    -0.150 OA
ATOM     16  O   UNL     1      -6.109  20.333  71.813  0.00  0.00    -0.150 OA
ENDBRANCH   1  14
BRANCH   2  17
ATOM     17  C   UNL     1      -5.352  20.814  68.489  0.00  0.00    +0.420 C 
ATOM     18  F   UNL     1      -5.740  21.486  67.334  0.00  0.00    -0.166 F 
ATOM     19  F   UNL     1      -5.278  21.645  69.566  0.00  0.00    -0.166 F 
ATOM     20  F   UNL     1      -4.046  20.400  68.232  0.00  0.00    -0.166 F 
ENDBRANCH   2  17
BRANCH   6  21
ATOM     21  C   UNL     1     -10.558  16.146  66.525  0.00  0.00    +0.068 C 
BRANCH  21  22
ATOM     22  C   UNL     1     -11.225  14.843  66.760  0.00  0.00    -0.019 A 
ATOM     23  C   UNL     1     -11.431  14.308  68.015  0.00  0.00    -0.004 A 
ATOM     24  C   UNL     1     -11.671  12.969  68.218  0.00  0.00    -0.000 A 
ATOM     25  C   UNL     1     -11.653  12.170  67.091  0.00  0.00    -0.000 A 
ATOM     26  C   UNL     1     -12.019  12.770  65.891  0.00  0.00    -0.000 A 
ATOM     27  C   UNL     1     -11.785  14.128  65.713  0.00  0.00    -0.004 A 
ENDBRANCH  21  22
ENDBRANCH   6  21
TORSDOF 4
ENDMDL
MODEL 8
REMARK VINA RESULT:      -6.5      4.066      7.974
REMARK  Name = 
REMARK  4 active torsions:
REMARK  status: ('A' for Active; 'I' for Inactive)
REMARK    1  A    between atoms: S_2  and  C_5
REMARK    2  A    between atoms: C_10  and  C_11
REMARK    3  A    between atoms: C_16  and  C_17
REMARK    4  A    between atoms: C_17  and  C_18
REMARK                            x       y       z     vdW  Elec       q    Type
REMARK                         _______ _______ _______ _____ _____    ______ ____
ROOT
ATOM      1  C   UNL     1     -10.555  15.971  66.565  0.00  0.00    +0.130 A 
ATOM      2  C   UNL     1     -10.020  15.300  67.655  0.00  0.00    +0.091 A 
ATOM      3  C   UNL     1      -9.674  13.955  67.579  0.00  0.00    +0.023 A 
ATOM      4  C   UNL     1      -9.981  13.260  66.423  0.00  0.00    +0.086 A 
ATOM      5  N   UNL     1      -9.298  12.043  66.082  0.00  0.00    -0.218 NA
ATOM      6  C   UNL     1      -9.669  11.553  64.623  0.00  0.00    +0.193 C 
ATOM      7  N   UNL     1     -11.148  11.174  65.058  0.00  0.00    -0.057 NA
ATOM      8  S   UNL     1     -11.899  12.699  64.667  0.00  0.00    +0.080 S 
ATOM      9  O   UNL     1     -13.327  12.784  65.043  0.00  0.00    -0.152 OA
ATOM     10  O   UNL     1     -11.658  12.910  63.211  0.00  0.00    -0.152 OA
ATOM     11  C   UNL     1     -10.894  13.844  65.548  0.00  0.00    +0.140 A 
ATOM     12  C   UNL     1     -11.070  15.195  65.535  0.00  0.00    +0.041 A 
ENDROOT
BRANCH   1  14
ATOM     13  N   UNL     1     -10.648  17.954  65.308  0.00  0.00    +0.039 NA
ATOM     14  S   UNL     1     -10.150  17.636  66.367  0.00  0.00    +0.094 S 
ATOM     15  O   UNL     1     -10.870  18.569  67.250  0.00  0.00    -0.150 OA
ATOM     16  O   UNL     1      -8.724  17.914  66.148  0.00  0.00    -0.150 OA
ENDBRANCH   1  14
BRANCH   2  17
ATOM     17  C   UNL     1     -10.037  15.982  68.964  0.00  0.00    +0.420 C 
ATOM     18  F   UNL     1      -8.980  16.875  69.110  0.00  0.00    -0.166 F 
ATOM     19  F   UNL     1     -11.234  16.545  69.289  0.00  0.00    -0.166 F 
ATOM     20  F   UNL     1      -9.802  15.000  69.925  0.00  0.00    -0.166 F 
ENDBRANCH   2  17
BRANCH   6  21
ATOM     21  C   UNL     1      -9.098  10.032  64.908  0.00  0.00    +0.068 C 
BRANCH  21  22
ATOM     22  C   UNL     1      -8.735   9.568  63.546  0.00  0.00    -0.019 A 
ATOM     23  C   UNL     1      -8.759  10.384  62.433  0.00  0.00    -0.004 A 
ATOM     24  C   UNL     1      -8.817   9.885  61.153  0.00  0.00    -0.000 A 
ATOM     25  C   UNL     1      -8.895   8.510  61.038  0.00  0.00    -0.000 A 
ATOM     26  C   UNL     1      -8.306   7.762  62.051  0.00  0.00    -0.000 A 
ATOM     27  C   UNL     1      -8.241   8.291  63.335  0.00  0.00    -0.004 A 
ENDBRANCH  21  22
ENDBRANCH   6  21
TORSDOF 4
ENDMDL
MODEL 9
REMARK VINA RESULT:      -6.4      4.420      8.584
REMARK  Name = 
REMARK  4 active torsions:
REMARK  status: ('A' for Active; 'I' for Inactive)
REMARK    1  A    between atoms: S_2  and  C_5
REMARK    2  A    between atoms: C_10  and  C_11
REMARK    3  A    between atoms: C_16  and  C_17
REMARK    4  A    between atoms: C_17  and  C_18
REMARK                            x       y       z     vdW  Elec       q    Type
REMARK                         _______ _______ _______ _____ _____    ______ ____
ROOT
ATOM      1  C   UNL     1     -10.322  13.575  67.208  0.00  0.00    +0.130 A 
ATOM      2  C   UNL     1     -11.329  12.800  66.651  0.00  0.00    +0.091 A 
ATOM      3  C   UNL     1     -11.504  11.469  67.013  0.00  0.00    +0.023 A 
ATOM      4  C   UNL     1     -10.576  10.890  67.861  0.00  0.00    +0.086 A 
ATOM      5  N   UNL     1     -10.894   9.711  68.617  0.00  0.00    -0.218 NA
ATOM      6  C   UNL     1      -9.758   9.365  69.664  0.00  0.00    +0.193 C 
ATOM      7  N   UNL     1      -8.742   8.946  68.519  0.00  0.00    -0.057 NA
ATOM      8  S   UNL     1      -7.982  10.503  68.308  0.00  0.00    +0.080 S 
ATOM      9  O   UNL     1      -7.002  10.552  67.202  0.00  0.00    -0.152 OA
ATOM     10  O   UNL     1      -7.397  10.855  69.633  0.00  0.00    -0.152 OA
ATOM     11  C   UNL     1      -9.367  11.557  68.037  0.00  0.00    +0.140 A 
ATOM     12  C   UNL     1      -9.286  12.902  67.842  0.00  0.00    +0.041 A 
ENDROOT
BRANCH   1  14
ATOM     13  N   UNL     1      -9.721  15.644  68.145  0.00  0.00    +0.039 NA
ATOM     14  S   UNL     1     -10.641  15.251  67.462  0.00  0.00    +0.094 S 
ATOM     15  O   UNL     1     -10.442  16.116  66.286  0.00  0.00    -0.150 OA
ATOM     16  O   UNL     1     -11.812  15.547  68.298  0.00  0.00    -0.150 OA
ENDBRANCH   1  14
BRANCH   2  17
ATOM     17  C   UNL     1     -12.070  13.353  65.499  0.00  0.00    +0.420 C 
ATOM     18  F   UNL     1     -13.073  14.234  65.888  0.00  0.00    -0.166 F 
ATOM     19  F   UNL     1     -11.279  13.875  64.520  0.00  0.00    -0.166 F 
ATOM     20  F   UNL     1     -12.747  12.284  64.915  0.00  0.00    -0.166 F 
ENDBRANCH   2  17
BRANCH   6  21
ATOM     21  C   UNL     1     -10.308   7.823  69.864  0.00  0.00    +0.068 C 
BRANCH  21  22
ATOM     22  C   UNL     1     -11.449   8.010  70.793  0.00  0.00    -0.019 A 
ATOM     23  C   UNL     1     -12.426   7.057  71.000  0.00  0.00    -0.004 A 
ATOM     24  C   UNL     1     -13.659   7.366  71.526  0.00  0.00    -0.000 A 
ATOM     25  C   UNL     1     -13.887   8.700  71.801  0.00  0.00    -0.000 A 
ATOM     26  C   UNL     1     -12.777   9.471  72.127  0.00  0.00    -0.000 A 
ATOM     27  C   UNL     1     -11.537   9.133  71.600  0.00  0.00    -0.004 A 
ENDBRANCH  21  22
ENDBRANCH   6  21
TORSDOF 4
ENDMDL
