MODEL 1
REMARK VINA RESULT:      -7.1      0.000      0.000
REMARK  Name = 
REMARK  5 active torsions:
REMARK  status: ('A' for Active; 'I' for Inactive)
REMARK    1  A    between atoms: C_2  and  O_3
REMARK    2  A    between atoms: O_3  and  C_4
REMARK    3  A    between atoms: C_4  and  C_6
REMARK    4  A    between atoms: C_9  and  C_10
REMARK    5  A    between atoms: C_11  and  C_12
REMARK                            x       y       z     vdW  Elec       q    Type
REMARK                         _______ _______ _______ _____ _____    ______ ____
ROOT
ATOM      1  C   UNL     1     -12.235  13.658  69.722  0.00  0.00    -0.040 C 
ATOM      2  C   UNL     1     -12.245  12.616  70.352  0.00  0.00    -0.058 C 
ENDROOT
BRANCH   2   3
ATOM      3  C   UNL     1     -12.092  11.278  70.880  0.00  0.00    +0.042 A 
ATOM      4  C   UNL     1     -11.219  10.437  70.247  0.00  0.00    +0.004 A 
ATOM      5  C   UNL     1     -11.226   9.057  70.418  0.00  0.00    -0.016 A 
ATOM      6  C   UNL     1      -9.978   8.359  70.061  0.00  0.00    +0.020 C 
ATOM      7  C   UNL     1     -10.021   6.878  70.230  0.00  0.00    +0.016 C 
ATOM      8  C   UNL     1     -11.350   6.250  69.922  0.00  0.00    +0.062 C 
ATOM      9  S   UNL     1     -12.496   6.827  71.224  0.00  0.00    -0.114 S 
ATOM     10  C   UNL     1      -8.905   8.884  71.009  0.00  0.00    +0.004 C 
ATOM     11  C   UNL     1      -9.540   8.672  68.651  0.00  0.00    +0.004 C 
ATOM     12  C   UNL     1     -12.135   8.586  71.358  0.00  0.00    +0.021 A 
ATOM     13  C   UNL     1     -13.030   9.391  72.010  0.00  0.00    +0.006 A 
ATOM     14  C   UNL     1     -13.104  10.730  71.659  0.00  0.00    +0.009 A 
ENDBRANCH   2   3
BRANCH   1  18
ATOM     15  C   UNL     1     -10.488  16.168  66.875  0.00  0.00    +0.095 A 
ATOM     16  C   UNL     1     -11.115  14.988  66.491  0.00  0.00    +0.106 A 
ATOM     17  N   UNL     1     -11.761  14.219  67.386  0.00  0.00    -0.235 NA
ATOM     18  C   UNL     1     -11.989  14.609  68.662  0.00  0.00    +0.123 A 
ATOM     19  C   UNL     1     -11.608  15.907  68.969  0.00  0.00    +0.028 A 
ATOM     20  C   UNL     1     -10.909  16.706  68.075  0.00  0.00    +0.010 A 
BRANCH  15  21
ATOM     21  C   UNL     1     -10.216  17.129  65.797  0.00  0.00    +0.343 C 
ATOM     22  O   UNL     1     -10.824  16.908  64.710  0.00  0.00    -0.245 OA
BRANCH  21  23
ATOM     23  O   UNL     1      -9.044  17.874  65.745  0.00  0.00    -0.445 OA
BRANCH  23  25
ATOM     24  C   UNL     1     -10.207  19.924  66.304  0.00  0.00    +0.051 C 
ATOM     25  C   UNL     1      -8.904  19.136  66.387  0.00  0.00    +0.209 C 
ENDBRANCH  23  25
ENDBRANCH  21  23
ENDBRANCH  15  21
ENDBRANCH   1  18
TORSDOF 5
ENDMDL
MODEL 2
REMARK VINA RESULT:      -6.9      1.850      2.743
REMARK  Name = 
REMARK  5 active torsions:
REMARK  status: ('A' for Active; 'I' for Inactive)
REMARK    1  A    between atoms: C_2  and  O_3
REMARK    2  A    between atoms: O_3  and  C_4
REMARK    3  A    between atoms: C_4  and  C_6
REMARK    4  A    between atoms: C_9  and  C_10
REMARK    5  A    between atoms: C_11  and  C_12
REMARK                            x       y       z     vdW  Elec       q    Type
REMARK                         _______ _______ _______ _____ _____    ______ ____
ROOT
ATOM      1  C   UNL     1     -11.525  11.650  67.653  0.00  0.00    -0.040 C 
ATOM      2  C   UNL     1     -11.107  10.704  68.295  0.00  0.00    -0.058 C 
ENDROOT
BRANCH   2   3
ATOM      3  C   UNL     1     -10.415   9.770  69.156  0.00  0.00    +0.042 A 
ATOM      4  C   UNL     1     -11.165   8.856  69.843  0.00  0.00    +0.004 A 
ATOM      5  C   UNL     1     -10.692   8.147  70.941  0.00  0.00    -0.016 A 
ATOM      6  C   UNL     1     -11.418   6.907  71.267  0.00  0.00    +0.020 C 
ATOM      7  C   UNL     1     -10.905   6.180  72.464  0.00  0.00    +0.016 C 
ATOM      8  C   UNL     1     -10.394   7.065  73.564  0.00  0.00    +0.062 C 
ATOM      9  S   UNL     1      -8.885   7.862  72.912  0.00  0.00    -0.114 S 
ATOM     10  C   UNL     1     -11.240   5.977  70.071  0.00  0.00    +0.004 C 
ATOM     11  C   UNL     1     -12.897   7.149  71.445  0.00  0.00    +0.004 C 
ATOM     12  C   UNL     1      -9.354   8.364  71.248  0.00  0.00    +0.021 A 
ATOM     13  C   UNL     1      -8.568   9.273  70.591  0.00  0.00    +0.006 A 
ATOM     14  C   UNL     1      -9.147  10.086  69.629  0.00  0.00    +0.009 A 
ENDBRANCH   2   3
BRANCH   1  18
ATOM     15  C   UNL     1     -10.759  15.341  65.850  0.00  0.00    +0.095 A 
ATOM     16  C   UNL     1     -11.437  14.342  65.161  0.00  0.00    +0.106 A 
ATOM     17  N   UNL     1     -11.771  13.185  65.761  0.00  0.00    -0.235 NA
ATOM     18  C   UNL     1     -11.627  12.977  67.090  0.00  0.00    +0.123 A 
ATOM     19  C   UNL     1     -11.209  14.077  67.826  0.00  0.00    +0.028 A 
ATOM     20  C   UNL     1     -10.826  15.268  67.228  0.00  0.00    +0.010 A 
BRANCH  15  21
ATOM     21  C   UNL     1     -10.842  16.688  65.270  0.00  0.00    +0.343 C 
ATOM     22  O   UNL     1     -11.356  16.749  64.116  0.00  0.00    -0.245 OA
BRANCH  21  23
ATOM     23  O   UNL     1      -9.989  17.716  65.655  0.00  0.00    -0.445 OA
BRANCH  23  25
ATOM     24  C   UNL     1     -10.388  19.048  67.638  0.00  0.00    +0.051 C 
ATOM     25  C   UNL     1     -10.460  18.976  66.117  0.00  0.00    +0.209 C 
ENDBRANCH  23  25
ENDBRANCH  21  23
ENDBRANCH  15  21
ENDBRANCH   1  18
TORSDOF 5
ENDMDL
MODEL 3
REMARK VINA RESULT:      -6.8      2.292      3.262
REMARK  Name = 
REMARK  5 active torsions:
REMARK  status: ('A' for Active; 'I' for Inactive)
REMARK    1  A    between atoms: C_2  and  O_3
REMARK    2  A    between atoms: O_3  and  C_4
REMARK    3  A    between atoms: C_4  and  C_6
REMARK    4  A    between atoms: C_9  and  C_10
REMARK    5  A    between atoms: C_11  and  C_12
REMARK                            x       y       z     vdW  Elec       q    Type
REMARK                         _______ _______ _______ _____ _____    ______ ____
ROOT
ATOM      1  C   UNL     1     -10.503  10.942  66.442  0.00  0.00    -0.040 C 
ATOM      2  C   UNL     1     -10.529   9.812  66.894  0.00  0.00    -0.058 C 
ENDROOT
BRANCH   2   3
ATOM      3  C   UNL     1     -10.749   8.582  67.622  0.00  0.00    +0.042 A 
ATOM      4  C   UNL     1     -10.526   8.590  68.971  0.00  0.00    +0.004 A 
ATOM      5  C   UNL     1     -10.360   7.434  69.727  0.00  0.00    -0.016 A 
ATOM      6  C   UNL     1     -10.597   7.573  71.174  0.00  0.00    +0.020 C 
ATOM      7  C   UNL     1     -10.388   6.325  71.963  0.00  0.00    +0.016 C 
ATOM      8  C   UNL     1      -9.279   5.444  71.462  0.00  0.00    +0.062 C 
ATOM      9  S   UNL     1      -9.838   4.798  69.847  0.00  0.00    -0.114 S 
ATOM     10  C   UNL     1     -12.063   7.961  71.336  0.00  0.00    +0.004 C 
ATOM     11  C   UNL     1      -9.759   8.674  71.780  0.00  0.00    +0.004 C 
ATOM     12  C   UNL     1     -10.527   6.245  69.026  0.00  0.00    +0.021 A 
ATOM     13  C   UNL     1     -10.745   6.191  67.675  0.00  0.00    +0.006 A 
ATOM     14  C   UNL     1     -10.712   7.369  66.945  0.00  0.00    +0.009 A 
ENDBRANCH   2   3
BRANCH   1  18
ATOM     15  C   UNL     1     -10.637  14.901  65.111  0.00  0.00    +0.095 A 
ATOM     16  C   UNL     1     -11.752  14.079  65.004  0.00  0.00    +0.106 A 
ATOM     17  N   UNL     1     -11.752  12.832  65.512  0.00  0.00    -0.235 NA
ATOM     18  C   UNL     1     -10.754  12.358  66.293  0.00  0.00    +0.123 A 
ATOM     19  C   UNL     1      -9.770  13.276  66.632  0.00  0.00    +0.028 A 
ATOM     20  C   UNL     1      -9.730  14.554  66.094  0.00  0.00    +0.010 A 
BRANCH  15  21
ATOM     21  C   UNL     1     -10.883  16.339  64.940  0.00  0.00    +0.343 C 
ATOM     22  O   UNL     1     -11.597  16.651  63.943  0.00  0.00    -0.245 OA
BRANCH  21  23
ATOM     23  O   UNL     1     -10.023  17.305  65.449  0.00  0.00    -0.445 OA
BRANCH  23  25
ATOM     24  C   UNL     1     -10.265  19.619  66.124  0.00  0.00    +0.051 C 
ATOM     25  C   UNL     1     -10.374  18.155  66.535  0.00  0.00    +0.209 C 
ENDBRANCH  23  25
ENDBRANCH  21  23
ENDBRANCH  15  21
ENDBRANCH   1  18
TORSDOF 5
ENDMDL
MODEL 4
REMARK VINA RESULT:      -6.8      1.392      1.874
REMARK  Name = 
REMARK  5 active torsions:
REMARK  status: ('A' for Active; 'I' for Inactive)
REMARK    1  A    between atoms: C_2  and  O_3
REMARK    2  A    between atoms: O_3  and  C_4
REMARK    3  A    between atoms: C_4  and  C_6
REMARK    4  A    between atoms: C_9  and  C_10
REMARK    5  A    between atoms: C_11  and  C_12
REMARK                            x       y       z     vdW  Elec       q    Type
REMARK                         _______ _______ _______ _____ _____    ______ ____
ROOT
ATOM      1  C   UNL     1     -11.306  13.895  68.170  0.00  0.00    -0.040 C 
ATOM      2  C   UNL     1     -11.493  12.954  68.919  0.00  0.00    -0.058 C 
ENDROOT
BRANCH   2   3
ATOM      3  C   UNL     1     -11.778  12.042  70.004  0.00  0.00    +0.042 A 
ATOM      4  C   UNL     1     -11.373  10.743  69.870  0.00  0.00    +0.004 A 
ATOM      5  C   UNL     1     -11.867   9.702  70.648  0.00  0.00    -0.016 A 
ATOM      6  C   UNL     1     -11.027   8.493  70.715  0.00  0.00    +0.020 C 
ATOM      7  C   UNL     1     -11.593   7.384  71.536  0.00  0.00    +0.016 C 
ATOM      8  C   UNL     1     -13.088   7.260  71.476  0.00  0.00    +0.062 C 
ATOM      9  S   UNL     1     -13.752   8.744  72.310  0.00  0.00    -0.114 S 
ATOM     10  C   UNL     1      -9.719   8.914  71.376  0.00  0.00    +0.004 C 
ATOM     11  C   UNL     1     -10.697   7.959  69.342  0.00  0.00    +0.004 C 
ATOM     12  C   UNL     1     -12.750  10.086  71.650  0.00  0.00    +0.021 A 
ATOM     13  C   UNL     1     -13.187  11.373  71.817  0.00  0.00    +0.006 A 
ATOM     14  C   UNL     1     -12.806  12.334  70.892  0.00  0.00    +0.009 A 
ENDBRANCH   2   3
BRANCH   1  18
ATOM     15  C   UNL     1      -9.849  17.626  66.977  0.00  0.00    +0.095 A 
ATOM     16  C   UNL     1     -10.288  16.702  66.036  0.00  0.00    +0.106 A 
ATOM     17  N   UNL     1     -10.845  15.536  66.410  0.00  0.00    -0.235 NA
ATOM     18  C   UNL     1     -11.166  15.253  67.694  0.00  0.00    +0.123 A 
ATOM     19  C   UNL     1     -10.985  16.290  68.599  0.00  0.00    +0.028 A 
ATOM     20  C   UNL     1     -10.381  17.487  68.245  0.00  0.00    +0.010 A 
BRANCH  15  21
ATOM     21  C   UNL     1      -9.685  19.003  66.494  0.00  0.00    +0.343 C 
ATOM     22  O   UNL     1     -10.661  19.466  65.837  0.00  0.00    -0.245 OA
BRANCH  21  23
ATOM     23  O   UNL     1      -8.434  19.572  66.285  0.00  0.00    -0.445 OA
BRANCH  23  25
ATOM     24  C   UNL     1      -6.917  19.593  68.173  0.00  0.00    +0.051 C 
ATOM     25  C   UNL     1      -7.800  20.414  67.240  0.00  0.00    +0.209 C 
ENDBRANCH  23  25
ENDBRANCH  21  23
ENDBRANCH  15  21
ENDBRANCH   1  18
TORSDOF 5
ENDMDL
MODEL 5
REMARK VINA RESULT:      -6.6      4.909      9.210
REMARK  Name = 
REMARK  5 active torsions:
REMARK  status: ('A' for Active; 'I' for Inactive)
REMARK    1  A    between atoms: C_2  and  O_3
REMARK    2  A    between atoms: O_3  and  C_4
REMARK    3  A    between atoms: C_4  and  C_6
REMARK    4  A    between atoms: C_9  and  C_10
REMARK    5  A    between atoms: C_11  and  C_12
REMARK                            x       y       z     vdW  Elec       q    Type
REMARK                         _______ _______ _______ _____ _____    ______ ____
ROOT
ATOM      1  C   UNL     1     -12.353  11.229  70.943  0.00  0.00    -0.040 C 
ATOM      2  C   UNL     1     -12.374  12.301  70.368  0.00  0.00    -0.058 C 
ENDROOT
BRANCH   2   3
ATOM      3  C   UNL     1     -12.159  13.477  69.554  0.00  0.00    +0.042 A 
ATOM      4  C   UNL     1     -11.682  13.297  68.285  0.00  0.00    +0.004 A 
ATOM      5  C   UNL     1     -11.110  14.315  67.530  0.00  0.00    -0.016 A 
ATOM      6  C   UNL     1     -11.081  14.097  66.073  0.00  0.00    +0.020 C 
ATOM      7  C   UNL     1     -10.440  15.192  65.290  0.00  0.00    +0.016 C 
ATOM      8  C   UNL     1      -9.281  15.857  65.976  0.00  0.00    +0.062 C 
ATOM      9  S   UNL     1      -9.985  16.755  67.403  0.00  0.00    -0.114 S 
ATOM     10  C   UNL     1     -12.535  14.018  65.620  0.00  0.00    +0.004 C 
ATOM     11  C   UNL     1     -10.415  12.791  65.711  0.00  0.00    +0.004 C 
ATOM     12  C   UNL     1     -11.135  15.571  68.124  0.00  0.00    +0.021 A 
ATOM     13  C   UNL     1     -11.597  15.796  69.393  0.00  0.00    +0.006 A 
ATOM     14  C   UNL     1     -11.979  14.711  70.167  0.00  0.00    +0.009 A 
ENDBRANCH   2   3
BRANCH   1  18
ATOM     15  C   UNL     1     -11.385   7.172  71.205  0.00  0.00    +0.095 A 
ATOM     16  C   UNL     1     -10.388   8.132  71.077  0.00  0.00    +0.106 A 
ATOM     17  N   UNL     1     -10.680   9.446  71.085  0.00  0.00    -0.235 NA
ATOM     18  C   UNL     1     -11.911   9.924  71.380  0.00  0.00    +0.123 A 
ATOM     19  C   UNL     1     -12.841   8.975  71.783  0.00  0.00    +0.028 A 
ATOM     20  C   UNL     1     -12.575   7.614  71.749  0.00  0.00    +0.010 A 
BRANCH  15  21
ATOM     21  C   UNL     1     -10.939   5.838  71.628  0.00  0.00    +0.343 C 
ATOM     22  O   UNL     1     -10.501   5.096  70.703  0.00  0.00    -0.245 OA
BRANCH  21  23
ATOM     23  O   UNL     1     -11.420   5.225  72.779  0.00  0.00    -0.445 OA
BRANCH  23  25
ATOM     24  C   UNL     1     -10.084   6.287  74.497  0.00  0.00    +0.051 C 
ATOM     25  C   UNL     1     -10.606   4.977  73.919  0.00  0.00    +0.209 C 
ENDBRANCH  23  25
ENDBRANCH  21  23
ENDBRANCH  15  21
ENDBRANCH   1  18
TORSDOF 5
ENDMDL
MODEL 6
REMARK VINA RESULT:      -6.5      1.675      2.545
REMARK  Name = 
REMARK  5 active torsions:
REMARK  status: ('A' for Active; 'I' for Inactive)
REMARK    1  A    between atoms: C_2  and  O_3
REMARK    2  A    between atoms: O_3  and  C_4
REMARK    3  A    between atoms: C_4  and  C_6
REMARK    4  A    between atoms: C_9  and  C_10
REMARK    5  A    between atoms: C_11  and  C_12
REMARK                            x       y       z     vdW  Elec       q    Type
REMARK                         _______ _______ _______ _____ _____    ______ ____
ROOT
ATOM      1  C   UNL     1     -11.535  12.395  68.638  0.00  0.00    -0.040 C 
ATOM      2  C   UNL     1     -11.401  11.210  68.879  0.00  0.00    -0.058 C 
ENDROOT
BRANCH   2   3
ATOM      3  C   UNL     1     -11.171   9.782  68.883  0.00  0.00    +0.042 A 
ATOM      4  C   UNL     1     -11.149   9.141  70.091  0.00  0.00    +0.004 A 
ATOM      5  C   UNL     1     -10.608   7.874  70.277  0.00  0.00    -0.016 A 
ATOM      6  C   UNL     1     -11.066   7.149  71.474  0.00  0.00    +0.020 C 
ATOM      7  C   UNL     1     -10.451   5.803  71.662  0.00  0.00    +0.016 C 
ATOM      8  C   UNL     1      -9.020   5.700  71.220  0.00  0.00    +0.062 C 
ATOM      9  S   UNL     1      -9.038   5.873  69.401  0.00  0.00    -0.114 S 
ATOM     10  C   UNL     1     -12.565   6.933  71.300  0.00  0.00    +0.004 C 
ATOM     11  C   UNL     1     -10.860   7.954  72.735  0.00  0.00    +0.004 C 
ATOM     12  C   UNL     1     -10.163   7.250  69.117  0.00  0.00    +0.021 A 
ATOM     13  C   UNL     1     -10.160   7.856  67.889  0.00  0.00    +0.006 A 
ATOM     14  C   UNL     1     -10.536   9.187  67.799  0.00  0.00    +0.009 A 
ENDBRANCH   2   3
BRANCH   1  18
ATOM     15  C   UNL     1     -10.721  15.717  66.236  0.00  0.00    +0.095 A 
ATOM     16  C   UNL     1     -11.567  14.708  65.789  0.00  0.00    +0.106 A 
ATOM     17  N   UNL     1     -11.910  13.681  66.587  0.00  0.00    -0.235 NA
ATOM     18  C   UNL     1     -11.604  13.639  67.905  0.00  0.00    +0.123 A 
ATOM     19  C   UNL     1     -11.001  14.780  68.416  0.00  0.00    +0.028 A 
ATOM     20  C   UNL     1     -10.606  15.836  67.608  0.00  0.00    +0.010 A 
BRANCH  15  21
ATOM     21  C   UNL     1     -10.772  16.976  65.481  0.00  0.00    +0.343 C 
ATOM     22  O   UNL     1     -11.169  16.874  64.285  0.00  0.00    -0.245 OA
BRANCH  21  23
ATOM     23  O   UNL     1      -9.982  18.071  65.811  0.00  0.00    -0.445 OA
BRANCH  23  25
ATOM     24  C   UNL     1     -10.178  19.686  67.605  0.00  0.00    +0.051 C 
ATOM     25  C   UNL     1     -10.527  19.337  66.163  0.00  0.00    +0.209 C 
ENDBRANCH  23  25
ENDBRANCH  21  23
ENDBRANCH  15  21
ENDBRANCH   1  18
TORSDOF 5
ENDMDL
MODEL 7
REMARK VINA RESULT:      -6.4      6.073     10.725
REMARK  Name = 
REMARK  5 active torsions:
REMARK  status: ('A' for Active; 'I' for Inactive)
REMARK    1  A    between atoms: C_2  and  O_3
REMARK    2  A    between atoms: O_3  and  C_4
REMARK    3  A    between atoms: C_4  and  C_6
REMARK    4  A    between atoms: C_9  and  C_10
REMARK    5  A    between atoms: C_11  and  C_12
REMARK                            x       y       z     vdW  Elec       q    Type
REMARK                         _______ _______ _______ _____ _____    ______ ____
ROOT
ATOM      1  C   UNL     1      -9.251  17.915  67.290  0.00  0.00    -0.040 C 
ATOM      2  C   UNL     1      -8.391  18.772  67.211  0.00  0.00    -0.058 C 
ENDROOT
BRANCH   2   3
ATOM      3  C   UNL     1      -7.407  19.762  66.831  0.00  0.00    +0.042 A 
ATOM      4  C   UNL     1      -6.757  19.591  65.640  0.00  0.00    +0.004 A 
ATOM      5  C   UNL     1      -5.574  20.245  65.313  0.00  0.00    -0.016 A 
ATOM      6  C   UNL     1      -5.260  20.326  63.876  0.00  0.00    +0.020 C 
ATOM      7  C   UNL     1      -3.974  21.010  63.555  0.00  0.00    +0.016 C 
ATOM      8  C   UNL     1      -2.877  20.781  64.554  0.00  0.00    +0.062 C 
ATOM      9  S   UNL     1      -3.401  21.630  66.085  0.00  0.00    -0.114 S 
ATOM     10  C   UNL     1      -6.374  21.151  63.238  0.00  0.00    +0.004 C 
ATOM     11  C   UNL     1      -5.261  18.966  63.220  0.00  0.00    +0.004 C 
ATOM     12  C   UNL     1      -5.133  21.168  66.255  0.00  0.00    +0.021 A 
ATOM     13  C   UNL     1      -5.749  21.366  67.461  0.00  0.00    +0.006 A 
ATOM     14  C   UNL     1      -6.814  20.549  67.810  0.00  0.00    +0.009 A 
ENDBRANCH   2   3
BRANCH   1  18
ATOM     15  C   UNL     1     -11.206  14.339  66.367  0.00  0.00    +0.095 A 
ATOM     16  C   UNL     1     -11.490  15.018  67.545  0.00  0.00    +0.106 A 
ATOM     17  N   UNL     1     -10.937  16.216  67.811  0.00  0.00    -0.235 NA
ATOM     18  C   UNL     1     -10.215  16.910  66.901  0.00  0.00    +0.123 A 
ATOM     19  C   UNL     1     -10.166  16.358  65.628  0.00  0.00    +0.028 A 
ATOM     20  C   UNL     1     -10.698  15.110  65.340  0.00  0.00    +0.010 A 
BRANCH  15  21
ATOM     21  C   UNL     1     -12.171  13.302  65.978  0.00  0.00    +0.343 C 
ATOM     22  O   UNL     1     -12.141  12.246  66.674  0.00  0.00    -0.245 OA
BRANCH  21  23
ATOM     23  O   UNL     1     -12.689  13.215  64.690  0.00  0.00    -0.445 OA
BRANCH  23  25
ATOM     24  C   UNL     1     -10.963  12.172  63.348  0.00  0.00    +0.051 C 
ATOM     25  C   UNL     1     -12.412  12.124  63.820  0.00  0.00    +0.209 C 
ENDBRANCH  23  25
ENDBRANCH  21  23
ENDBRANCH  15  21
ENDBRANCH   1  18
TORSDOF 5
ENDMDL
MODEL 8
REMARK VINA RESULT:      -6.4      4.598      9.625
REMARK  Name = 
REMARK  5 active torsions:
REMARK  status: ('A' for Active; 'I' for Inactive)
REMARK    1  A    between atoms: C_2  and  O_3
REMARK    2  A    between atoms: O_3  and  C_4
REMARK    3  A    between atoms: C_4  and  C_6
REMARK    4  A    between atoms: C_9  and  C_10
REMARK    5  A    between atoms: C_11  and  C_12
REMARK                            x       y       z     vdW  Elec       q    Type
REMARK                         _______ _______ _______ _____ _____    ______ ____
ROOT
ATOM      1  C   UNL     1     -11.418  13.729  69.071  0.00  0.00    -0.040 C 
ATOM      2  C   UNL     1     -10.698  14.693  68.887  0.00  0.00    -0.058 C 
ENDROOT
BRANCH   2   3
ATOM      3  C   UNL     1      -9.673  15.714  68.871  0.00  0.00    +0.042 A 
ATOM      4  C   UNL     1      -9.878  16.812  68.082  0.00  0.00    +0.004 A 
ATOM      5  C   UNL     1      -8.862  17.682  67.701  0.00  0.00    -0.016 A 
ATOM      6  C   UNL     1      -9.292  19.023  67.269  0.00  0.00    +0.020 C 
ATOM      7  C   UNL     1      -8.184  19.927  66.844  0.00  0.00    +0.016 C 
ATOM      8  C   UNL     1      -7.048  19.238  66.144  0.00  0.00    +0.062 C 
ATOM      9  S   UNL     1      -6.238  18.192  67.404  0.00  0.00    -0.114 S 
ATOM     10  C   UNL     1      -9.956  19.673  68.479  0.00  0.00    +0.004 C 
ATOM     11  C   UNL     1     -10.316  18.958  66.162  0.00  0.00    +0.004 C 
ATOM     12  C   UNL     1      -7.617  17.410  68.257  0.00  0.00    +0.021 A 
ATOM     13  C   UNL     1      -7.366  16.319  69.046  0.00  0.00    +0.006 A 
ATOM     14  C   UNL     1      -8.373  15.385  69.236  0.00  0.00    +0.009 A 
ENDBRANCH   2   3
BRANCH   1  18
ATOM     15  C   UNL     1     -12.028  10.249  71.301  0.00  0.00    +0.095 A 
ATOM     16  C   UNL     1     -12.782  11.390  71.547  0.00  0.00    +0.106 A 
ATOM     17  N   UNL     1     -12.661  12.486  70.777  0.00  0.00    -0.235 NA
ATOM     18  C   UNL     1     -11.939  12.503  69.632  0.00  0.00    +0.123 A 
ATOM     19  C   UNL     1     -11.412  11.281  69.237  0.00  0.00    +0.028 A 
ATOM     20  C   UNL     1     -11.494  10.147  70.031  0.00  0.00    +0.010 A 
BRANCH  15  21
ATOM     21  C   UNL     1     -12.542   9.003  71.887  0.00  0.00    +0.343 C 
ATOM     22  O   UNL     1     -13.710   9.073  72.367  0.00  0.00    -0.245 OA
BRANCH  21  23
ATOM     23  O   UNL     1     -11.700   8.007  72.370  0.00  0.00    -0.445 OA
BRANCH  23  25
ATOM     24  C   UNL     1     -11.710   6.524  70.455  0.00  0.00    +0.051 C 
ATOM     25  C   UNL     1     -11.809   6.646  71.972  0.00  0.00    +0.209 C 
ENDBRANCH  23  25
ENDBRANCH  21  23
ENDBRANCH  15  21
ENDBRANCH   1  18
TORSDOF 5
ENDMDL
MODEL 9
REMARK VINA RESULT:      -6.3      5.205      9.135
REMARK  Name = 
REMARK  5 active torsions:
REMARK  status: ('A' for Active; 'I' for Inactive)
REMARK    1  A    between atoms: C_2  and  O_3
REMARK    2  A    between atoms: O_3  and  C_4
REMARK    3  A    between atoms: C_4  and  C_6
REMARK    4  A    between atoms: C_9  and  C_10
REMARK    5  A    between atoms: C_11  and  C_12
REMARK                            x       y       z     vdW  Elec       q    Type
REMARK                         _______ _______ _______ _____ _____    ______ ____
ROOT
ATOM      1  C   UNL     1     -11.851  10.320  70.441  0.00  0.00    -0.040 C 
ATOM      2  C   UNL     1     -12.035  11.391  69.891  0.00  0.00    -0.058 C 
ENDROOT
BRANCH   2   3
ATOM      3  C   UNL     1     -11.964  12.686  69.251  0.00  0.00    +0.042 A 
ATOM      4  C   UNL     1     -11.545  12.734  67.950  0.00  0.00    +0.004 A 
ATOM      5  C   UNL     1     -11.102  13.897  67.331  0.00  0.00    -0.016 A 
ATOM      6  C   UNL     1     -11.136  13.894  65.858  0.00  0.00    +0.020 C 
ATOM      7  C   UNL     1     -10.634  15.145  65.219  0.00  0.00    +0.016 C 
ATOM      8  C   UNL     1      -9.498  15.806  65.945  0.00  0.00    +0.062 C 
ATOM      9  S   UNL     1     -10.194  16.422  67.518  0.00  0.00    -0.114 S 
ATOM     10  C   UNL     1     -12.602  13.750  65.461  0.00  0.00    +0.004 C 
ATOM     11  C   UNL     1     -10.385  12.720  65.279  0.00  0.00    +0.004 C 
ATOM     12  C   UNL     1     -11.200  15.048  68.104  0.00  0.00    +0.021 A 
ATOM     13  C   UNL     1     -11.608  15.045  69.411  0.00  0.00    +0.006 A 
ATOM     14  C   UNL     1     -11.855  13.830  70.032  0.00  0.00    +0.009 A 
ENDBRANCH   2   3
BRANCH   1  18
ATOM     15  C   UNL     1      -9.716   7.897  73.092  0.00  0.00    +0.095 A 
ATOM     16  C   UNL     1     -11.094   7.770  72.968  0.00  0.00    +0.106 A 
ATOM     17  N   UNL     1     -11.781   8.478  72.053  0.00  0.00    -0.235 NA
ATOM     18  C   UNL     1     -11.179   9.221  71.096  0.00  0.00    +0.123 A 
ATOM     19  C   UNL     1      -9.795   9.125  71.045  0.00  0.00    +0.028 A 
ATOM     20  C   UNL     1      -9.064   8.431  71.997  0.00  0.00    +0.010 A 
BRANCH  15  21
ATOM     21  C   UNL     1      -9.029   6.792  73.775  0.00  0.00    +0.343 C 
ATOM     22  O   UNL     1      -9.785   5.888  74.234  0.00  0.00    -0.245 OA
BRANCH  21  23
ATOM     23  O   UNL     1      -7.773   6.942  74.350  0.00  0.00    -0.445 OA
BRANCH  23  25
ATOM     24  C   UNL     1      -7.125   8.911  75.603  0.00  0.00    +0.051 C 
ATOM     25  C   UNL     1      -7.582   7.458  75.662  0.00  0.00    +0.209 C 
ENDBRANCH  23  25
ENDBRANCH  21  23
ENDBRANCH  15  21
ENDBRANCH   1  18
TORSDOF 5
ENDMDL
