MODEL 1
REMARK VINA RESULT:      -8.2      0.000      0.000
REMARK  Name = 
REMARK  10 active torsions:
REMARK  status: ('A' for Active; 'I' for Inactive)
REMARK    1  A    between atoms: O_2  and  C_3
REMARK    2  A    between atoms: C_8  and  O_9
REMARK    3  A    between atoms: O_9  and  C_10
REMARK    4  A    between atoms: N_12  and  S_13
REMARK    5  A    between atoms: S_13  and  C_16
REMARK    6  A    between atoms: C_19  and  C_20
REMARK    7  A    between atoms: C_27  and  C_28
REMARK    8  A    between atoms: C_35  and  O_36
REMARK    9  A    between atoms: O_36  and  C_37
REMARK   10  A    between atoms: C_37  and  C_38
REMARK                            x       y       z     vdW  Elec       q    Type
REMARK                         _______ _______ _______ _____ _____    ______ ____
ROOT
ATOM      1  C   UNL     1     -10.307  16.738  66.650  0.00  0.00    +0.233 A 
ATOM      2  C   UNL     1     -10.398  17.282  67.922  0.00  0.00    +0.265 A 
ATOM      3  N   UNL     1     -11.207  16.671  68.822  0.00  0.00    -0.187 NA
ATOM      4  C   UNL     1     -11.462  15.361  68.758  0.00  0.00    +0.203 A 
ATOM      5  N   UNL     1     -11.202  14.755  67.573  0.00  0.00    -0.203 NA
ATOM      6  C   UNL     1     -10.673  15.404  66.524  0.00  0.00    +0.212 A 
ATOM      7  N   UNL     1     -10.772  14.879  65.194  0.00  0.00    -0.074 NA
ENDROOT
BRANCH   4   8
ATOM      8  C   UNL     1     -12.352  14.668  69.699  0.00  0.00    +0.199 A 
ATOM      9  N   UNL     1     -12.948  15.418  70.657  0.00  0.00    -0.222 NA
ATOM     10  C   UNL     1     -13.609  14.774  71.645  0.00  0.00    +0.102 A 
ATOM     11  C   UNL     1     -13.436  13.439  71.895  0.00  0.00    +0.041 A 
ATOM     12  C   UNL     1     -12.593  12.735  71.052  0.00  0.00    +0.102 A 
ATOM     13  N   UNL     1     -12.040  13.409  70.044  0.00  0.00    -0.222 NA
ENDBRANCH   4   8
BRANCH   7  14
ATOM     14  S   UNL     1     -12.088  13.824  64.892  0.00  0.00    +0.094 S 
ATOM     15  O   UNL     1     -12.517  14.014  63.475  0.00  0.00    -0.148 OA
ATOM     16  O   UNL     1     -13.267  14.163  65.773  0.00  0.00    -0.148 OA
BRANCH  14  17
ATOM     17  C   UNL     1     -11.682  12.146  65.131  0.00  0.00    +0.127 A 
ATOM     18  C   UNL     1     -11.052  11.390  64.151  0.00  0.00    +0.020 A 
ATOM     19  C   UNL     1     -10.120  10.421  64.502  0.00  0.00    -0.003 A 
ATOM     20  C   UNL     1      -9.684  10.276  65.814  0.00  0.00    -0.023 A 
ATOM     21  C   UNL     1     -10.575  10.737  66.776  0.00  0.00    -0.003 A 
ATOM     22  C   UNL     1     -11.553  11.660  66.426  0.00  0.00    +0.020 A 
BRANCH  20  23
ATOM     23  C   UNL     1      -8.240  10.065  66.143  0.00  0.00    +0.019 C 
ATOM     24  C   UNL     1      -8.040   8.971  67.155  0.00  0.00    +0.004 C 
ATOM     25  C   UNL     1      -7.667  11.345  66.683  0.00  0.00    +0.004 C 
ATOM     26  C   UNL     1      -7.485   9.740  64.866  0.00  0.00    +0.004 C 
ENDBRANCH  20  23
ENDBRANCH  14  17
ENDBRANCH   7  14
BRANCH   2  27
ATOM     27  O   UNL     1      -9.536  18.309  68.315  0.00  0.00    -0.455 OA
BRANCH  27  28
ATOM     28  C   UNL     1     -10.087  19.619  68.360  0.00  0.00    +0.243 C 
BRANCH  28  29
ATOM     29  C   UNL     1      -9.650  20.453  67.180  0.00  0.00    +0.229 C 
ATOM     30  O   UNL     1     -10.460  20.173  66.071  0.00  0.00    -0.216 OA
ENDBRANCH  28  29
ENDBRANCH  27  28
ENDBRANCH   2  27
BRANCH   1  31
ATOM     31  O   UNL     1      -9.247  17.184  65.869  0.00  0.00    -0.443 OA
BRANCH  31  33
ATOM     32  C   UNL     1      -6.934  17.763  66.027  0.00  0.00    +0.173 A 
ATOM     33  C   UNL     1      -7.932  16.816  66.065  0.00  0.00    +0.179 A 
ATOM     34  C   UNL     1      -7.705  15.708  66.873  0.00  0.00    +0.041 A 
ATOM     35  C   UNL     1      -6.583  15.611  67.685  0.00  0.00    +0.003 A 
ATOM     36  C   UNL     1      -5.679  16.665  67.741  0.00  0.00    +0.003 A 
ATOM     37  C   UNL     1      -5.799  17.678  66.820  0.00  0.00    +0.040 A 
BRANCH  32  39
ATOM     38  C   UNL     1      -5.973  19.308  64.465  0.00  0.00    +0.253 C 
ATOM     39  O   UNL     1      -7.096  18.902  65.244  0.00  0.00    -0.468 OA
ENDBRANCH  32  39
ENDBRANCH  31  33
ENDBRANCH   1  31
TORSDOF 10
ENDMDL
MODEL 2
REMARK VINA RESULT:      -8.1      2.534      6.188
REMARK  Name = 
REMARK  10 active torsions:
REMARK  status: ('A' for Active; 'I' for Inactive)
REMARK    1  A    between atoms: O_2  and  C_3
REMARK    2  A    between atoms: C_8  and  O_9
REMARK    3  A    between atoms: O_9  and  C_10
REMARK    4  A    between atoms: N_12  and  S_13
REMARK    5  A    between atoms: S_13  and  C_16
REMARK    6  A    between atoms: C_19  and  C_20
REMARK    7  A    between atoms: C_27  and  C_28
REMARK    8  A    between atoms: C_35  and  O_36
REMARK    9  A    between atoms: O_36  and  C_37
REMARK   10  A    between atoms: C_37  and  C_38
REMARK                            x       y       z     vdW  Elec       q    Type
REMARK                         _______ _______ _______ _____ _____    ______ ____
ROOT
ATOM      1  C   UNL     1     -11.509  14.254  69.484  0.00  0.00    +0.233 A 
ATOM      2  C   UNL     1     -11.004  15.209  70.354  0.00  0.00    +0.265 A 
ATOM      3  N   UNL     1     -10.337  16.265  69.828  0.00  0.00    -0.187 NA
ATOM      4  C   UNL     1     -10.601  16.717  68.599  0.00  0.00    +0.203 A 
ATOM      5  N   UNL     1     -11.266  15.869  67.776  0.00  0.00    -0.203 NA
ATOM      6  C   UNL     1     -11.690  14.657  68.167  0.00  0.00    +0.212 A 
ATOM      7  N   UNL     1     -12.023  13.640  67.215  0.00  0.00    -0.074 NA
ENDROOT
BRANCH   4   8
ATOM      8  C   UNL     1      -9.883  17.842  67.985  0.00  0.00    +0.199 A 
ATOM      9  N   UNL     1      -8.648  18.126  68.464  0.00  0.00    -0.222 NA
ATOM     10  C   UNL     1      -8.057  19.271  68.053  0.00  0.00    +0.102 A 
ATOM     11  C   UNL     1      -8.756  20.281  67.448  0.00  0.00    +0.041 A 
ATOM     12  C   UNL     1     -10.103  20.073  67.209  0.00  0.00    +0.102 A 
ATOM     13  N   UNL     1     -10.607  18.889  67.560  0.00  0.00    -0.222 NA
ENDBRANCH   4   8
BRANCH   7  14
ATOM     14  S   UNL     1     -11.264  13.758  65.683  0.00  0.00    +0.094 S 
ATOM     15  O   UNL     1      -9.891  14.306  65.888  0.00  0.00    -0.148 OA
ATOM     16  O   UNL     1     -12.006  14.718  64.783  0.00  0.00    -0.148 OA
BRANCH  14  17
ATOM     17  C   UNL     1     -11.134  12.223  64.868  0.00  0.00    +0.127 A 
ATOM     18  C   UNL     1     -10.842  12.125  63.514  0.00  0.00    +0.020 A 
ATOM     19  C   UNL     1     -10.054  11.084  63.039  0.00  0.00    -0.003 A 
ATOM     20  C   UNL     1      -9.420  10.200  63.905  0.00  0.00    -0.023 A 
ATOM     21  C   UNL     1     -10.022  10.079  65.151  0.00  0.00    -0.003 A 
ATOM     22  C   UNL     1     -10.862  11.084  65.615  0.00  0.00    +0.020 A 
BRANCH  20  23
ATOM     23  C   UNL     1      -8.003   9.771  63.689  0.00  0.00    +0.019 C 
ATOM     24  C   UNL     1      -7.121  10.110  64.858  0.00  0.00    +0.004 C 
ATOM     25  C   UNL     1      -7.468  10.445  62.457  0.00  0.00    +0.004 C 
ATOM     26  C   UNL     1      -7.975   8.275  63.430  0.00  0.00    +0.004 C 
ENDBRANCH  20  23
ENDBRANCH  14  17
ENDBRANCH   7  14
BRANCH   2  27
ATOM     27  O   UNL     1     -11.343  15.178  71.710  0.00  0.00    -0.455 OA
BRANCH  27  28
ATOM     28  C   UNL     1     -12.109  16.271  72.198  0.00  0.00    +0.243 C 
BRANCH  28  29
ATOM     29  C   UNL     1     -12.665  15.998  73.575  0.00  0.00    +0.229 C 
ATOM     30  O   UNL     1     -12.265  17.008  74.460  0.00  0.00    -0.216 OA
ENDBRANCH  28  29
ENDBRANCH  27  28
ENDBRANCH   2  27
BRANCH   1  31
ATOM     31  O   UNL     1     -12.445  13.376  70.016  0.00  0.00    -0.443 OA
BRANCH  31  33
ATOM     32  C   UNL     1     -12.818  11.732  71.709  0.00  0.00    +0.173 A 
ATOM     33  C   UNL     1     -12.130  12.167  70.600  0.00  0.00    +0.179 A 
ATOM     34  C   UNL     1     -11.617  11.182  69.764  0.00  0.00    +0.041 A 
ATOM     35  C   UNL     1     -11.877   9.834  69.973  0.00  0.00    +0.003 A 
ATOM     36  C   UNL     1     -12.713   9.447  71.013  0.00  0.00    +0.003 A 
ATOM     37  C   UNL     1     -13.077  10.390  71.945  0.00  0.00    +0.040 A 
BRANCH  32  39
ATOM     38  C   UNL     1     -14.524  13.362  72.141  0.00  0.00    +0.253 C 
ATOM     39  O   UNL     1     -13.364  12.663  72.588  0.00  0.00    -0.468 OA
ENDBRANCH  32  39
ENDBRANCH  31  33
ENDBRANCH   1  31
TORSDOF 10
ENDMDL
MODEL 3
REMARK VINA RESULT:      -8.1      3.604      7.315
REMARK  Name = 
REMARK  10 active torsions:
REMARK  status: ('A' for Active; 'I' for Inactive)
REMARK    1  A    between atoms: O_2  and  C_3
REMARK    2  A    between atoms: C_8  and  O_9
REMARK    3  A    between atoms: O_9  and  C_10
REMARK    4  A    between atoms: N_12  and  S_13
REMARK    5  A    between atoms: S_13  and  C_16
REMARK    6  A    between atoms: C_19  and  C_20
REMARK    7  A    between atoms: C_27  and  C_28
REMARK    8  A    between atoms: C_35  and  O_36
REMARK    9  A    between atoms: O_36  and  C_37
REMARK   10  A    between atoms: C_37  and  C_38
REMARK                            x       y       z     vdW  Elec       q    Type
REMARK                         _______ _______ _______ _____ _____    ______ ____
ROOT
ATOM      1  C   UNL     1     -12.062  11.885  70.063  0.00  0.00    +0.233 A 
ATOM      2  C   UNL     1     -12.327  13.088  70.699  0.00  0.00    +0.265 A 
ATOM      3  N   UNL     1     -11.967  14.235  70.073  0.00  0.00    -0.187 NA
ATOM      4  C   UNL     1     -11.898  14.314  68.741  0.00  0.00    +0.203 A 
ATOM      5  N   UNL     1     -11.827  13.137  68.072  0.00  0.00    -0.203 NA
ATOM      6  C   UNL     1     -11.872  11.945  68.689  0.00  0.00    +0.212 A 
ATOM      7  N   UNL     1     -11.407  10.753  68.042  0.00  0.00    -0.074 NA
ENDROOT
BRANCH   4   8
ATOM      8  C   UNL     1     -11.489  15.531  68.028  0.00  0.00    +0.199 A 
ATOM      9  N   UNL     1     -10.858  15.372  66.839  0.00  0.00    -0.222 NA
ATOM     10  C   UNL     1     -10.301  16.463  66.267  0.00  0.00    +0.102 A 
ATOM     11  C   UNL     1     -10.072  17.620  66.962  0.00  0.00    +0.041 A 
ATOM     12  C   UNL     1     -10.488  17.666  68.282  0.00  0.00    +0.102 A 
ATOM     13  N   UNL     1     -11.108  16.588  68.762  0.00  0.00    -0.222 NA
ENDBRANCH   4   8
BRANCH   7  14
ATOM     14  S   UNL     1     -10.233  10.967  66.812  0.00  0.00    +0.094 S 
ATOM     15  O   UNL     1      -9.476  12.219  67.108  0.00  0.00    -0.148 OA
ATOM     16  O   UNL     1     -10.889  11.141  65.463  0.00  0.00    -0.148 OA
BRANCH  14  17
ATOM     17  C   UNL     1      -9.104   9.643  66.713  0.00  0.00    +0.127 A 
ATOM     18  C   UNL     1      -8.278   9.292  67.773  0.00  0.00    +0.020 A 
ATOM     19  C   UNL     1      -7.972   7.958  68.014  0.00  0.00    -0.003 A 
ATOM     20  C   UNL     1      -8.587   6.934  67.305  0.00  0.00    -0.023 A 
ATOM     21  C   UNL     1      -9.068   7.302  66.054  0.00  0.00    -0.003 A 
ATOM     22  C   UNL     1      -9.321   8.640  65.776  0.00  0.00    +0.020 A 
BRANCH  20  23
ATOM     23  C   UNL     1      -9.079   5.694  67.983  0.00  0.00    +0.019 C 
ATOM     24  C   UNL     1      -8.440   5.489  69.328  0.00  0.00    +0.004 C 
ATOM     25  C   UNL     1      -8.783   4.507  67.110  0.00  0.00    +0.004 C 
ATOM     26  C   UNL     1     -10.588   5.777  68.129  0.00  0.00    +0.004 C 
ENDBRANCH  20  23
ENDBRANCH  14  17
ENDBRANCH   7  14
BRANCH   2  27
ATOM     27  O   UNL     1     -13.113  13.118  71.855  0.00  0.00    -0.455 OA
BRANCH  27  28
ATOM     28  C   UNL     1     -13.589  14.392  72.267  0.00  0.00    +0.243 C 
BRANCH  28  29
ATOM     29  C   UNL     1     -12.816  14.925  73.449  0.00  0.00    +0.229 C 
ATOM     30  O   UNL     1     -13.258  16.217  73.765  0.00  0.00    -0.216 OA
ENDBRANCH  28  29
ENDBRANCH  27  28
ENDBRANCH   2  27
BRANCH   1  31
ATOM     31  O   UNL     1     -12.719  10.769  70.567  0.00  0.00    -0.443 OA
BRANCH  31  33
ATOM     32  C   UNL     1     -12.842   8.715  71.782  0.00  0.00    +0.173 A 
ATOM     33  C   UNL     1     -12.112   9.787  71.321  0.00  0.00    +0.179 A 
ATOM     34  C   UNL     1     -10.760   9.561  71.085  0.00  0.00    +0.041 A 
ATOM     35  C   UNL     1     -10.198   8.296  71.200  0.00  0.00    +0.003 A 
ATOM     36  C   UNL     1     -11.005   7.208  71.509  0.00  0.00    +0.003 A 
ATOM     37  C   UNL     1     -12.295   7.447  71.917  0.00  0.00    +0.040 A 
BRANCH  32  39
ATOM     38  C   UNL     1     -15.007   7.695  71.930  0.00  0.00    +0.253 C 
ATOM     39  O   UNL     1     -14.202   8.867  72.035  0.00  0.00    -0.468 OA
ENDBRANCH  32  39
ENDBRANCH  31  33
ENDBRANCH   1  31
TORSDOF 10
ENDMDL
MODEL 4
REMARK VINA RESULT:      -8.0      2.300      3.673
REMARK  Name = 
REMARK  10 active torsions:
REMARK  status: ('A' for Active; 'I' for Inactive)
REMARK    1  A    between atoms: O_2  and  C_3
REMARK    2  A    between atoms: C_8  and  O_9
REMARK    3  A    between atoms: O_9  and  C_10
REMARK    4  A    between atoms: N_12  and  S_13
REMARK    5  A    between atoms: S_13  and  C_16
REMARK    6  A    between atoms: C_19  and  C_20
REMARK    7  A    between atoms: C_27  and  C_28
REMARK    8  A    between atoms: C_35  and  O_36
REMARK    9  A    between atoms: O_36  and  C_37
REMARK   10  A    between atoms: C_37  and  C_38
REMARK                            x       y       z     vdW  Elec       q    Type
REMARK                         _______ _______ _______ _____ _____    ______ ____
ROOT
ATOM      1  C   UNL     1     -11.720  15.258  68.685  0.00  0.00    +0.233 A 
ATOM      2  C   UNL     1     -12.142  15.012  69.982  0.00  0.00    +0.265 A 
ATOM      3  N   UNL     1     -12.390  13.728  70.341  0.00  0.00    -0.187 NA
ATOM      4  C   UNL     1     -11.762  12.704  69.757  0.00  0.00    +0.203 A 
ATOM      5  N   UNL     1     -11.171  12.962  68.565  0.00  0.00    -0.203 NA
ATOM      6  C   UNL     1     -11.163  14.182  68.005  0.00  0.00    +0.212 A 
ATOM      7  N   UNL     1     -10.901  14.360  66.607  0.00  0.00    -0.074 NA
ENDROOT
BRANCH   4   8
ATOM      8  C   UNL     1     -12.021  11.300  70.102  0.00  0.00    +0.199 A 
ATOM      9  N   UNL     1     -12.813  11.060  71.175  0.00  0.00    -0.222 NA
ATOM     10  C   UNL     1     -12.902   9.788  71.625  0.00  0.00    +0.102 A 
ATOM     11  C   UNL     1     -12.009   8.816  71.259  0.00  0.00    +0.041 A 
ATOM     12  C   UNL     1     -11.023   9.163  70.351  0.00  0.00    +0.102 A 
ATOM     13  N   UNL     1     -11.042  10.410  69.880  0.00  0.00    -0.222 NA
ENDBRANCH   4   8
BRANCH   7  14
ATOM     14  S   UNL     1     -11.256  13.024  65.594  0.00  0.00    +0.094 S 
ATOM     15  O   UNL     1     -11.630  13.552  64.248  0.00  0.00    -0.148 OA
ATOM     16  O   UNL     1     -12.438  12.244  66.120  0.00  0.00    -0.148 OA
BRANCH  14  17
ATOM     17  C   UNL     1      -9.910  11.934  65.410  0.00  0.00    +0.127 A 
ATOM     18  C   UNL     1      -8.947  11.771  66.399  0.00  0.00    +0.020 A 
ATOM     19  C   UNL     1      -8.375  10.525  66.625  0.00  0.00    -0.003 A 
ATOM     20  C   UNL     1      -8.842   9.386  65.980  0.00  0.00    -0.023 A 
ATOM     21  C   UNL     1      -9.486   9.625  64.772  0.00  0.00    -0.003 A 
ATOM     22  C   UNL     1     -10.010  10.884  64.505  0.00  0.00    +0.020 A 
BRANCH  20  23
ATOM     23  C   UNL     1      -9.033   8.093  66.710  0.00  0.00    +0.019 C 
ATOM     24  C   UNL     1      -8.355   8.092  68.052  0.00  0.00    +0.004 C 
ATOM     25  C   UNL     1      -8.478   6.972  65.877  0.00  0.00    +0.004 C 
ATOM     26  C   UNL     1     -10.519   7.835  66.875  0.00  0.00    +0.004 C 
ENDBRANCH  20  23
ENDBRANCH  14  17
ENDBRANCH   7  14
BRANCH   2  27
ATOM     27  O   UNL     1     -12.122  16.033  70.937  0.00  0.00    -0.455 OA
BRANCH  27  28
ATOM     28  C   UNL     1     -11.900  15.639  72.284  0.00  0.00    +0.243 C 
BRANCH  28  29
ATOM     29  C   UNL     1     -13.092  15.939  73.161  0.00  0.00    +0.229 C 
ATOM     30  O   UNL     1     -14.263  15.937  72.391  0.00  0.00    -0.216 OA
ENDBRANCH  28  29
ENDBRANCH  27  28
ENDBRANCH   2  27
BRANCH   1  31
ATOM     31  O   UNL     1     -11.174  16.513  68.446  0.00  0.00    -0.443 OA
BRANCH  31  33
ATOM     32  C   UNL     1      -9.561  17.785  67.226  0.00  0.00    +0.173 A 
ATOM     33  C   UNL     1      -9.870  16.729  68.052  0.00  0.00    +0.179 A 
ATOM     34  C   UNL     1      -8.873  16.317  68.930  0.00  0.00    +0.041 A 
ATOM     35  C   UNL     1      -7.671  17.001  69.047  0.00  0.00    +0.003 A 
ATOM     36  C   UNL     1      -7.463  18.160  68.310  0.00  0.00    +0.003 A 
ATOM     37  C   UNL     1      -8.360  18.473  67.316  0.00  0.00    +0.040 A 
BRANCH  32  39
ATOM     38  C   UNL     1     -10.562  19.664  66.124  0.00  0.00    +0.253 C 
ATOM     39  O   UNL     1     -10.512  18.254  66.325  0.00  0.00    -0.468 OA
ENDBRANCH  32  39
ENDBRANCH  31  33
ENDBRANCH   1  31
TORSDOF 10
ENDMDL
MODEL 5
REMARK VINA RESULT:      -8.0      2.937      5.045
REMARK  Name = 
REMARK  10 active torsions:
REMARK  status: ('A' for Active; 'I' for Inactive)
REMARK    1  A    between atoms: O_2  and  C_3
REMARK    2  A    between atoms: C_8  and  O_9
REMARK    3  A    between atoms: O_9  and  C_10
REMARK    4  A    between atoms: N_12  and  S_13
REMARK    5  A    between atoms: S_13  and  C_16
REMARK    6  A    between atoms: C_19  and  C_20
REMARK    7  A    between atoms: C_27  and  C_28
REMARK    8  A    between atoms: C_35  and  O_36
REMARK    9  A    between atoms: O_36  and  C_37
REMARK   10  A    between atoms: C_37  and  C_38
REMARK                            x       y       z     vdW  Elec       q    Type
REMARK                         _______ _______ _______ _____ _____    ______ ____
ROOT
ATOM      1  C   UNL     1     -10.805  14.321  67.323  0.00  0.00    +0.233 A 
ATOM      2  C   UNL     1     -11.122  15.667  67.424  0.00  0.00    +0.265 A 
ATOM      3  N   UNL     1     -11.763  16.090  68.541  0.00  0.00    -0.187 NA
ATOM      4  C   UNL     1     -11.618  15.464  69.712  0.00  0.00    +0.203 A 
ATOM      5  N   UNL     1     -11.128  14.201  69.662  0.00  0.00    -0.203 NA
ATOM      6  C   UNL     1     -10.755  13.610  68.515  0.00  0.00    +0.212 A 
ATOM      7  N   UNL     1     -10.623  12.186  68.420  0.00  0.00    -0.074 NA
ENDROOT
BRANCH   4   8
ATOM      8  C   UNL     1     -12.315  15.878  70.937  0.00  0.00    +0.199 A 
ATOM      9  N   UNL     1     -11.578  15.966  72.071  0.00  0.00    -0.222 NA
ATOM     10  C   UNL     1     -12.234  16.151  73.239  0.00  0.00    +0.102 A 
ATOM     11  C   UNL     1     -13.580  15.938  73.367  0.00  0.00    +0.041 A 
ATOM     12  C   UNL     1     -14.281  15.576  72.229  0.00  0.00    +0.102 A 
ATOM     13  N   UNL     1     -13.592  15.495  71.091  0.00  0.00    -0.222 NA
ENDBRANCH   4   8
BRANCH   7  14
ATOM     14  S   UNL     1     -11.553  11.262  69.524  0.00  0.00    +0.094 S 
ATOM     15  O   UNL     1     -12.686  10.646  68.772  0.00  0.00    -0.148 OA
ATOM     16  O   UNL     1     -12.146  12.140  70.600  0.00  0.00    -0.148 OA
BRANCH  14  17
ATOM     17  C   UNL     1     -10.636   9.992  70.287  0.00  0.00    +0.127 A 
ATOM     18  C   UNL     1     -11.236   9.008  71.063  0.00  0.00    +0.020 A 
ATOM     19  C   UNL     1     -10.749   7.707  71.048  0.00  0.00    -0.003 A 
ATOM     20  C   UNL     1      -9.753   7.316  70.161  0.00  0.00    -0.023 A 
ATOM     21  C   UNL     1      -8.938   8.348  69.712  0.00  0.00    -0.003 A 
ATOM     22  C   UNL     1      -9.386   9.661  69.778  0.00  0.00    +0.020 A 
BRANCH  20  23
ATOM     23  C   UNL     1      -9.826   6.017  69.422  0.00  0.00    +0.019 C 
ATOM     24  C   UNL     1     -10.072   4.852  70.339  0.00  0.00    +0.004 C 
ATOM     25  C   UNL     1      -8.535   5.798  68.684  0.00  0.00    +0.004 C 
ATOM     26  C   UNL     1     -10.928   6.103  68.380  0.00  0.00    +0.004 C 
ENDBRANCH  20  23
ENDBRANCH  14  17
ENDBRANCH   7  14
BRANCH   2  27
ATOM     27  O   UNL     1     -10.623  16.582  66.494  0.00  0.00    -0.455 OA
BRANCH  27  28
ATOM     28  C   UNL     1      -9.578  17.436  66.940  0.00  0.00    +0.243 C 
BRANCH  28  29
ATOM     29  C   UNL     1      -9.918  18.893  66.736  0.00  0.00    +0.229 C 
ATOM     30  O   UNL     1     -11.097  19.209  67.424  0.00  0.00    -0.216 OA
ENDBRANCH  28  29
ENDBRANCH  27  28
ENDBRANCH   2  27
BRANCH   1  31
ATOM     31  O   UNL     1      -9.882  13.982  66.341  0.00  0.00    -0.443 OA
BRANCH  31  33
ATOM     32  C   UNL     1      -9.979  12.037  64.957  0.00  0.00    +0.173 A 
ATOM     33  C   UNL     1     -10.210  13.380  65.144  0.00  0.00    +0.179 A 
ATOM     34  C   UNL     1     -11.274  13.930  64.437  0.00  0.00    +0.041 A 
ATOM     35  C   UNL     1     -12.126  13.147  63.669  0.00  0.00    +0.003 A 
ATOM     36  C   UNL     1     -11.955  11.769  63.638  0.00  0.00    +0.003 A 
ATOM     37  C   UNL     1     -10.810  11.240  64.183  0.00  0.00    +0.040 A 
BRANCH  32  39
ATOM     38  C   UNL     1      -9.079  10.025  65.902  0.00  0.00    +0.253 C 
ATOM     39  O   UNL     1      -8.934  11.418  65.637  0.00  0.00    -0.468 OA
ENDBRANCH  32  39
ENDBRANCH  31  33
ENDBRANCH   1  31
TORSDOF 10
ENDMDL
MODEL 6
REMARK VINA RESULT:      -7.9      4.431      7.387
REMARK  Name = 
REMARK  10 active torsions:
REMARK  status: ('A' for Active; 'I' for Inactive)
REMARK    1  A    between atoms: O_2  and  C_3
REMARK    2  A    between atoms: C_8  and  O_9
REMARK    3  A    between atoms: O_9  and  C_10
REMARK    4  A    between atoms: N_12  and  S_13
REMARK    5  A    between atoms: S_13  and  C_16
REMARK    6  A    between atoms: C_19  and  C_20
REMARK    7  A    between atoms: C_27  and  C_28
REMARK    8  A    between atoms: C_35  and  O_36
REMARK    9  A    between atoms: O_36  and  C_37
REMARK   10  A    between atoms: C_37  and  C_38
REMARK                            x       y       z     vdW  Elec       q    Type
REMARK                         _______ _______ _______ _____ _____    ______ ____
ROOT
ATOM      1  C   UNL     1     -11.503  12.708  68.341  0.00  0.00    +0.233 A 
ATOM      2  C   UNL     1     -11.259  13.239  67.083  0.00  0.00    +0.265 A 
ATOM      3  N   UNL     1     -10.675  12.442  66.155  0.00  0.00    -0.187 NA
ATOM      4  C   UNL     1     -10.823  11.114  66.180  0.00  0.00    +0.203 A 
ATOM      5  N   UNL     1     -11.246  10.578  67.351  0.00  0.00    -0.203 NA
ATOM      6  C   UNL     1     -11.552  11.323  68.425  0.00  0.00    +0.212 A 
ATOM      7  N   UNL     1     -11.608  10.751  69.737  0.00  0.00    -0.074 NA
ENDROOT
BRANCH   4   8
ATOM      8  C   UNL     1     -10.186  10.217  65.207  0.00  0.00    +0.199 A 
ATOM      9  N   UNL     1      -9.217   9.388  65.668  0.00  0.00    -0.222 NA
ATOM     10  C   UNL     1      -8.487   8.701  64.761  0.00  0.00    +0.102 A 
ATOM     11  C   UNL     1      -8.465   9.035  63.433  0.00  0.00    +0.041 A 
ATOM     12  C   UNL     1      -9.272  10.081  63.023  0.00  0.00    +0.102 A 
ATOM     13  N   UNL     1     -10.034  10.662  63.950  0.00  0.00    -0.222 NA
ENDBRANCH   4   8
BRANCH   7  14
ATOM     14  S   UNL     1     -10.666   9.342  69.991  0.00  0.00    +0.094 S 
ATOM     15  O   UNL     1      -9.248   9.764  70.190  0.00  0.00    -0.148 OA
ATOM     16  O   UNL     1     -10.705   8.438  68.782  0.00  0.00    -0.148 OA
BRANCH  14  17
ATOM     17  C   UNL     1     -11.174   8.427  71.384  0.00  0.00    +0.127 A 
ATOM     18  C   UNL     1     -12.122   7.415  71.300  0.00  0.00    +0.020 A 
ATOM     19  C   UNL     1     -12.010   6.279  72.093  0.00  0.00    -0.003 A 
ATOM     20  C   UNL     1     -10.887   6.052  72.881  0.00  0.00    -0.023 A 
ATOM     21  C   UNL     1     -10.189   7.199  73.239  0.00  0.00    -0.003 A 
ATOM     22  C   UNL     1     -10.338   8.361  72.492  0.00  0.00    +0.020 A 
BRANCH  20  23
ATOM     23  C   UNL     1     -10.244   4.704  72.960  0.00  0.00    +0.019 C 
ATOM     24  C   UNL     1      -9.771   4.218  71.619  0.00  0.00    +0.004 C 
ATOM     25  C   UNL     1     -11.233   3.720  73.520  0.00  0.00    +0.004 C 
ATOM     26  C   UNL     1      -9.080   4.770  73.933  0.00  0.00    +0.004 C 
ENDBRANCH  20  23
ENDBRANCH  14  17
ENDBRANCH   7  14
BRANCH   2  27
ATOM     27  O   UNL     1     -11.777  14.488  66.731  0.00  0.00    -0.455 OA
BRANCH  27  28
ATOM     28  C   UNL     1     -11.862  14.773  65.341  0.00  0.00    +0.243 C 
BRANCH  28  29
ATOM     29  C   UNL     1     -10.940  15.900  64.941  0.00  0.00    +0.229 C 
ATOM     30  O   UNL     1     -11.535  16.667  63.931  0.00  0.00    -0.216 OA
ENDBRANCH  28  29
ENDBRANCH  27  28
ENDBRANCH   2  27
BRANCH   1  31
ATOM     31  O   UNL     1     -12.377  13.426  69.149  0.00  0.00    -0.443 OA
BRANCH  31  33
ATOM     32  C   UNL     1     -11.405  14.970  70.691  0.00  0.00    +0.173 A 
ATOM     33  C   UNL     1     -12.098  13.807  70.444  0.00  0.00    +0.179 A 
ATOM     34  C   UNL     1     -12.997  13.402  71.425  0.00  0.00    +0.041 A 
ATOM     35  C   UNL     1     -13.265  14.182  72.541  0.00  0.00    +0.003 A 
ATOM     36  C   UNL     1     -12.665  15.428  72.672  0.00  0.00    +0.003 A 
ATOM     37  C   UNL     1     -11.648  15.757  71.808  0.00  0.00    +0.040 A 
BRANCH  32  39
ATOM     38  C   UNL     1     -10.818  16.663  69.098  0.00  0.00    +0.253 C 
ATOM     39  O   UNL     1     -10.492  15.439  69.752  0.00  0.00    -0.468 OA
ENDBRANCH  32  39
ENDBRANCH  31  33
ENDBRANCH   1  31
TORSDOF 10
ENDMDL
MODEL 7
REMARK VINA RESULT:      -7.9      2.161      2.885
REMARK  Name = 
REMARK  10 active torsions:
REMARK  status: ('A' for Active; 'I' for Inactive)
REMARK    1  A    between atoms: O_2  and  C_3
REMARK    2  A    between atoms: C_8  and  O_9
REMARK    3  A    between atoms: O_9  and  C_10
REMARK    4  A    between atoms: N_12  and  S_13
REMARK    5  A    between atoms: S_13  and  C_16
REMARK    6  A    between atoms: C_19  and  C_20
REMARK    7  A    between atoms: C_27  and  C_28
REMARK    8  A    between atoms: C_35  and  O_36
REMARK    9  A    between atoms: O_36  and  C_37
REMARK   10  A    between atoms: C_37  and  C_38
REMARK                            x       y       z     vdW  Elec       q    Type
REMARK                         _______ _______ _______ _____ _____    ______ ____
ROOT
ATOM      1  C   UNL     1     -10.052  15.775  67.044  0.00  0.00    +0.233 A 
ATOM      2  C   UNL     1     -10.595  16.765  67.849  0.00  0.00    +0.265 A 
ATOM      3  N   UNL     1     -11.527  16.404  68.765  0.00  0.00    -0.187 NA
ATOM      4  C   UNL     1     -11.546  15.180  69.300  0.00  0.00    +0.203 A 
ATOM      5  N   UNL     1     -10.861  14.220  68.630  0.00  0.00    -0.203 NA
ATOM      6  C   UNL     1     -10.155  14.473  67.517  0.00  0.00    +0.212 A 
ATOM      7  N   UNL     1      -9.778  13.422  66.618  0.00  0.00    -0.074 NA
ENDROOT
BRANCH   4   8
ATOM      8  C   UNL     1     -12.554  14.745  70.275  0.00  0.00    +0.199 A 
ATOM      9  N   UNL     1     -13.074  15.690  71.095  0.00  0.00    -0.222 NA
ATOM     10  C   UNL     1     -13.850  15.280  72.124  0.00  0.00    +0.102 A 
ATOM     11  C   UNL     1     -13.870  13.980  72.554  0.00  0.00    +0.041 A 
ATOM     12  C   UNL     1     -13.104  13.063  71.855  0.00  0.00    +0.102 A 
ATOM     13  N   UNL     1     -12.430  13.515  70.797  0.00  0.00    -0.222 NA
ENDBRANCH   4   8
BRANCH   7  14
ATOM     14  S   UNL     1     -10.769  12.024  66.629  0.00  0.00    +0.094 S 
ATOM     15  O   UNL     1     -10.995  11.606  65.214  0.00  0.00    -0.148 OA
ATOM     16  O   UNL     1     -12.120  12.322  67.236  0.00  0.00    -0.148 OA
BRANCH  14  17
ATOM     17  C   UNL     1     -10.054  10.692  67.496  0.00  0.00    +0.127 A 
ATOM     18  C   UNL     1      -9.280  10.878  68.634  0.00  0.00    +0.020 A 
ATOM     19  C   UNL     1      -9.333   9.961  69.678  0.00  0.00    -0.003 A 
ATOM     20  C   UNL     1     -10.254   8.920  69.683  0.00  0.00    -0.023 A 
ATOM     21  C   UNL     1     -10.706   8.540  68.425  0.00  0.00    -0.003 A 
ATOM     22  C   UNL     1     -10.604   9.423  67.357  0.00  0.00    +0.020 A 
BRANCH  20  23
ATOM     23  C   UNL     1     -11.014   8.551  70.917  0.00  0.00    +0.019 C 
ATOM     24  C   UNL     1     -12.096   9.544  71.238  0.00  0.00    +0.004 C 
ATOM     25  C   UNL     1     -10.060   8.471  72.076  0.00  0.00    +0.004 C 
ATOM     26  C   UNL     1     -11.612   7.168  70.733  0.00  0.00    +0.004 C 
ENDBRANCH  20  23
ENDBRANCH  14  17
ENDBRANCH   7  14
BRANCH   2  27
ATOM     27  O   UNL     1     -10.055  18.054  67.845  0.00  0.00    -0.455 OA
BRANCH  27  28
ATOM     28  C   UNL     1     -10.864  19.080  67.287  0.00  0.00    +0.243 C 
BRANCH  28  29
ATOM     29  C   UNL     1     -10.425  19.444  65.889  0.00  0.00    +0.229 C 
ATOM     30  O   UNL     1     -10.931  18.513  64.972  0.00  0.00    -0.216 OA
ENDBRANCH  28  29
ENDBRANCH  27  28
ENDBRANCH   2  27
BRANCH   1  31
ATOM     31  O   UNL     1      -8.893  16.113  66.357  0.00  0.00    -0.443 OA
BRANCH  31  33
ATOM     32  C   UNL     1      -6.994  17.525  66.685  0.00  0.00    +0.173 A 
ATOM     33  C   UNL     1      -7.679  16.364  66.961  0.00  0.00    +0.179 A 
ATOM     34  C   UNL     1      -7.481  15.813  68.222  0.00  0.00    +0.041 A 
ATOM     35  C   UNL     1      -6.721  16.454  69.192  0.00  0.00    +0.003 A 
ATOM     36  C   UNL     1      -6.180  17.706  68.926  0.00  0.00    +0.003 A 
ATOM     37  C   UNL     1      -6.218  18.175  67.635  0.00  0.00    +0.040 A 
BRANCH  32  39
ATOM     38  C   UNL     1      -6.612  19.450  65.306  0.00  0.00    +0.253 C 
ATOM     39  O   UNL     1      -7.148  18.136  65.444  0.00  0.00    -0.468 OA
ENDBRANCH  32  39
ENDBRANCH  31  33
ENDBRANCH   1  31
TORSDOF 10
ENDMDL
MODEL 8
REMARK VINA RESULT:      -7.8      2.557      7.053
REMARK  Name = 
REMARK  10 active torsions:
REMARK  status: ('A' for Active; 'I' for Inactive)
REMARK    1  A    between atoms: O_2  and  C_3
REMARK    2  A    between atoms: C_8  and  O_9
REMARK    3  A    between atoms: O_9  and  C_10
REMARK    4  A    between atoms: N_12  and  S_13
REMARK    5  A    between atoms: S_13  and  C_16
REMARK    6  A    between atoms: C_19  and  C_20
REMARK    7  A    between atoms: C_27  and  C_28
REMARK    8  A    between atoms: C_35  and  O_36
REMARK    9  A    between atoms: O_36  and  C_37
REMARK   10  A    between atoms: C_37  and  C_38
REMARK                            x       y       z     vdW  Elec       q    Type
REMARK                         _______ _______ _______ _____ _____    ______ ____
ROOT
ATOM      1  C   UNL     1     -11.419  12.900  67.524  0.00  0.00    +0.233 A 
ATOM      2  C   UNL     1     -11.815  12.253  68.684  0.00  0.00    +0.265 A 
ATOM      3  N   UNL     1     -11.985  12.996  69.804  0.00  0.00    -0.187 NA
ATOM      4  C   UNL     1     -12.326  14.286  69.744  0.00  0.00    +0.203 A 
ATOM      5  N   UNL     1     -12.125  14.906  68.555  0.00  0.00    -0.203 NA
ATOM      6  C   UNL     1     -11.656  14.268  67.471  0.00  0.00    +0.212 A 
ATOM      7  N   UNL     1     -11.083  14.987  66.372  0.00  0.00    -0.074 NA
ENDROOT
BRANCH   4   8
ATOM      8  C   UNL     1     -12.496  15.129  70.934  0.00  0.00    +0.199 A 
ATOM      9  N   UNL     1     -11.535  15.059  71.888  0.00  0.00    -0.222 NA
ATOM     10  C   UNL     1     -11.770  15.672  73.070  0.00  0.00    +0.102 A 
ATOM     11  C   UNL     1     -13.022  16.073  73.452  0.00  0.00    +0.041 A 
ATOM     12  C   UNL     1     -14.057  15.884  72.553  0.00  0.00    +0.102 A 
ATOM     13  N   UNL     1     -13.745  15.353  71.370  0.00  0.00    -0.222 NA
ENDBRANCH   4   8
BRANCH   7  14
ATOM     14  S   UNL     1     -10.421  16.526  66.736  0.00  0.00    +0.094 S 
ATOM     15  O   UNL     1     -11.203  17.111  67.864  0.00  0.00    -0.148 OA
ATOM     16  O   UNL     1     -10.551  17.463  65.559  0.00  0.00    -0.148 OA
BRANCH  14  17
ATOM     17  C   UNL     1      -8.744  16.450  67.201  0.00  0.00    +0.127 A 
ATOM     18  C   UNL     1      -7.715  16.762  66.321  0.00  0.00    +0.020 A 
ATOM     19  C   UNL     1      -6.568  17.401  66.777  0.00  0.00    -0.003 A 
ATOM     20  C   UNL     1      -6.472  17.874  68.080  0.00  0.00    -0.023 A 
ATOM     21  C   UNL     1      -7.295  17.228  68.994  0.00  0.00    -0.003 A 
ATOM     22  C   UNL     1      -8.412  16.532  68.548  0.00  0.00    +0.020 A 
BRANCH  20  23
ATOM     23  C   UNL     1      -5.890  19.218  68.386  0.00  0.00    +0.019 C 
ATOM     24  C   UNL     1      -4.426  19.294  68.052  0.00  0.00    +0.004 C 
ATOM     25  C   UNL     1      -6.078  19.513  69.848  0.00  0.00    +0.004 C 
ATOM     26  C   UNL     1      -6.657  20.276  67.614  0.00  0.00    +0.004 C 
ENDBRANCH  20  23
ENDBRANCH  14  17
ENDBRANCH   7  14
BRANCH   2  27
ATOM     27  O   UNL     1     -12.211  10.913  68.644  0.00  0.00    -0.455 OA
BRANCH  27  28
ATOM     28  C   UNL     1     -12.421  10.276  69.897  0.00  0.00    +0.243 C 
BRANCH  28  29
ATOM     29  C   UNL     1     -11.218   9.471  70.327  0.00  0.00    +0.229 C 
ATOM     30  O   UNL     1     -11.577   8.586  71.352  0.00  0.00    -0.216 OA
ENDBRANCH  28  29
ENDBRANCH  27  28
ENDBRANCH   2  27
BRANCH   1  31
ATOM     31  O   UNL     1     -11.565  12.183  66.342  0.00  0.00    -0.443 OA
BRANCH  31  33
ATOM     32  C   UNL     1      -9.987  10.528  65.649  0.00  0.00    +0.173 A 
ATOM     33  C   UNL     1     -10.514  11.794  65.537  0.00  0.00    +0.179 A 
ATOM     34  C   UNL     1     -10.429  12.392  64.285  0.00  0.00    +0.041 A 
ATOM     35  C   UNL     1      -9.940  11.711  63.179  0.00  0.00    +0.003 A 
ATOM     36  C   UNL     1      -9.569  10.377  63.299  0.00  0.00    +0.003 A 
ATOM     37  C   UNL     1      -9.480   9.835  64.559  0.00  0.00    +0.040 A 
BRANCH  32  39
ATOM     38  C   UNL     1     -10.321   8.469  66.831  0.00  0.00    +0.253 C 
ATOM     39  O   UNL     1     -10.042   9.866  66.872  0.00  0.00    -0.468 OA
ENDBRANCH  32  39
ENDBRANCH  31  33
ENDBRANCH   1  31
TORSDOF 10
ENDMDL
MODEL 9
REMARK VINA RESULT:      -7.7      2.581      6.258
REMARK  Name = 
REMARK  10 active torsions:
REMARK  status: ('A' for Active; 'I' for Inactive)
REMARK    1  A    between atoms: O_2  and  C_3
REMARK    2  A    between atoms: C_8  and  O_9
REMARK    3  A    between atoms: O_9  and  C_10
REMARK    4  A    between atoms: N_12  and  S_13
REMARK    5  A    between atoms: S_13  and  C_16
REMARK    6  A    between atoms: C_19  and  C_20
REMARK    7  A    between atoms: C_27  and  C_28
REMARK    8  A    between atoms: C_35  and  O_36
REMARK    9  A    between atoms: O_36  and  C_37
REMARK   10  A    between atoms: C_37  and  C_38
REMARK                            x       y       z     vdW  Elec       q    Type
REMARK                         _______ _______ _______ _____ _____    ______ ____
ROOT
ATOM      1  C   UNL     1     -11.444  12.875  67.665  0.00  0.00    +0.233 A 
ATOM      2  C   UNL     1     -11.884  12.236  68.813  0.00  0.00    +0.265 A 
ATOM      3  N   UNL     1     -12.049  12.979  69.935  0.00  0.00    -0.187 NA
ATOM      4  C   UNL     1     -12.344  14.281  69.876  0.00  0.00    +0.203 A 
ATOM      5  N   UNL     1     -12.099  14.900  68.694  0.00  0.00    -0.203 NA
ATOM      6  C   UNL     1     -11.633  14.251  67.615  0.00  0.00    +0.212 A 
ATOM      7  N   UNL     1     -11.015  14.955  66.531  0.00  0.00    -0.074 NA
ENDROOT
BRANCH   4   8
ATOM      8  C   UNL     1     -12.506  15.124  71.067  0.00  0.00    +0.199 A 
ATOM      9  N   UNL     1     -11.549  15.038  72.024  0.00  0.00    -0.222 NA
ATOM     10  C   UNL     1     -11.780  15.651  73.206  0.00  0.00    +0.102 A 
ATOM     11  C   UNL     1     -13.027  16.069  73.586  0.00  0.00    +0.041 A 
ATOM     12  C   UNL     1     -14.062  15.895  72.683  0.00  0.00    +0.102 A 
ATOM     13  N   UNL     1     -13.753  15.363  71.500  0.00  0.00    -0.222 NA
ENDBRANCH   4   8
BRANCH   7  14
ATOM     14  S   UNL     1     -10.307  16.467  66.915  0.00  0.00    +0.094 S 
ATOM     15  O   UNL     1     -11.250  17.207  67.804  0.00  0.00    -0.148 OA
ATOM     16  O   UNL     1     -10.104  17.302  65.673  0.00  0.00    -0.148 OA
BRANCH  14  17
ATOM     17  C   UNL     1      -8.776  16.312  67.734  0.00  0.00    +0.127 A 
ATOM     18  C   UNL     1      -8.683  15.920  69.063  0.00  0.00    +0.020 A 
ATOM     19  C   UNL     1      -7.627  15.122  69.489  0.00  0.00    -0.003 A 
ATOM     20  C   UNL     1      -6.721  14.577  68.586  0.00  0.00    -0.023 A 
ATOM     21  C   UNL     1      -6.603  15.274  67.391  0.00  0.00    -0.003 A 
ATOM     22  C   UNL     1      -7.624  16.124  66.981  0.00  0.00    +0.020 A 
BRANCH  20  23
ATOM     23  C   UNL     1      -6.260  13.158  68.698  0.00  0.00    +0.019 C 
ATOM     24  C   UNL     1      -7.318  12.179  68.273  0.00  0.00    +0.004 C 
ATOM     25  C   UNL     1      -5.874  12.878  70.124  0.00  0.00    +0.004 C 
ATOM     26  C   UNL     1      -5.012  12.978  67.853  0.00  0.00    +0.004 C 
ENDBRANCH  20  23
ENDBRANCH  14  17
ENDBRANCH   7  14
BRANCH   2  27
ATOM     27  O   UNL     1     -12.326  10.912  68.759  0.00  0.00    -0.455 OA
BRANCH  27  28
ATOM     28  C   UNL     1     -12.424  10.223  69.999  0.00  0.00    +0.243 C 
BRANCH  28  29
ATOM     29  C   UNL     1     -11.089   9.677  70.445  0.00  0.00    +0.229 C 
ATOM     30  O   UNL     1     -11.204   9.123  71.727  0.00  0.00    -0.216 OA
ENDBRANCH  28  29
ENDBRANCH  27  28
ENDBRANCH   2  27
BRANCH   1  31
ATOM     31  O   UNL     1     -11.593  12.170  66.477  0.00  0.00    -0.443 OA
BRANCH  31  33
ATOM     32  C   UNL     1      -9.989  10.548  65.767  0.00  0.00    +0.173 A 
ATOM     33  C   UNL     1     -10.546  11.801  65.658  0.00  0.00    +0.179 A 
ATOM     34  C   UNL     1     -10.493  12.396  64.402  0.00  0.00    +0.041 A 
ATOM     35  C   UNL     1     -10.005  11.720  63.291  0.00  0.00    +0.003 A 
ATOM     36  C   UNL     1      -9.602  10.396  63.412  0.00  0.00    +0.003 A 
ATOM     37  C   UNL     1      -9.482   9.861  64.673  0.00  0.00    +0.040 A 
BRANCH  32  39
ATOM     38  C   UNL     1     -10.359   8.508  66.972  0.00  0.00    +0.253 C 
ATOM     39  O   UNL     1     -10.011   9.890  66.993  0.00  0.00    -0.468 OA
ENDBRANCH  32  39
ENDBRANCH  31  33
ENDBRANCH   1  31
TORSDOF 10
ENDMDL
