MODEL 1
REMARK VINA RESULT:      -7.3      0.000      0.000
REMARK  Name = 
REMARK  5 active torsions:
REMARK  status: ('A' for Active; 'I' for Inactive)
REMARK    1  A    between atoms: O_2  and  C_3
REMARK    2  A    between atoms: C_8  and  C_9
REMARK    3  A    between atoms: C_9  and  C_12
REMARK    4  A    between atoms: N_28  and  C_29
REMARK    5  A    between atoms: C_29  and  C_30
REMARK                            x       y       z     vdW  Elec       q    Type
REMARK                         _______ _______ _______ _____ _____    ______ ____
ROOT
ATOM      1  C   UNL     1      -9.446  16.629  68.181  0.00  0.00    +0.132 C 
ATOM      2  C   UNL     1     -10.907  16.553  67.432  0.00  0.00    +0.194 C 
ATOM      3  O   UNL     1     -11.688  16.688  68.750  0.00  0.00    -0.474 OA
ATOM      4  C   UNL     1     -11.806  15.518  69.353  0.00  0.00    +0.173 A 
ATOM      5  C   UNL     1     -11.878  14.535  68.429  0.00  0.00    +0.014 A 
ATOM      6  C   UNL     1     -11.621  13.200  68.760  0.00  0.00    -0.022 A 
ATOM      7  C   UNL     1     -12.062  12.854  70.036  0.00  0.00    -0.001 A 
ATOM      8  C   UNL     1     -12.474  13.832  70.943  0.00  0.00    +0.045 A 
ATOM      9  C   UNL     1     -11.195  12.314  67.732  0.00  0.00    +0.042 C 
ATOM     10  C   UNL     1      -9.786  12.764  67.022  0.00  0.00    +0.062 C 
ATOM     11  N   UNL     1     -10.443  13.087  65.630  0.00  0.00    -0.274 NA
ATOM     12  C   UNL     1     -11.827  13.327  65.762  0.00  0.00    +0.073 C 
ATOM     13  C   UNL     1     -11.867  14.789  66.131  0.00  0.00    +0.025 C 
ATOM     14  C   UNL     1      -9.757  14.322  67.488  0.00  0.00    +0.021 C 
ATOM     15  C   UNL     1      -8.507  14.819  66.876  0.00  0.00    +0.007 C 
ATOM     16  C   UNL     1      -9.302  14.308  68.952  0.00  0.00    +0.004 C 
ATOM     17  C   UNL     1     -12.078  15.138  70.664  0.00  0.00    +0.229 A 
ATOM     18  O   UNL     1     -11.799  16.056  71.684  0.00  0.00    -0.283 OA
ATOM     19  C   UNL     1     -10.999  14.929  67.328  0.00  0.00    +0.063 C 
ATOM     20  C   UNL     1      -8.506  16.450  66.866  0.00  0.00    +0.056 C 
ATOM     21  C   UNL     1      -9.183  15.771  69.220  0.00  0.00    +0.031 C 
ENDROOT
BRANCH  20  22
ATOM     22  C   UNL     1      -7.095  16.623  67.655  0.00  0.00    +0.129 C 
ATOM     23  O   UNL     1      -7.281  17.150  68.884  0.00  0.00    -0.226 OA
ATOM     24  C   UNL     1      -6.245  15.451  67.625  0.00  0.00    +0.033 C 
BRANCH  22  25
ATOM     25  C   UNL     1      -6.340  17.727  66.908  0.00  0.00    +0.026 C 
ATOM     26  C   UNL     1      -6.163  18.833  67.946  0.00  0.00    +0.002 C 
ATOM     27  C   UNL     1      -7.123  18.268  65.750  0.00  0.00    +0.002 C 
ATOM     28  C   UNL     1      -5.015  17.162  66.490  0.00  0.00    +0.002 C 
ENDBRANCH  22  25
ENDBRANCH  20  22
BRANCH   1  30
ATOM     29  C   UNL     1      -9.767  18.459  68.403  0.00  0.00    +0.174 C 
ATOM     30  O   UNL     1      -9.474  17.986  68.505  0.00  0.00    -0.352 OA
ENDBRANCH   1  30
BRANCH  11  31
ATOM     31  C   UNL     1     -10.240  11.872  64.900  0.00  0.00    +0.072 C 
BRANCH  31  32
ATOM     32  C   UNL     1      -9.122  11.063  65.476  0.00  0.00    +0.016 C 
ATOM     33  C   UNL     1      -8.313  10.134  64.594  0.00  0.00    +0.001 C 
ATOM     34  C   UNL     1      -9.408   9.545  65.379  0.00  0.00    +0.001 C 
ENDBRANCH  31  32
ENDBRANCH  11  31
TORSDOF 5
ENDMDL
MODEL 2
REMARK VINA RESULT:      -6.8      1.114      1.343
REMARK  Name = 
REMARK  5 active torsions:
REMARK  status: ('A' for Active; 'I' for Inactive)
REMARK    1  A    between atoms: O_2  and  C_3
REMARK    2  A    between atoms: C_8  and  C_9
REMARK    3  A    between atoms: C_9  and  C_12
REMARK    4  A    between atoms: N_28  and  C_29
REMARK    5  A    between atoms: C_29  and  C_30
REMARK                            x       y       z     vdW  Elec       q    Type
REMARK                         _______ _______ _______ _____ _____    ______ ____
ROOT
ATOM      1  C   UNL     1      -9.787  15.758  68.118  0.00  0.00    +0.132 C 
ATOM      2  C   UNL     1     -11.164  15.432  67.283  0.00  0.00    +0.194 C 
ATOM      3  O   UNL     1     -12.025  15.368  68.555  0.00  0.00    -0.474 OA
ATOM      4  C   UNL     1     -11.948  14.176  69.119  0.00  0.00    +0.173 A 
ATOM      5  C   UNL     1     -11.781  13.232  68.169  0.00  0.00    +0.014 A 
ATOM      6  C   UNL     1     -11.290  11.959  68.479  0.00  0.00    -0.022 A 
ATOM      7  C   UNL     1     -11.724  11.489  69.718  0.00  0.00    -0.001 A 
ATOM      8  C   UNL     1     -12.363  12.337  70.623  0.00  0.00    +0.045 A 
ATOM      9  C   UNL     1     -10.648  11.208  67.456  0.00  0.00    +0.042 C 
ATOM     10  C   UNL     1      -9.317  11.943  66.842  0.00  0.00    +0.062 C 
ATOM     11  N   UNL     1      -9.949  12.186  65.423  0.00  0.00    -0.274 NA
ATOM     12  C   UNL     1     -11.358  12.154  65.479  0.00  0.00    +0.073 C 
ATOM     13  C   UNL     1     -11.698  13.566  65.883  0.00  0.00    +0.025 C 
ATOM     14  C   UNL     1      -9.611  13.461  67.349  0.00  0.00    +0.021 C 
ATOM     15  C   UNL     1      -8.450  14.209  66.824  0.00  0.00    +0.007 C 
ATOM     16  C   UNL     1      -9.241  13.480  68.836  0.00  0.00    +0.004 C 
ATOM     17  C   UNL     1     -12.212  13.704  70.402  0.00  0.00    +0.229 A 
ATOM     18  O   UNL     1     -12.168  14.620  71.460  0.00  0.00    -0.283 OA
ATOM     19  C   UNL     1     -10.937  13.826  67.131  0.00  0.00    +0.063 C 
ATOM     20  C   UNL     1      -8.762  15.809  66.857  0.00  0.00    +0.056 C 
ATOM     21  C   UNL     1      -9.419  14.929  69.149  0.00  0.00    +0.031 C 
ENDROOT
BRANCH  20  22
ATOM     22  C   UNL     1      -7.454  16.219  67.731  0.00  0.00    +0.129 C 
ATOM     23  O   UNL     1      -7.801  16.632  68.969  0.00  0.00    -0.226 OA
ATOM     24  C   UNL     1      -6.384  15.243  67.701  0.00  0.00    +0.033 C 
BRANCH  22  25
ATOM     25  C   UNL     1      -6.904  17.489  67.076  0.00  0.00    +0.026 C 
ATOM     26  C   UNL     1      -6.896  18.522  68.200  0.00  0.00    +0.002 C 
ATOM     27  C   UNL     1      -7.781  17.983  65.967  0.00  0.00    +0.002 C 
ATOM     28  C   UNL     1      -5.510  17.187  66.612  0.00  0.00    +0.002 C 
ENDBRANCH  22  25
ENDBRANCH  20  22
BRANCH   1  30
ATOM     29  C   UNL     1     -10.476  17.477  68.383  0.00  0.00    +0.174 C 
ATOM     30  O   UNL     1     -10.092  17.072  68.475  0.00  0.00    -0.352 OA
ENDBRANCH   1  30
BRANCH  11  31
ATOM     31  C   UNL     1      -9.478  11.060  64.675  0.00  0.00    +0.072 C 
BRANCH  31  32
ATOM     32  C   UNL     1      -9.828  11.174  63.225  0.00  0.00    +0.016 C 
ATOM     33  C   UNL     1      -9.576  10.016  62.282  0.00  0.00    +0.001 C 
ATOM     34  C   UNL     1      -8.571  11.088  62.327  0.00  0.00    +0.001 C 
ENDBRANCH  31  32
ENDBRANCH  11  31
TORSDOF 5
ENDMDL
MODEL 3
REMARK VINA RESULT:      -6.5      2.900      6.236
REMARK  Name = 
REMARK  5 active torsions:
REMARK  status: ('A' for Active; 'I' for Inactive)
REMARK    1  A    between atoms: O_2  and  C_3
REMARK    2  A    between atoms: C_8  and  C_9
REMARK    3  A    between atoms: C_9  and  C_12
REMARK    4  A    between atoms: N_28  and  C_29
REMARK    5  A    between atoms: C_29  and  C_30
REMARK                            x       y       z     vdW  Elec       q    Type
REMARK                         _______ _______ _______ _____ _____    ______ ____
ROOT
ATOM      1  C   UNL     1     -10.179  11.654  67.496  0.00  0.00    +0.132 C 
ATOM      2  C   UNL     1     -10.994  12.761  68.396  0.00  0.00    +0.194 C 
ATOM      3  O   UNL     1     -12.211  12.759  67.456  0.00  0.00    -0.474 OA
ATOM      4  C   UNL     1     -12.017  13.566  66.428  0.00  0.00    +0.173 A 
ATOM      5  C   UNL     1     -11.249  14.610  66.807  0.00  0.00    +0.014 A 
ATOM      6  C   UNL     1     -10.572  15.398  65.871  0.00  0.00    -0.022 A 
ATOM      7  C   UNL     1     -11.285  15.580  64.686  0.00  0.00    -0.001 A 
ATOM      8  C   UNL     1     -12.426  14.825  64.412  0.00  0.00    +0.045 A 
ATOM      9  C   UNL     1      -9.413  16.108  66.288  0.00  0.00    +0.042 C 
ATOM     10  C   UNL     1      -8.214  15.133  66.840  0.00  0.00    +0.062 C 
ATOM     11  N   UNL     1      -8.313  15.639  68.326  0.00  0.00    -0.274 NA
ATOM     12  C   UNL     1      -9.571  16.222  68.584  0.00  0.00    +0.073 C 
ATOM     13  C   UNL     1     -10.419  15.023  68.925  0.00  0.00    +0.025 C 
ATOM     14  C   UNL     1      -9.090  13.794  67.127  0.00  0.00    +0.021 C 
ATOM     15  C   UNL     1      -8.079  12.849  67.645  0.00  0.00    +0.007 C 
ATOM     16  C   UNL     1      -9.321  13.149  65.755  0.00  0.00    +0.004 C 
ATOM     17  C   UNL     1     -12.595  13.665  65.165  0.00  0.00    +0.229 A 
ATOM     18  O   UNL     1     -13.208  12.524  64.633  0.00  0.00    -0.283 OA
ATOM     19  C   UNL     1     -10.285  14.091  67.777  0.00  0.00    +0.063 C 
ATOM     20  C   UNL     1      -8.817  11.597  68.384  0.00  0.00    +0.056 C 
ATOM     21  C   UNL     1     -10.003  11.883  66.154  0.00  0.00    +0.031 C 
ENDROOT
BRANCH  20  22
ATOM     22  C   UNL     1      -8.102  10.434  67.503  0.00  0.00    +0.129 C 
ATOM     23  O   UNL     1      -8.990   9.810  66.699  0.00  0.00    -0.226 OA
ATOM     24  C   UNL     1      -6.881  10.849  66.843  0.00  0.00    +0.033 C 
BRANCH  22  25
ATOM     25  C   UNL     1      -7.707   9.345  68.504  0.00  0.00    +0.026 C 
ATOM     26  C   UNL     1      -6.206   9.163  68.294  0.00  0.00    +0.002 C 
ATOM     27  C   UNL     1      -8.397   8.044  68.231  0.00  0.00    +0.002 C 
ATOM     28  C   UNL     1      -7.999   9.871  69.879  0.00  0.00    +0.002 C 
ENDBRANCH  22  25
ENDBRANCH  20  22
BRANCH   1  30
ATOM     29  C   UNL     1     -11.286  10.341  68.238  0.00  0.00    +0.174 C 
ATOM     30  O   UNL     1     -10.952  10.540  67.828  0.00  0.00    -0.352 OA
ENDBRANCH   1  30
BRANCH  11  31
ATOM     31  C   UNL     1      -7.301  16.650  68.379  0.00  0.00    +0.072 C 
BRANCH  31  32
ATOM     32  C   UNL     1      -7.878  17.993  68.694  0.00  0.00    +0.016 C 
ATOM     33  C   UNL     1      -7.600  19.178  67.793  0.00  0.00    +0.001 C 
ATOM     34  C   UNL     1      -6.772  19.032  68.999  0.00  0.00    +0.001 C 
ENDBRANCH  31  32
ENDBRANCH  11  31
TORSDOF 5
ENDMDL
MODEL 4
REMARK VINA RESULT:      -6.4      2.491      5.172
REMARK  Name = 
REMARK  5 active torsions:
REMARK  status: ('A' for Active; 'I' for Inactive)
REMARK    1  A    between atoms: O_2  and  C_3
REMARK    2  A    between atoms: C_8  and  C_9
REMARK    3  A    between atoms: C_9  and  C_12
REMARK    4  A    between atoms: N_28  and  C_29
REMARK    5  A    between atoms: C_29  and  C_30
REMARK                            x       y       z     vdW  Elec       q    Type
REMARK                         _______ _______ _______ _____ _____    ______ ____
ROOT
ATOM      1  C   UNL     1      -8.028  13.895  67.608  0.00  0.00    +0.132 C 
ATOM      2  C   UNL     1      -8.939  12.658  68.194  0.00  0.00    +0.194 C 
ATOM      3  O   UNL     1      -9.209  12.079  66.795  0.00  0.00    -0.474 OA
ATOM      4  C   UNL     1     -10.219  12.700  66.213  0.00  0.00    +0.173 A 
ATOM      5  C   UNL     1     -11.111  13.094  67.147  0.00  0.00    +0.014 A 
ATOM      6  C   UNL     1     -12.060  14.087  66.880  0.00  0.00    -0.022 A 
ATOM      7  C   UNL     1     -12.541  14.051  65.572  0.00  0.00    -0.001 A 
ATOM      8  C   UNL     1     -11.924  13.261  64.601  0.00  0.00    +0.045 A 
ATOM      9  C   UNL     1     -12.598  14.826  67.969  0.00  0.00    +0.042 C 
ATOM     10  C   UNL     1     -11.467  15.657  68.818  0.00  0.00    +0.062 C 
ATOM     11  N   UNL     1     -11.624  14.791  70.121  0.00  0.00    -0.274 NA
ATOM     12  C   UNL     1     -12.193  13.533  69.832  0.00  0.00    +0.073 C 
ATOM     13  C   UNL     1     -10.990  12.720  69.425  0.00  0.00    +0.025 C 
ATOM     14  C   UNL     1     -10.141  14.858  68.320  0.00  0.00    +0.021 C 
ATOM     15  C   UNL     1      -9.056  15.543  69.053  0.00  0.00    +0.007 C 
ATOM     16  C   UNL     1      -9.839  15.393  66.916  0.00  0.00    +0.004 C 
ATOM     17  C   UNL     1     -10.632  12.825  64.889  0.00  0.00    +0.229 A 
ATOM     18  O   UNL     1      -9.674  12.648  63.884  0.00  0.00    -0.283 OA
ATOM     19  C   UNL     1     -10.339  13.480  68.328  0.00  0.00    +0.063 C 
ATOM     20  C   UNL     1      -7.705  14.630  69.023  0.00  0.00    +0.056 C 
ATOM     21  C   UNL     1      -8.549  14.700  66.626  0.00  0.00    +0.031 C 
ENDROOT
BRANCH  20  22
ATOM     22  C   UNL     1      -6.741  15.775  68.389  0.00  0.00    +0.129 C 
ATOM     23  O   UNL     1      -6.320  15.434  67.152  0.00  0.00    -0.226 OA
ATOM     24  C   UNL     1      -7.261  17.123  68.498  0.00  0.00    +0.033 C 
BRANCH  22  25
ATOM     25  C   UNL     1      -5.456  15.736  69.222  0.00  0.00    +0.026 C 
ATOM     26  C   UNL     1      -4.354  15.456  68.204  0.00  0.00    +0.002 C 
ATOM     27  C   UNL     1      -5.471  14.636  70.239  0.00  0.00    +0.002 C 
ATOM     28  C   UNL     1      -5.284  17.090  69.845  0.00  0.00    +0.002 C 
ENDBRANCH  22  25
ENDBRANCH  20  22
BRANCH   1  30
ATOM     29  C   UNL     1      -6.673  12.637  67.325  0.00  0.00    +0.174 C 
ATOM     30  O   UNL     1      -6.907  13.146  67.250  0.00  0.00    -0.352 OA
ENDBRANCH   1  30
BRANCH  11  31
ATOM     31  C   UNL     1     -12.547  15.561  70.899  0.00  0.00    +0.072 C 
BRANCH  31  32
ATOM     32  C   UNL     1     -12.062  15.751  72.301  0.00  0.00    +0.016 C 
ATOM     33  C   UNL     1     -12.414  14.745  73.377  0.00  0.00    +0.001 C 
ATOM     34  C   UNL     1     -13.237  15.960  73.286  0.00  0.00    +0.001 C 
ENDBRANCH  31  32
ENDBRANCH  11  31
TORSDOF 5
ENDMDL
MODEL 5
REMARK VINA RESULT:      -6.4      3.875      8.079
REMARK  Name = 
REMARK  5 active torsions:
REMARK  status: ('A' for Active; 'I' for Inactive)
REMARK    1  A    between atoms: O_2  and  C_3
REMARK    2  A    between atoms: C_8  and  C_9
REMARK    3  A    between atoms: C_9  and  C_12
REMARK    4  A    between atoms: N_28  and  C_29
REMARK    5  A    between atoms: C_29  and  C_30
REMARK                            x       y       z     vdW  Elec       q    Type
REMARK                         _______ _______ _______ _____ _____    ______ ____
ROOT
ATOM      1  C   UNL     1      -6.560  18.225  68.504  0.00  0.00    +0.132 C 
ATOM      2  C   UNL     1      -5.114  17.519  68.169  0.00  0.00    +0.194 C 
ATOM      3  O   UNL     1      -4.611  17.662  69.615  0.00  0.00    -0.474 OA
ATOM      4  C   UNL     1      -4.106  18.864  69.825  0.00  0.00    +0.173 A 
ATOM      5  C   UNL     1      -3.541  19.326  68.689  0.00  0.00    +0.014 A 
ATOM      6  C   UNL     1      -3.281  20.688  68.502  0.00  0.00    -0.022 A 
ATOM      7  C   UNL     1      -2.889  21.338  69.671  0.00  0.00    -0.001 A 
ATOM      8  C   UNL     1      -3.010  20.716  70.914  0.00  0.00    +0.045 A 
ATOM      9  C   UNL     1      -3.195  21.189  67.174  0.00  0.00    +0.042 C 
ATOM     10  C   UNL     1      -4.573  20.987  66.308  0.00  0.00    +0.062 C 
ATOM     11  N   UNL     1      -3.943  19.950  65.307  0.00  0.00    -0.274 NA
ATOM     12  C   UNL     1      -2.796  19.342  65.857  0.00  0.00    +0.073 C 
ATOM     13  C   UNL     1      -3.386  18.215  66.667  0.00  0.00    +0.025 C 
ATOM     14  C   UNL     1      -5.276  19.838  67.219  0.00  0.00    +0.021 C 
ATOM     15  C   UNL     1      -6.540  19.580  66.498  0.00  0.00    +0.007 C 
ATOM     16  C   UNL     1      -5.854  20.570  68.435  0.00  0.00    +0.004 C 
ATOM     17  C   UNL     1      -3.859  19.613  70.972  0.00  0.00    +0.229 A 
ATOM     18  O   UNL     1      -4.598  19.313  72.124  0.00  0.00    -0.283 OA
ATOM     19  C   UNL     1      -4.370  18.845  67.583  0.00  0.00    +0.063 C 
ATOM     20  C   UNL     1      -7.191  18.174  67.006  0.00  0.00    +0.056 C 
ATOM     21  C   UNL     1      -6.578  19.455  69.114  0.00  0.00    +0.031 C 
ENDROOT
BRANCH  20  22
ATOM     22  C   UNL     1      -8.635  18.795  67.421  0.00  0.00    +0.129 C 
ATOM     23  O   UNL     1      -8.811  18.777  68.759  0.00  0.00    -0.226 OA
ATOM     24  C   UNL     1      -8.944  20.062  66.790  0.00  0.00    +0.033 C 
BRANCH  22  25
ATOM     25  C   UNL     1      -9.674  17.791  66.914  0.00  0.00    +0.026 C 
ATOM     26  C   UNL     1     -10.563  18.606  65.977  0.00  0.00    +0.002 C 
ATOM     27  C   UNL     1     -10.516  17.236  68.022  0.00  0.00    +0.002 C 
ATOM     28  C   UNL     1      -8.937  16.722  66.163  0.00  0.00    +0.002 C 
ENDBRANCH  22  25
ENDBRANCH  20  22
BRANCH   1  30
ATOM     29  C   UNL     1      -7.056  16.619  69.326  0.00  0.00    +0.174 C 
ATOM     30  O   UNL     1      -7.114  17.174  69.237  0.00  0.00    -0.352 OA
ENDBRANCH   1  30
BRANCH  11  31
ATOM     31  C   UNL     1      -3.559  20.777  64.203  0.00  0.00    +0.072 C 
BRANCH  31  32
ATOM     32  C   UNL     1      -4.740  21.186  63.382  0.00  0.00    +0.016 C 
ATOM     33  C   UNL     1      -5.687  20.143  62.827  0.00  0.00    +0.001 C 
ATOM     34  C   UNL     1      -4.638  20.654  61.933  0.00  0.00    +0.001 C 
ENDBRANCH  31  32
ENDBRANCH  11  31
TORSDOF 5
ENDMDL
MODEL 6
REMARK VINA RESULT:      -6.4      3.169      5.855
REMARK  Name = 
REMARK  5 active torsions:
REMARK  status: ('A' for Active; 'I' for Inactive)
REMARK    1  A    between atoms: O_2  and  C_3
REMARK    2  A    between atoms: C_8  and  C_9
REMARK    3  A    between atoms: C_9  and  C_12
REMARK    4  A    between atoms: N_28  and  C_29
REMARK    5  A    between atoms: C_29  and  C_30
REMARK                            x       y       z     vdW  Elec       q    Type
REMARK                         _______ _______ _______ _____ _____    ______ ____
ROOT
ATOM      1  C   UNL     1      -8.446  11.656  67.305  0.00  0.00    +0.132 C 
ATOM      2  C   UNL     1      -9.777  11.030  68.038  0.00  0.00    +0.194 C 
ATOM      3  O   UNL     1     -10.396  10.562  66.711  0.00  0.00    -0.474 OA
ATOM      4  C   UNL     1     -11.044  11.548  66.116  0.00  0.00    +0.173 A 
ATOM      5  C   UNL     1     -11.573  12.371  67.046  0.00  0.00    +0.014 A 
ATOM      6  C   UNL     1     -11.969  13.675  66.729  0.00  0.00    -0.022 A 
ATOM      7  C   UNL     1     -12.513  13.790  65.451  0.00  0.00    -0.001 A 
ATOM      8  C   UNL     1     -12.414  12.744  64.532  0.00  0.00    +0.045 A 
ATOM      9  C   UNL     1     -12.014  14.645  67.768  0.00  0.00    +0.042 C 
ATOM     10  C   UNL     1     -10.564  14.898  68.491  0.00  0.00    +0.062 C 
ATOM     11  N   UNL     1     -11.002  14.288  69.873  0.00  0.00    -0.274 NA
ATOM     12  C   UNL     1     -12.111  13.429  69.723  0.00  0.00    +0.073 C 
ATOM     13  C   UNL     1     -11.460  12.124  69.342  0.00  0.00    +0.025 C 
ATOM     14  C   UNL     1      -9.805  13.541  68.014  0.00  0.00    +0.021 C 
ATOM     15  C   UNL     1      -8.472  13.678  68.636  0.00  0.00    +0.007 C 
ATOM     16  C   UNL     1      -9.401  13.784  66.555  0.00  0.00    +0.004 C 
ATOM     17  C   UNL     1     -11.454  11.772  64.805  0.00  0.00    +0.229 A 
ATOM     18  O   UNL     1     -10.771  11.104  63.781  0.00  0.00    -0.283 OA
ATOM     19  C   UNL     1     -10.620  12.420  68.155  0.00  0.00    +0.063 C 
ATOM     20  C   UNL     1      -7.708  12.238  68.633  0.00  0.00    +0.056 C 
ATOM     21  C   UNL     1      -8.608  12.550  66.277  0.00  0.00    +0.031 C 
ENDROOT
BRANCH  20  22
ATOM     22  C   UNL     1      -6.375  12.755  67.859  0.00  0.00    +0.129 C 
ATOM     23  O   UNL     1      -6.265  12.188  66.638  0.00  0.00    -0.226 OA
ATOM     24  C   UNL     1      -6.194  14.192  67.874  0.00  0.00    +0.033 C 
BRANCH  22  25
ATOM     25  C   UNL     1      -5.194  12.159  68.632  0.00  0.00    +0.026 C 
ATOM     26  C   UNL     1      -4.338  13.367  69.005  0.00  0.00    +0.002 C 
ATOM     27  C   UNL     1      -4.378  11.225  67.792  0.00  0.00    +0.002 C 
ATOM     28  C   UNL     1      -5.750  11.493  69.856  0.00  0.00    +0.002 C 
ENDBRANCH  22  25
ENDBRANCH  20  22
BRANCH   1  30
ATOM     29  C   UNL     1      -7.805   9.907  67.133  0.00  0.00    +0.174 C 
ATOM     30  O   UNL     1      -7.834  10.448  66.971  0.00  0.00    -0.352 OA
ENDBRANCH   1  30
BRANCH  11  31
ATOM     31  C   UNL     1     -11.395  15.447  70.614  0.00  0.00    +0.072 C 
BRANCH  31  32
ATOM     32  C   UNL     1     -11.929  15.085  71.964  0.00  0.00    +0.016 C 
ATOM     33  C   UNL     1     -13.283  15.592  72.415  0.00  0.00    +0.001 C 
ATOM     34  C   UNL     1     -12.095  16.331  72.865  0.00  0.00    +0.001 C 
ENDBRANCH  31  32
ENDBRANCH  11  31
TORSDOF 5
ENDMDL
MODEL 7
REMARK VINA RESULT:      -6.3      2.849      7.036
REMARK  Name = 
REMARK  5 active torsions:
REMARK  status: ('A' for Active; 'I' for Inactive)
REMARK    1  A    between atoms: O_2  and  C_3
REMARK    2  A    between atoms: C_8  and  C_9
REMARK    3  A    between atoms: C_9  and  C_12
REMARK    4  A    between atoms: N_28  and  C_29
REMARK    5  A    between atoms: C_29  and  C_30
REMARK                            x       y       z     vdW  Elec       q    Type
REMARK                         _______ _______ _______ _____ _____    ______ ____
ROOT
ATOM      1  C   UNL     1      -8.500  17.988  66.767  0.00  0.00    +0.132 C 
ATOM      2  C   UNL     1      -8.307  19.246  67.807  0.00  0.00    +0.194 C 
ATOM      3  O   UNL     1      -7.893  20.219  66.691  0.00  0.00    -0.474 OA
ATOM      4  C   UNL     1      -6.607  20.102  66.413  0.00  0.00    +0.173 A 
ATOM      5  C   UNL     1      -5.928  19.766  67.531  0.00  0.00    +0.014 A 
ATOM      6  C   UNL     1      -4.648  19.207  67.469  0.00  0.00    -0.022 A 
ATOM      7  C   UNL     1      -3.872  19.721  66.431  0.00  0.00    -0.001 A 
ATOM      8  C   UNL     1      -4.442  20.512  65.433  0.00  0.00    +0.045 A 
ATOM      9  C   UNL     1      -4.199  18.409  68.558  0.00  0.00    +0.042 C 
ATOM     10  C   UNL     1      -5.132  17.088  68.828  0.00  0.00    +0.062 C 
ATOM     11  N   UNL     1      -5.672  17.596  70.216  0.00  0.00    -0.274 NA
ATOM     12  C   UNL     1      -5.548  18.996  70.330  0.00  0.00    +0.073 C 
ATOM     13  C   UNL     1      -6.803  19.487  69.653  0.00  0.00    +0.025 C 
ATOM     14  C   UNL     1      -6.466  17.553  68.022  0.00  0.00    +0.021 C 
ATOM     15  C   UNL     1      -7.381  16.410  68.223  0.00  0.00    +0.007 C 
ATOM     16  C   UNL     1      -6.150  17.332  66.538  0.00  0.00    +0.004 C 
ATOM     17  C   UNL     1      -5.829  20.451  65.313  0.00  0.00    +0.229 A 
ATOM     18  O   UNL     1      -6.467  20.586  64.073  0.00  0.00    -0.283 OA
ATOM     19  C   UNL     1      -6.799  18.876  68.299  0.00  0.00    +0.063 C 
ATOM     20  C   UNL     1      -8.908  16.852  67.857  0.00  0.00    +0.056 C 
ATOM     21  C   UNL     1      -7.471  17.657  65.922  0.00  0.00    +0.031 C 
ENDROOT
BRANCH  20  22
ATOM     22  C   UNL     1      -9.169  15.674  66.768  0.00  0.00    +0.129 C 
ATOM     23  O   UNL     1      -9.348  16.181  65.529  0.00  0.00    -0.226 OA
ATOM     24  C   UNL     1      -8.227  14.575  66.838  0.00  0.00    +0.033 C 
BRANCH  22  25
ATOM     25  C   UNL     1     -10.543  15.092  67.114  0.00  0.00    +0.026 C 
ATOM     26  C   UNL     1     -11.308  15.119  65.793  0.00  0.00    +0.002 C 
ATOM     27  C   UNL     1     -11.277  15.927  68.118  0.00  0.00    +0.002 C 
ATOM     28  C   UNL     1     -10.329  13.685  67.586  0.00  0.00    +0.002 C 
ENDBRANCH  22  25
ENDBRANCH  20  22
BRANCH   1  30
ATOM     29  C   UNL     1     -10.083  18.817  66.212  0.00  0.00    +0.174 C 
ATOM     30  O   UNL     1      -9.672  18.432  66.154  0.00  0.00    -0.352 OA
ENDBRANCH   1  30
BRANCH  11  31
ATOM     31  C   UNL     1      -4.784  16.964  71.145  0.00  0.00    +0.072 C 
BRANCH  31  32
ATOM     32  C   UNL     1      -4.586  15.517  70.822  0.00  0.00    +0.016 C 
ATOM     33  C   UNL     1      -5.669  14.505  71.138  0.00  0.00    +0.001 C 
ATOM     34  C   UNL     1      -4.567  14.645  72.101  0.00  0.00    +0.001 C 
ENDBRANCH  31  32
ENDBRANCH  11  31
TORSDOF 5
ENDMDL
MODEL 8
REMARK VINA RESULT:      -6.2      2.721      7.353
REMARK  Name = 
REMARK  5 active torsions:
REMARK  status: ('A' for Active; 'I' for Inactive)
REMARK    1  A    between atoms: O_2  and  C_3
REMARK    2  A    between atoms: C_8  and  C_9
REMARK    3  A    between atoms: C_9  and  C_12
REMARK    4  A    between atoms: N_28  and  C_29
REMARK    5  A    between atoms: C_29  and  C_30
REMARK                            x       y       z     vdW  Elec       q    Type
REMARK                         _______ _______ _______ _____ _____    ______ ____
ROOT
ATOM      1  C   UNL     1      -7.181  16.818  68.283  0.00  0.00    +0.132 C 
ATOM      2  C   UNL     1      -5.651  16.834  67.683  0.00  0.00    +0.194 C 
ATOM      3  O   UNL     1      -5.017  17.050  69.068  0.00  0.00    -0.474 OA
ATOM      4  C   UNL     1      -5.026  18.328  69.398  0.00  0.00    +0.173 A 
ATOM      5  C   UNL     1      -4.899  19.087  68.289  0.00  0.00    +0.014 A 
ATOM      6  C   UNL     1      -5.257  20.439  68.281  0.00  0.00    -0.022 A 
ATOM      7  C   UNL     1      -4.979  21.089  69.483  0.00  0.00    -0.001 A 
ATOM      8  C   UNL     1      -4.624  20.367  70.624  0.00  0.00    +0.045 A 
ATOM      9  C   UNL     1      -5.608  21.045  67.043  0.00  0.00    +0.042 C 
ATOM     10  C   UNL     1      -6.904  20.348  66.318  0.00  0.00    +0.062 C 
ATOM     11  N   UNL     1      -6.079  19.776  65.107  0.00  0.00    -0.274 NA
ATOM     12  C   UNL     1      -4.710  19.672  65.426  0.00  0.00    +0.073 C 
ATOM     13  C   UNL     1      -4.639  18.335  66.118  0.00  0.00    +0.025 C 
ATOM     14  C   UNL     1      -6.909  18.932  67.119  0.00  0.00    +0.021 C 
ATOM     15  C   UNL     1      -8.056  18.222  66.515  0.00  0.00    +0.007 C 
ATOM     16  C   UNL     1      -7.525  19.234  68.490  0.00  0.00    +0.004 C 
ATOM     17  C   UNL     1      -4.921  19.006  70.610  0.00  0.00    +0.229 A 
ATOM     18  O   UNL     1      -5.268  18.316  71.779  0.00  0.00    -0.283 OA
ATOM     19  C   UNL     1      -5.628  18.397  67.224  0.00  0.00    +0.063 C 
ATOM     20  C   UNL     1      -7.975  16.634  66.875  0.00  0.00    +0.056 C 
ATOM     21  C   UNL     1      -7.601  17.861  69.069  0.00  0.00    +0.031 C 
ENDROOT
BRANCH  20  22
ATOM     22  C   UNL     1      -9.455  16.535  67.540  0.00  0.00    +0.129 C 
ATOM     23  O   UNL     1      -9.393  16.100  68.816  0.00  0.00    -0.226 OA
ATOM     24  C   UNL     1     -10.278  17.711  67.345  0.00  0.00    +0.033 C 
BRANCH  22  25
ATOM     25  C   UNL     1     -10.157  15.386  66.809  0.00  0.00    +0.026 C 
ATOM     26  C   UNL     1     -11.363  15.060  67.687  0.00  0.00    +0.002 C 
ATOM     27  C   UNL     1      -9.291  14.169  66.700  0.00  0.00    +0.002 C 
ATOM     28  C   UNL     1     -10.590  15.904  65.469  0.00  0.00    +0.002 C 
ENDBRANCH  22  25
ENDBRANCH  20  22
BRANCH   1  30
ATOM     29  C   UNL     1      -6.759  15.156  69.033  0.00  0.00    +0.174 C 
ATOM     30  O   UNL     1      -7.123  15.570  68.906  0.00  0.00    -0.352 OA
ENDBRANCH   1  30
BRANCH  11  31
ATOM     31  C   UNL     1      -6.259  20.782  64.105  0.00  0.00    +0.072 C 
BRANCH  31  32
ATOM     32  C   UNL     1      -5.201  20.707  63.051  0.00  0.00    +0.016 C 
ATOM     33  C   UNL     1      -5.044  21.824  62.040  0.00  0.00    +0.001 C 
ATOM     34  C   UNL     1      -5.814  20.640  61.632  0.00  0.00    +0.001 C 
ENDBRANCH  31  32
ENDBRANCH  11  31
TORSDOF 5
ENDMDL
MODEL 9
REMARK VINA RESULT:      -6.0      2.643      4.827
REMARK  Name = 
REMARK  5 active torsions:
REMARK  status: ('A' for Active; 'I' for Inactive)
REMARK    1  A    between atoms: O_2  and  C_3
REMARK    2  A    between atoms: C_8  and  C_9
REMARK    3  A    between atoms: C_9  and  C_12
REMARK    4  A    between atoms: N_28  and  C_29
REMARK    5  A    between atoms: C_29  and  C_30
REMARK                            x       y       z     vdW  Elec       q    Type
REMARK                         _______ _______ _______ _____ _____    ______ ____
ROOT
ATOM      1  C   UNL     1      -5.925  17.231  67.565  0.00  0.00    +0.132 C 
ATOM      2  C   UNL     1      -6.857  16.949  66.241  0.00  0.00    +0.194 C 
ATOM      3  O   UNL     1      -6.995  18.444  65.911  0.00  0.00    -0.474 OA
ATOM      4  C   UNL     1      -7.964  18.998  66.618  0.00  0.00    +0.173 A 
ATOM      5  C   UNL     1      -8.940  18.092  66.840  0.00  0.00    +0.014 A 
ATOM      6  C   UNL     1      -9.882  18.266  67.860  0.00  0.00    -0.022 A 
ATOM      7  C   UNL     1     -10.249  19.598  68.048  0.00  0.00    -0.001 A 
ATOM      8  C   UNL     1      -9.535  20.632  67.440  0.00  0.00    +0.045 A 
ATOM      9  C   UNL     1     -10.527  17.118  68.396  0.00  0.00    +0.042 C 
ATOM     10  C   UNL     1      -9.490  16.043  69.074  0.00  0.00    +0.062 C 
ATOM     11  N   UNL     1      -9.740  14.927  67.994  0.00  0.00    -0.274 NA
ATOM     12  C   UNL     1     -10.256  15.476  66.802  0.00  0.00    +0.073 C 
ATOM     13  C   UNL     1      -9.006  15.910  66.079  0.00  0.00    +0.025 C 
ATOM     14  C   UNL     1      -8.110  16.552  68.380  0.00  0.00    +0.021 C 
ATOM     15  C   UNL     1      -7.106  15.620  68.933  0.00  0.00    +0.007 C 
ATOM     16  C   UNL     1      -7.700  17.812  69.151  0.00  0.00    +0.004 C 
ATOM     17  C   UNL     1      -8.265  20.311  66.969  0.00  0.00    +0.229 A 
ATOM     18  O   UNL     1      -7.220  21.244  66.973  0.00  0.00    -0.283 OA
ATOM     19  C   UNL     1      -8.280  16.799  67.020  0.00  0.00    +0.063 C 
ATOM     20  C   UNL     1      -5.739  15.689  68.046  0.00  0.00    +0.056 C 
ATOM     21  C   UNL     1      -6.376  18.102  68.526  0.00  0.00    +0.031 C 
ENDROOT
BRANCH  20  22
ATOM     22  C   UNL     1      -4.748  16.028  69.289  0.00  0.00    +0.129 C 
ATOM     23  O   UNL     1      -4.282  17.294  69.214  0.00  0.00    -0.226 OA
ATOM     24  C   UNL     1      -5.267  15.654  70.588  0.00  0.00    +0.033 C 
BRANCH  22  25
ATOM     25  C   UNL     1      -3.495  15.178  69.059  0.00  0.00    +0.026 C 
ATOM     26  C   UNL     1      -3.337  14.380  70.351  0.00  0.00    +0.002 C 
ATOM     27  C   UNL     1      -2.270  16.015  68.850  0.00  0.00    +0.002 C 
ATOM     28  C   UNL     1      -3.775  14.272  67.896  0.00  0.00    +0.002 C 
ENDBRANCH  22  25
ENDBRANCH  20  22
BRANCH   1  30
ATOM     29  C   UNL     1      -4.539  17.639  66.376  0.00  0.00    +0.174 C 
ATOM     30  O   UNL     1      -4.762  17.613  66.895  0.00  0.00    -0.352 OA
ENDBRANCH   1  30
BRANCH  11  31
ATOM     31  C   UNL     1     -10.741  14.112  68.614  0.00  0.00    +0.072 C 
BRANCH  31  32
ATOM     32  C   UNL     1     -10.514  12.658  68.345  0.00  0.00    +0.016 C 
ATOM     33  C   UNL     1     -11.547  11.847  67.591  0.00  0.00    +0.001 C 
ATOM     34  C   UNL     1     -11.565  11.776  69.059  0.00  0.00    +0.001 C 
ENDBRANCH  31  32
ENDBRANCH  11  31
TORSDOF 5
ENDMDL
