MODEL 1
REMARK VINA RESULT:      -6.6      0.000      0.000
REMARK  Name = 
REMARK  4 active torsions:
REMARK  status: ('A' for Active; 'I' for Inactive)
REMARK    1  A    between atoms: CA_3  and  C_4
REMARK    2  A    between atoms: CA_10  and  N_11
REMARK    3  A    between atoms: C_12  and  CA_14
REMARK    4  A    between atoms: CA_14  and  C_16
REMARK                            x       y       z     vdW  Elec       q    Type
REMARK                         _______ _______ _______ _____ _____    ______ ____
ROOT
ATOM      1  C   UNL     1     -10.102   9.480  66.250  0.00  0.00    +0.029 C 
ATOM      2  C   UNL     1     -10.424  10.524  65.967  0.00  0.00    -0.013 C 
ATOM      3  C   UNL     1      -9.586  11.192  64.931  0.00  0.00    +0.083 C 
ATOM      4  S   UNL     1     -10.439  12.481  64.032  0.00  0.00    -0.114 S 
ATOM      5  C   UNL     1     -12.050  12.723  65.024  0.00  0.00    +0.157 C 
ATOM      6  N   UNL     1     -11.473  12.634  66.428  0.00  0.00    -0.242 N 
ATOM      7  C   UNL     1     -12.152  13.812  66.908  0.00  0.00    +0.253 C 
ATOM      8  O   UNL     1     -12.282  14.457  67.948  0.00  0.00    -0.273 OA
ATOM      9  CA  UNL     1     -12.000  14.378  65.394  0.00  0.00    +0.200 C 
ATOM     10  CA  UNL     1     -11.068  11.326  66.816  0.00  0.00    +0.128 C 
ENDROOT
BRANCH   9  11
ATOM     11  N   UNL     1     -10.415  14.482  65.549  0.00  0.00    -0.194 NA
ATOM     12  C   UNL     1     -10.154  15.882  65.659  0.00  0.00    +0.264 C 
ATOM     13  O   UNL     1     -10.687  16.721  64.873  0.00  0.00    -0.271 OA
BRANCH  12  14
ATOM     14  CA  UNL     1      -8.588  16.237  65.964  0.00  0.00    +0.191 C 
ATOM     15  N   UNL     1      -8.622  15.460  67.363  0.00  0.00    -0.118 NA
BRANCH  14  16
ATOM     16  C   UNL     1      -9.015  17.666  66.640  0.00  0.00    +0.004 A 
ATOM     17  C   UNL     1      -8.121  18.668  66.266  0.00  0.00    +0.001 A 
ATOM     18  C   UNL     1      -7.584  19.545  67.202  0.00  0.00    +0.042 A 
ATOM     19  C   UNL     1      -7.883  19.398  68.551  0.00  0.00    +0.196 A 
ATOM     20  O   UNL     1      -6.943  19.727  69.529  0.00  0.00    -0.287 OA
ATOM     21  C   UNL     1      -9.002  18.635  68.861  0.00  0.00    +0.042 A 
ATOM     22  C   UNL     1      -9.323  17.622  67.966  0.00  0.00    +0.001 A 
ENDBRANCH  14  16
ENDBRANCH  12  14
ENDBRANCH   9  11
BRANCH  10  23
ATOM     23  C   UNL     1     -11.148  10.896  68.221  0.00  0.00    +0.401 C 
ATOM     24  OXT UNL     1     -10.110  11.273  69.076  0.00  0.00    -0.239 OA
ATOM     25  O   UNL     1     -12.300  10.779  68.712  0.00  0.00    -0.239 OA
ENDBRANCH  10  23
TORSDOF 4
ENDMDL
MODEL 2
REMARK VINA RESULT:      -6.4      3.410      6.667
REMARK  Name = 
REMARK  4 active torsions:
REMARK  status: ('A' for Active; 'I' for Inactive)
REMARK    1  A    between atoms: CA_3  and  C_4
REMARK    2  A    between atoms: CA_10  and  N_11
REMARK    3  A    between atoms: C_12  and  CA_14
REMARK    4  A    between atoms: CA_14  and  C_16
REMARK                            x       y       z     vdW  Elec       q    Type
REMARK                         _______ _______ _______ _____ _____    ______ ____
ROOT
ATOM      1  C   UNL     1      -9.658  19.928  66.182  0.00  0.00    +0.029 C 
ATOM      2  C   UNL     1      -9.591  18.815  66.352  0.00  0.00    -0.013 C 
ATOM      3  C   UNL     1     -10.696  18.009  65.760  0.00  0.00    +0.083 C 
ATOM      4  S   UNL     1     -10.260  16.304  65.446  0.00  0.00    -0.114 S 
ATOM      5  C   UNL     1      -8.587  16.101  66.339  0.00  0.00    +0.157 C 
ATOM      6  N   UNL     1      -8.903  16.883  67.604  0.00  0.00    -0.242 N 
ATOM      7  C   UNL     1      -8.393  15.872  68.496  0.00  0.00    +0.253 C 
ATOM      8  O   UNL     1      -8.222  15.690  69.701  0.00  0.00    -0.273 OA
ATOM      9  CA  UNL     1      -8.892  14.800  67.385  0.00  0.00    +0.200 C 
ATOM     10  CA  UNL     1      -8.983  18.293  67.419  0.00  0.00    +0.128 C 
ENDROOT
BRANCH   9  11
ATOM     11  N   UNL     1     -10.421  15.152  67.672  0.00  0.00    -0.194 NA
ATOM     12  C   UNL     1     -10.880  14.100  68.522  0.00  0.00    +0.264 C 
ATOM     13  O   UNL     1     -10.634  12.884  68.267  0.00  0.00    -0.271 OA
BRANCH  12  14
ATOM     14  CA  UNL     1     -12.406  14.314  69.069  0.00  0.00    +0.191 C 
ATOM     15  N   UNL     1     -12.296  15.905  68.932  0.00  0.00    -0.118 NA
BRANCH  14  16
ATOM     16  C   UNL     1     -11.879  14.317  70.619  0.00  0.00    +0.004 A 
ATOM     17  C   UNL     1     -12.769  13.623  71.437  0.00  0.00    +0.001 A 
ATOM     18  C   UNL     1     -13.199  14.150  72.651  0.00  0.00    +0.042 A 
ATOM     19  C   UNL     1     -12.794  15.418  73.045  0.00  0.00    +0.196 A 
ATOM     20  O   UNL     1     -13.638  16.234  73.801  0.00  0.00    -0.287 OA
ATOM     21  C   UNL     1     -11.677  15.943  72.406  0.00  0.00    +0.042 A 
ATOM     22  C   UNL     1     -11.463  15.523  71.098  0.00  0.00    +0.001 A 
ENDBRANCH  14  16
ENDBRANCH  12  14
ENDBRANCH   9  11
BRANCH  10  23
ATOM     23  C   UNL     1      -8.598  19.218  68.496  0.00  0.00    +0.401 C 
ATOM     24  OXT UNL     1      -9.562  19.539  69.454  0.00  0.00    -0.239 OA
ATOM     25  O   UNL     1      -7.394  19.191  68.861  0.00  0.00    -0.239 OA
ENDBRANCH  10  23
TORSDOF 4
ENDMDL
MODEL 3
REMARK VINA RESULT:      -6.2      3.475      7.738
REMARK  Name = 
REMARK  4 active torsions:
REMARK  status: ('A' for Active; 'I' for Inactive)
REMARK    1  A    between atoms: CA_3  and  C_4
REMARK    2  A    between atoms: CA_10  and  N_11
REMARK    3  A    between atoms: C_12  and  CA_14
REMARK    4  A    between atoms: CA_14  and  C_16
REMARK                            x       y       z     vdW  Elec       q    Type
REMARK                         _______ _______ _______ _____ _____    ______ ____
ROOT
ATOM      1  C   UNL     1      -3.753  19.068  66.539  0.00  0.00    +0.029 C 
ATOM      2  C   UNL     1      -4.754  18.972  67.052  0.00  0.00    -0.013 C 
ATOM      3  C   UNL     1      -4.885  17.817  67.985  0.00  0.00    +0.083 C 
ATOM      4  S   UNL     1      -6.136  18.041  69.243  0.00  0.00    -0.114 S 
ATOM      5  C   UNL     1      -7.073  19.598  68.664  0.00  0.00    +0.157 C 
ATOM      6  N   UNL     1      -7.131  19.294  67.175  0.00  0.00    -0.242 N 
ATOM      7  C   UNL     1      -8.535  19.592  67.049  0.00  0.00    +0.253 C 
ATOM      8  O   UNL     1      -9.405  19.644  66.180  0.00  0.00    -0.273 OA
ATOM      9  CA  UNL     1      -8.673  19.041  68.569  0.00  0.00    +0.200 C 
ATOM     10  CA  UNL     1      -5.883  19.419  66.501  0.00  0.00    +0.128 C 
ENDROOT
BRANCH   9  11
ATOM     11  N   UNL     1      -8.322  17.555  68.105  0.00  0.00    -0.194 NA
ATOM     12  C   UNL     1      -9.573  16.868  68.118  0.00  0.00    +0.264 C 
ATOM     13  O   UNL     1     -10.375  16.964  69.094  0.00  0.00    -0.271 OA
BRANCH  12  14
ATOM     14  CA  UNL     1      -9.490  15.340  67.542  0.00  0.00    +0.191 C 
ATOM     15  N   UNL     1      -8.581  15.791  66.305  0.00  0.00    -0.118 NA
BRANCH  14  16
ATOM     16  C   UNL     1     -10.887  15.547  66.713  0.00  0.00    +0.004 A 
ATOM     17  C   UNL     1     -11.763  14.492  66.965  0.00  0.00    +0.001 A 
ATOM     18  C   UNL     1     -12.432  13.844  65.932  0.00  0.00    +0.042 A 
ATOM     19  C   UNL     1     -12.188  14.198  64.611  0.00  0.00    +0.196 A 
ATOM     20  O   UNL     1     -12.248  13.243  63.594  0.00  0.00    -0.287 OA
ATOM     21  C   UNL     1     -11.589  15.433  64.396  0.00  0.00    +0.042 A 
ATOM     22  C   UNL     1     -10.747  15.892  65.402  0.00  0.00    +0.001 A 
ENDBRANCH  14  16
ENDBRANCH  12  14
ENDBRANCH   9  11
BRANCH  10  23
ATOM     23  C   UNL     1      -5.826  19.842  65.092  0.00  0.00    +0.401 C 
ATOM     24  OXT UNL     1      -6.182  18.907  64.118  0.00  0.00    -0.239 OA
ATOM     25  O   UNL     1      -6.059  21.055  64.856  0.00  0.00    -0.239 OA
ENDBRANCH  10  23
TORSDOF 4
ENDMDL
MODEL 4
REMARK VINA RESULT:      -6.2      2.781      3.611
REMARK  Name = 
REMARK  4 active torsions:
REMARK  status: ('A' for Active; 'I' for Inactive)
REMARK    1  A    between atoms: CA_3  and  C_4
REMARK    2  A    between atoms: CA_10  and  N_11
REMARK    3  A    between atoms: C_12  and  CA_14
REMARK    4  A    between atoms: CA_14  and  C_16
REMARK                            x       y       z     vdW  Elec       q    Type
REMARK                         _______ _______ _______ _____ _____    ______ ____
ROOT
ATOM      1  C   UNL     1     -11.811  12.681  69.709  0.00  0.00    +0.029 C 
ATOM      2  C   UNL     1     -11.369  13.407  68.968  0.00  0.00    -0.013 C 
ATOM      3  C   UNL     1     -10.142  12.937  68.266  0.00  0.00    +0.083 C 
ATOM      4  S   UNL     1      -9.857  13.737  66.692  0.00  0.00    -0.114 S 
ATOM      5  C   UNL     1     -11.110  15.174  66.691  0.00  0.00    +0.157 C 
ATOM      6  N   UNL     1     -10.952  15.622  68.136  0.00  0.00    -0.242 N 
ATOM      7  C   UNL     1     -10.827  17.021  67.812  0.00  0.00    +0.253 C 
ATOM      8  O   UNL     1     -10.702  18.104  68.382  0.00  0.00    -0.273 OA
ATOM      9  CA  UNL     1     -10.113  16.524  66.442  0.00  0.00    +0.200 C 
ATOM     10  CA  UNL     1     -11.510  14.728  69.093  0.00  0.00    +0.128 C 
ENDROOT
BRANCH   9  11
ATOM     11  N   UNL     1      -8.854  15.971  67.252  0.00  0.00    -0.194 NA
ATOM     12  C   UNL     1      -7.797  16.879  66.938  0.00  0.00    +0.264 C 
ATOM     13  O   UNL     1      -7.567  17.246  65.748  0.00  0.00    -0.271 OA
BRANCH  12  14
ATOM     14  CA  UNL     1      -6.417  16.593  67.767  0.00  0.00    +0.191 C 
ATOM     15  N   UNL     1      -7.207  16.454  69.152  0.00  0.00    -0.118 NA
BRANCH  14  16
ATOM     16  C   UNL     1      -6.169  18.200  67.962  0.00  0.00    +0.004 A 
ATOM     17  C   UNL     1      -4.936  18.432  68.571  0.00  0.00    +0.001 A 
ATOM     18  C   UNL     1      -4.812  19.315  69.639  0.00  0.00    +0.042 A 
ATOM     19  C   UNL     1      -5.935  19.940  70.164  0.00  0.00    +0.196 A 
ATOM     20  O   UNL     1      -6.013  20.243  71.524  0.00  0.00    -0.287 OA
ATOM     21  C   UNL     1      -7.069  19.963  69.360  0.00  0.00    +0.042 A 
ATOM     22  C   UNL     1      -7.218  18.900  68.477  0.00  0.00    +0.001 A 
ENDBRANCH  14  16
ENDBRANCH  12  14
ENDBRANCH   9  11
BRANCH  10  23
ATOM     23  C   UNL     1     -12.068  15.230  70.359  0.00  0.00    +0.401 C 
ATOM     24  OXT UNL     1     -11.178  15.489  71.404  0.00  0.00    -0.239 OA
ATOM     25  O   UNL     1     -13.102  15.941  70.279  0.00  0.00    -0.239 OA
ENDBRANCH  10  23
TORSDOF 4
ENDMDL
MODEL 5
REMARK VINA RESULT:      -6.1      3.775      7.216
REMARK  Name = 
REMARK  4 active torsions:
REMARK  status: ('A' for Active; 'I' for Inactive)
REMARK    1  A    between atoms: CA_3  and  C_4
REMARK    2  A    between atoms: CA_10  and  N_11
REMARK    3  A    between atoms: C_12  and  CA_14
REMARK    4  A    between atoms: CA_14  and  C_16
REMARK                            x       y       z     vdW  Elec       q    Type
REMARK                         _______ _______ _______ _____ _____    ______ ____
ROOT
ATOM      1  C   UNL     1     -10.555  11.645  63.109  0.00  0.00    +0.029 C 
ATOM      2  C   UNL     1     -10.157  11.693  64.164  0.00  0.00    -0.013 C 
ATOM      3  C   UNL     1      -9.568  10.425  64.682  0.00  0.00    +0.083 C 
ATOM      4  S   UNL     1      -8.386  10.664  66.003  0.00  0.00    -0.114 S 
ATOM      5  C   UNL     1      -8.604  12.501  66.468  0.00  0.00    +0.157 C 
ATOM      6  N   UNL     1     -10.121  12.580  66.395  0.00  0.00    -0.242 N 
ATOM      7  C   UNL     1     -10.263  13.252  67.663  0.00  0.00    +0.253 C 
ATOM      8  O   UNL     1     -11.147  13.729  68.373  0.00  0.00    -0.273 OA
ATOM      9  CA  UNL     1      -8.952  12.414  68.126  0.00  0.00    +0.200 C 
ATOM     10  CA  UNL     1     -10.650  12.533  65.075  0.00  0.00    +0.128 C 
ENDROOT
BRANCH   9  11
ATOM     11  N   UNL     1      -9.761  11.041  68.071  0.00  0.00    -0.194 NA
ATOM     12  C   UNL     1      -9.387  10.353  69.265  0.00  0.00    +0.264 C 
ATOM     13  O   UNL     1      -8.176  10.264  69.629  0.00  0.00    -0.271 OA
BRANCH  12  14
ATOM     14  CA  UNL     1     -10.201   8.955  69.502  0.00  0.00    +0.191 C 
ATOM     15  N   UNL     1     -11.428   9.447  68.600  0.00  0.00    -0.118 NA
BRANCH  14  16
ATOM     16  C   UNL     1     -10.858   9.540  70.883  0.00  0.00    +0.004 A 
ATOM     17  C   UNL     1     -11.002   8.522  71.824  0.00  0.00    +0.001 A 
ATOM     18  C   UNL     1     -12.188   8.352  72.531  0.00  0.00    +0.042 A 
ATOM     19  C   UNL     1     -13.283   9.164  72.265  0.00  0.00    +0.196 A 
ATOM     20  O   UNL     1     -14.583   8.670  72.385  0.00  0.00    -0.287 OA
ATOM     21  C   UNL     1     -13.029  10.352  71.591  0.00  0.00    +0.042 A 
ATOM     22  C   UNL     1     -11.944  10.347  70.722  0.00  0.00    +0.001 A 
ENDBRANCH  14  16
ENDBRANCH  12  14
ENDBRANCH   9  11
BRANCH  10  23
ATOM     23  C   UNL     1     -11.892  13.245  64.734  0.00  0.00    +0.401 C 
ATOM     24  OXT UNL     1     -13.104  12.622  65.042  0.00  0.00    -0.239 OA
ATOM     25  O   UNL     1     -11.852  14.501  64.769  0.00  0.00    -0.239 OA
ENDBRANCH  10  23
TORSDOF 4
ENDMDL
MODEL 6
REMARK VINA RESULT:      -6.0      2.492      3.442
REMARK  Name = 
REMARK  4 active torsions:
REMARK  status: ('A' for Active; 'I' for Inactive)
REMARK    1  A    between atoms: CA_3  and  C_4
REMARK    2  A    between atoms: CA_10  and  N_11
REMARK    3  A    between atoms: C_12  and  CA_14
REMARK    4  A    between atoms: CA_14  and  C_16
REMARK                            x       y       z     vdW  Elec       q    Type
REMARK                         _______ _______ _______ _____ _____    ______ ____
ROOT
ATOM      1  C   UNL     1     -12.587  12.145  63.465  0.00  0.00    +0.029 C 
ATOM      2  C   UNL     1     -12.057  12.378  64.434  0.00  0.00    -0.013 C 
ATOM      3  C   UNL     1     -12.318  13.734  64.995  0.00  0.00    +0.083 C 
ATOM      4  S   UNL     1     -12.058  13.848  66.761  0.00  0.00    -0.114 S 
ATOM      5  C   UNL     1     -11.193  12.203  67.190  0.00  0.00    +0.157 C 
ATOM      6  N   UNL     1     -10.253  12.117  65.998  0.00  0.00    -0.242 N 
ATOM      7  C   UNL     1      -9.088  11.809  66.789  0.00  0.00    +0.253 C 
ATOM      8  O   UNL     1      -7.896  11.545  66.634  0.00  0.00    -0.273 OA
ATOM      9  CA  UNL     1      -9.766  12.731  67.940  0.00  0.00    +0.200 C 
ATOM     10  CA  UNL     1     -10.894  11.814  64.763  0.00  0.00    +0.128 C 
ENDROOT
BRANCH   9  11
ATOM     11  N   UNL     1      -9.571  14.046  67.058  0.00  0.00    -0.194 NA
ATOM     12  C   UNL     1      -8.485  14.738  67.675  0.00  0.00    +0.264 C 
ATOM     13  O   UNL     1      -8.430  14.904  68.930  0.00  0.00    -0.271 OA
BRANCH  12  14
ATOM     14  CA  UNL     1      -8.006  16.071  66.859  0.00  0.00    +0.191 C 
ATOM     15  N   UNL     1      -6.682  16.211  67.747  0.00  0.00    -0.118 NA
BRANCH  14  16
ATOM     16  C   UNL     1      -8.887  17.029  67.853  0.00  0.00    +0.004 A 
ATOM     17  C   UNL     1     -10.097  17.371  67.252  0.00  0.00    +0.001 A 
ATOM     18  C   UNL     1     -10.556  18.684  67.245  0.00  0.00    +0.042 A 
ATOM     19  C   UNL     1      -9.779  19.699  67.788  0.00  0.00    +0.196 A 
ATOM     20  O   UNL     1      -9.813  20.988  67.252  0.00  0.00    -0.287 OA
ATOM     21  C   UNL     1      -8.766  19.312  68.656  0.00  0.00    +0.042 A 
ATOM     22  C   UNL     1      -8.208  18.059  68.431  0.00  0.00    +0.001 A 
ENDBRANCH  14  16
ENDBRANCH  12  14
ENDBRANCH   9  11
BRANCH  10  23
ATOM     23  C   UNL     1     -10.197  11.046  63.720  0.00  0.00    +0.401 C 
ATOM     24  OXT UNL     1      -9.437  11.756  62.787  0.00  0.00    -0.239 OA
ATOM     25  O   UNL     1      -9.814   9.889  64.030  0.00  0.00    -0.239 OA
ENDBRANCH  10  23
TORSDOF 4
ENDMDL
MODEL 7
REMARK VINA RESULT:      -6.0      2.427      6.870
REMARK  Name = 
REMARK  4 active torsions:
REMARK  status: ('A' for Active; 'I' for Inactive)
REMARK    1  A    between atoms: CA_3  and  C_4
REMARK    2  A    between atoms: CA_10  and  N_11
REMARK    3  A    between atoms: C_12  and  CA_14
REMARK    4  A    between atoms: CA_14  and  C_16
REMARK                            x       y       z     vdW  Elec       q    Type
REMARK                         _______ _______ _______ _____ _____    ______ ____
ROOT
ATOM      1  C   UNL     1      -8.319  17.533  68.870  0.00  0.00    +0.029 C 
ATOM      2  C   UNL     1      -9.090  16.745  68.629  0.00  0.00    -0.013 C 
ATOM      3  C   UNL     1      -8.983  15.485  69.417  0.00  0.00    +0.083 C 
ATOM      4  S   UNL     1     -10.515  14.570  69.531  0.00  0.00    -0.114 S 
ATOM      5  C   UNL     1     -11.647  15.440  68.266  0.00  0.00    +0.157 C 
ATOM      6  N   UNL     1     -10.633  15.647  67.152  0.00  0.00    -0.242 N 
ATOM      7  C   UNL     1     -11.497  15.145  66.113  0.00  0.00    +0.253 C 
ATOM      8  O   UNL     1     -11.495  14.982  64.894  0.00  0.00    -0.273 OA
ATOM      9  CA  UNL     1     -12.104  14.160  67.252  0.00  0.00    +0.200 C 
ATOM     10  CA  UNL     1      -9.654  16.644  67.425  0.00  0.00    +0.128 C 
ENDROOT
BRANCH   9  11
ATOM     11  N   UNL     1     -10.731  13.354  67.344  0.00  0.00    -0.194 NA
ATOM     12  C   UNL     1     -11.085  12.002  67.050  0.00  0.00    +0.264 C 
ATOM     13  O   UNL     1     -12.087  11.445  67.589  0.00  0.00    -0.271 OA
BRANCH  12  14
ATOM     14  CA  UNL     1      -9.803  10.993  66.952  0.00  0.00    +0.191 C 
ATOM     15  N   UNL     1      -8.861  12.148  66.370  0.00  0.00    -0.118 NA
BRANCH  14  16
ATOM     16  C   UNL     1     -10.272  10.496  65.464  0.00  0.00    +0.004 A 
ATOM     17  C   UNL     1      -9.422   9.497  64.993  0.00  0.00    +0.001 A 
ATOM     18  C   UNL     1      -8.903   9.537  63.703  0.00  0.00    +0.042 A 
ATOM     19  C   UNL     1      -9.176  10.616  62.873  0.00  0.00    +0.196 A 
ATOM     20  O   UNL     1      -8.235  11.053  61.939  0.00  0.00    -0.287 OA
ATOM     21  C   UNL     1     -10.262  11.411  63.220  0.00  0.00    +0.042 A 
ATOM     22  C   UNL     1     -10.559  11.488  64.575  0.00  0.00    +0.001 A 
ENDBRANCH  14  16
ENDBRANCH  12  14
ENDBRANCH   9  11
BRANCH  10  23
ATOM     23  C   UNL     1      -9.075  17.450  66.338  0.00  0.00    +0.401 C 
ATOM     24  OXT UNL     1      -7.984  16.919  65.646  0.00  0.00    -0.239 OA
ATOM     25  O   UNL     1      -9.864  18.199  65.706  0.00  0.00    -0.239 OA
ENDBRANCH  10  23
TORSDOF 4
ENDMDL
MODEL 8
REMARK VINA RESULT:      -5.9      2.139      2.642
REMARK  Name = 
REMARK  4 active torsions:
REMARK  status: ('A' for Active; 'I' for Inactive)
REMARK    1  A    between atoms: CA_3  and  C_4
REMARK    2  A    between atoms: CA_10  and  N_11
REMARK    3  A    between atoms: C_12  and  CA_14
REMARK    4  A    between atoms: CA_14  and  C_16
REMARK                            x       y       z     vdW  Elec       q    Type
REMARK                         _______ _______ _______ _____ _____    ______ ____
ROOT
ATOM      1  C   UNL     1      -9.789  11.624  65.065  0.00  0.00    +0.029 C 
ATOM      2  C   UNL     1     -10.153  12.546  65.604  0.00  0.00    -0.013 C 
ATOM      3  C   UNL     1     -10.586  13.670  64.725  0.00  0.00    +0.083 C 
ATOM      4  S   UNL     1     -11.741  14.792  65.502  0.00  0.00    -0.114 S 
ATOM      5  C   UNL     1     -11.703  14.270  67.335  0.00  0.00    +0.157 C 
ATOM      6  N   UNL     1     -10.207  14.042  67.482  0.00  0.00    -0.242 N 
ATOM      7  C   UNL     1     -10.094  14.796  68.705  0.00  0.00    +0.253 C 
ATOM      8  O   UNL     1      -9.241  15.102  69.538  0.00  0.00    -0.273 OA
ATOM      9  CA  UNL     1     -11.291  15.719  68.115  0.00  0.00    +0.200 C 
ATOM     10  CA  UNL     1      -9.721  12.879  66.821  0.00  0.00    +0.128 C 
ENDROOT
BRANCH   9  11
ATOM     11  N   UNL     1     -10.343  16.283  66.963  0.00  0.00    -0.194 NA
ATOM     12  C   UNL     1     -10.063  17.628  67.352  0.00  0.00    +0.264 C 
ATOM     13  O   UNL     1     -10.978  18.411  67.744  0.00  0.00    -0.271 OA
BRANCH  12  14
ATOM     14  CA  UNL     1      -8.986  18.382  66.381  0.00  0.00    +0.191 C 
ATOM     15  N   UNL     1      -7.928  17.190  66.527  0.00  0.00    -0.118 NA
BRANCH  14  16
ATOM     16  C   UNL     1      -8.374  19.208  67.656  0.00  0.00    +0.004 A 
ATOM     17  C   UNL     1      -7.834  20.423  67.235  0.00  0.00    +0.001 A 
ATOM     18  C   UNL     1      -6.578  20.842  67.660  0.00  0.00    +0.042 A 
ATOM     19  C   UNL     1      -5.803  20.021  68.469  0.00  0.00    +0.196 A 
ATOM     20  O   UNL     1      -4.410  20.029  68.369  0.00  0.00    -0.287 OA
ATOM     21  C   UNL     1      -6.466  18.998  69.135  0.00  0.00    +0.042 A 
ATOM     22  C   UNL     1      -7.594  18.484  68.507  0.00  0.00    +0.001 A 
ENDBRANCH  14  16
ENDBRANCH  12  14
ENDBRANCH   9  11
BRANCH  10  23
ATOM     23  C   UNL     1      -8.574  12.130  67.358  0.00  0.00    +0.401 C 
ATOM     24  OXT UNL     1      -7.305  12.699  67.224  0.00  0.00    -0.239 OA
ATOM     25  O   UNL     1      -8.790  11.409  68.365  0.00  0.00    -0.239 OA
ENDBRANCH  10  23
TORSDOF 4
ENDMDL
MODEL 9
REMARK VINA RESULT:      -5.6      1.834      2.373
REMARK  Name = 
REMARK  4 active torsions:
REMARK  status: ('A' for Active; 'I' for Inactive)
REMARK    1  A    between atoms: CA_3  and  C_4
REMARK    2  A    between atoms: CA_10  and  N_11
REMARK    3  A    between atoms: C_12  and  CA_14
REMARK    4  A    between atoms: CA_14  and  C_16
REMARK                            x       y       z     vdW  Elec       q    Type
REMARK                         _______ _______ _______ _____ _____    ______ ____
ROOT
ATOM      1  C   UNL     1      -9.812  10.170  63.353  0.00  0.00    +0.029 C 
ATOM      2  C   UNL     1     -10.189  10.932  64.095  0.00  0.00    -0.013 C 
ATOM      3  C   UNL     1     -10.782  12.163  63.500  0.00  0.00    +0.083 C 
ATOM      4  S   UNL     1     -11.936  13.003  64.578  0.00  0.00    -0.114 S 
ATOM      5  C   UNL     1     -11.687  12.135  66.258  0.00  0.00    +0.157 C 
ATOM      6  N   UNL     1     -10.172  12.018  66.237  0.00  0.00    -0.242 N 
ATOM      7  C   UNL     1      -9.997  12.523  67.576  0.00  0.00    +0.253 C 
ATOM      8  O   UNL     1      -9.093  12.734  68.384  0.00  0.00    -0.273 OA
ATOM      9  CA  UNL     1     -11.308  13.433  67.282  0.00  0.00    +0.200 C 
ATOM     10  CA  UNL     1      -9.668  11.055  65.316  0.00  0.00    +0.128 C 
ENDROOT
BRANCH   9  11
ATOM     11  N   UNL     1     -10.516  14.295  66.198  0.00  0.00    -0.194 NA
ATOM     12  C   UNL     1     -10.328  15.568  66.817  0.00  0.00    +0.264 C 
ATOM     13  O   UNL     1     -11.275  16.166  67.410  0.00  0.00    -0.271 OA
BRANCH  12  14
ATOM     14  CA  UNL     1      -9.411  16.597  65.938  0.00  0.00    +0.191 C 
ATOM     15  N   UNL     1      -8.053  15.963  66.501  0.00  0.00    -0.118 NA
BRANCH  14  16
ATOM     16  C   UNL     1      -9.487  17.723  67.125  0.00  0.00    +0.004 A 
ATOM     17  C   UNL     1     -10.020  18.913  66.634  0.00  0.00    +0.001 A 
ATOM     18  C   UNL     1      -9.424  20.140  66.905  0.00  0.00    +0.042 A 
ATOM     19  C   UNL     1      -8.237  20.196  67.626  0.00  0.00    +0.196 A 
ATOM     20  O   UNL     1      -7.290  21.187  67.363  0.00  0.00    -0.287 OA
ATOM     21  C   UNL     1      -7.908  19.073  68.373  0.00  0.00    +0.042 A 
ATOM     22  C   UNL     1      -8.364  17.854  67.886  0.00  0.00    +0.001 A 
ENDBRANCH  14  16
ENDBRANCH  12  14
ENDBRANCH   9  11
BRANCH  10  23
ATOM     23  C   UNL     1      -8.425  10.321  65.598  0.00  0.00    +0.401 C 
ATOM     24  OXT UNL     1      -7.227  11.039  65.579  0.00  0.00    -0.239 OA
ATOM     25  O   UNL     1      -8.511   9.342  66.383  0.00  0.00    -0.239 OA
ENDBRANCH  10  23
TORSDOF 4
ENDMDL
