MODEL 1
REMARK VINA RESULT:      -7.8      0.000      0.000
REMARK  Name = 
REMARK  8 active torsions:
REMARK  status: ('A' for Active; 'I' for Inactive)
REMARK    1  A    between atoms: C_2  and  C_3
REMARK    2  A    between atoms: C_3  and  O_5
REMARK    3  A    between atoms: O_5  and  C_6
REMARK    4  A    between atoms: C_6  and  C_7
REMARK    5  A    between atoms: C_7  and  C_9
REMARK    6  A    between atoms: C_9  and  O_10
REMARK    7  A    between atoms: O_10  and  C_11
REMARK    8  A    between atoms: C_11  and  C_13
REMARK                            x       y       z     vdW  Elec       q    Type
REMARK                         _______ _______ _______ _____ _____    ______ ____
ROOT
ATOM      1  C   UNL     1     -10.537  13.819  67.744  0.00  0.00    +0.190 C 
ATOM      2  C   UNL     1     -10.093  15.048  67.089  0.00  0.00    +0.043 C 
ATOM      3  C   UNL     1      -8.656  15.096  67.818  0.00  0.00    +0.005 C 
ATOM      4  C   UNL     1      -8.114  16.205  66.664  0.00  0.00    +0.017 C 
ATOM      5  C   UNL     1      -8.678  17.451  67.497  0.00  0.00    +0.102 C 
ATOM      6  C   UNL     1     -10.246  17.633  67.052  0.00  0.00    +0.166 C 
ATOM      7  O   UNL     1     -10.021  17.179  65.621  0.00  0.00    -0.222 OA
ATOM      8 CL   UNL     1      -8.576  17.233  69.196  0.00  0.00    -0.113 Cl
ATOM      9  C   UNL     1      -7.964  18.690  67.075  0.00  0.00    +0.049 C 
ATOM     10  C   UNL     1      -6.726  18.454  66.286  0.00  0.00    -0.037 C 
ATOM     11  C   UNL     1      -6.059  19.570  65.973  0.00  0.00    +0.034 C 
ATOM     12  C   UNL     1      -6.246  20.788  66.780  0.00  0.00    +0.195 C 
ATOM     13  C   UNL     1      -6.683  20.498  68.153  0.00  0.00    +0.038 C 
ATOM     14  O   UNL     1      -5.576  21.843  66.561  0.00  0.00    -0.287 OA
ATOM     15  C   UNL     1      -5.936  17.185  66.377  0.00  0.00    +0.022 C 
ATOM     16  C   UNL     1      -8.854  19.652  66.290  0.00  0.00    +0.010 C 
ATOM     17  C   UNL     1      -7.530  19.474  68.278  0.00  0.00    -0.018 C 
ATOM     18  C   UNL     1      -6.656  16.303  67.366  0.00  0.00    +0.006 C 
ATOM     19  C   UNL     1      -8.232  13.786  66.976  0.00  0.00    +0.004 C 
ATOM     20  C   UNL     1      -9.926  14.732  65.655  0.00  0.00    +0.004 C 
ATOM     21  C   UNL     1     -10.778  16.176  67.571  0.00  0.00    +0.038 C 
ATOM     22  C   UNL     1      -9.227  12.876  67.903  0.00  0.00    +0.044 C 
ATOM     23  C   UNL     1      -9.590  11.892  66.654  0.00  0.00    +0.004 C 
ENDROOT
BRANCH   1  24
ATOM     24  C   UNL     1     -11.646  13.084  67.187  0.00  0.00    +0.230 C 
ATOM     25  O   UNL     1     -11.707  11.861  67.307  0.00  0.00    -0.288 OA
BRANCH  24  26
ATOM     26  C   UNL     1     -12.536  13.675  66.142  0.00  0.00    +0.276 C 
BRANCH  26  27
ATOM     27  O   UNL     1     -13.014  12.724  65.228  0.00  0.00    -0.440 OA
BRANCH  27  28
ATOM     28  C   UNL     1     -12.484  12.638  63.958  0.00  0.00    +0.317 C 
ATOM     29  O   UNL     1     -12.480  13.697  63.266  0.00  0.00    -0.250 OA
BRANCH  28  31
ATOM     30  C   UNL     1     -10.336  12.019  63.257  0.00  0.00    +0.012 C 
ATOM     31  C   UNL     1     -11.536  11.555  63.550  0.00  0.00    +0.110 C 
ENDBRANCH  28  31
ENDBRANCH  27  28
ENDBRANCH  26  27
ENDBRANCH  24  26
ENDBRANCH   1  24
BRANCH   1  32
ATOM     32  O   UNL     1     -10.811  14.127  69.111  0.00  0.00    -0.448 OA
BRANCH  32  33
ATOM     33  C   UNL     1     -11.869  13.483  69.733  0.00  0.00    +0.317 C 
ATOM     34  O   UNL     1     -11.798  12.269  70.068  0.00  0.00    -0.250 OA
BRANCH  33  35
ATOM     35  C   UNL     1     -13.013  14.256  70.286  0.00  0.00    +0.110 C 
ATOM     36  C   UNL     1     -12.580  15.630  70.765  0.00  0.00    +0.012 C 
ENDBRANCH  33  35
ENDBRANCH  32  33
ENDBRANCH   1  32
TORSDOF 8
ENDMDL
MODEL 2
REMARK VINA RESULT:      -7.2      1.926      4.298
REMARK  Name = 
REMARK  8 active torsions:
REMARK  status: ('A' for Active; 'I' for Inactive)
REMARK    1  A    between atoms: C_2  and  C_3
REMARK    2  A    between atoms: C_3  and  O_5
REMARK    3  A    between atoms: O_5  and  C_6
REMARK    4  A    between atoms: C_6  and  C_7
REMARK    5  A    between atoms: C_7  and  C_9
REMARK    6  A    between atoms: C_9  and  O_10
REMARK    7  A    between atoms: O_10  and  C_11
REMARK    8  A    between atoms: C_11  and  C_13
REMARK                            x       y       z     vdW  Elec       q    Type
REMARK                         _______ _______ _______ _____ _____    ______ ____
ROOT
ATOM      1  C   UNL     1     -10.524  13.835  67.792  0.00  0.00    +0.190 C 
ATOM      2  C   UNL     1      -9.461  14.796  68.079  0.00  0.00    +0.043 C 
ATOM      3  C   UNL     1     -10.297  16.090  67.603  0.00  0.00    +0.005 C 
ATOM      4  C   UNL     1      -9.198  17.090  68.410  0.00  0.00    +0.017 C 
ATOM      5  C   UNL     1      -8.218  17.147  67.145  0.00  0.00    +0.102 C 
ATOM      6  C   UNL     1      -7.235  15.839  67.261  0.00  0.00    +0.166 C 
ATOM      7  O   UNL     1      -7.200  15.846  68.779  0.00  0.00    -0.222 OA
ATOM      8 CL   UNL     1      -9.046  17.123  65.643  0.00  0.00    -0.113 Cl
ATOM      9  C   UNL     1      -7.345  18.352  67.253  0.00  0.00    +0.049 C 
ATOM     10  C   UNL     1      -7.791  19.353  68.257  0.00  0.00    -0.037 C 
ATOM     11  C   UNL     1      -7.040  20.459  68.295  0.00  0.00    +0.034 C 
ATOM     12  C   UNL     1      -6.235  20.840  67.121  0.00  0.00    +0.195 C 
ATOM     13  C   UNL     1      -6.777  20.305  65.863  0.00  0.00    +0.038 C 
ATOM     14  O   UNL     1      -5.568  21.918  67.090  0.00  0.00    -0.287 OA
ATOM     15  C   UNL     1      -9.217  19.477  68.700  0.00  0.00    +0.022 C 
ATOM     16  C   UNL     1      -5.885  18.005  67.541  0.00  0.00    +0.010 C 
ATOM     17  C   UNL     1      -7.308  19.083  65.945  0.00  0.00    -0.018 C 
ATOM     18  C   UNL     1      -9.992  18.425  67.948  0.00  0.00    +0.006 C 
ATOM     19  C   UNL     1     -11.267  15.879  68.876  0.00  0.00    +0.004 C 
ATOM     20  C   UNL     1      -9.285  14.815  69.546  0.00  0.00    +0.004 C 
ATOM     21  C   UNL     1      -8.402  14.696  67.162  0.00  0.00    +0.038 C 
ATOM     22  C   UNL     1     -11.926  14.570  68.147  0.00  0.00    +0.044 C 
ATOM     23  C   UNL     1     -12.143  13.810  69.575  0.00  0.00    +0.004 C 
ENDROOT
BRANCH   1  24
ATOM     24  C   UNL     1     -10.460  12.518  68.377  0.00  0.00    +0.230 C 
ATOM     25  O   UNL     1      -9.399  11.897  68.400  0.00  0.00    -0.288 OA
BRANCH  24  26
ATOM     26  C   UNL     1     -11.690  11.704  68.617  0.00  0.00    +0.276 C 
BRANCH  26  27
ATOM     27  O   UNL     1     -11.408  10.406  69.069  0.00  0.00    -0.440 OA
BRANCH  27  28
ATOM     28  C   UNL     1     -11.631  10.052  70.382  0.00  0.00    +0.317 C 
ATOM     29  O   UNL     1     -10.628   9.664  71.049  0.00  0.00    -0.250 OA
BRANCH  28  31
ATOM     30  C   UNL     1     -13.290   9.603  71.974  0.00  0.00    +0.012 C 
ATOM     31  C   UNL     1     -12.819  10.525  71.157  0.00  0.00    +0.110 C 
ENDBRANCH  28  31
ENDBRANCH  27  28
ENDBRANCH  26  27
ENDBRANCH  24  26
ENDBRANCH   1  24
BRANCH   1  32
ATOM     32  O   UNL     1     -10.636  13.718  66.374  0.00  0.00    -0.448 OA
BRANCH  32  33
ATOM     33  C   UNL     1     -11.863  13.363  65.836  0.00  0.00    +0.317 C 
ATOM     34  O   UNL     1     -12.815  14.186  65.762  0.00  0.00    -0.250 OA
BRANCH  33  35
ATOM     35  C   UNL     1     -12.020  12.098  65.069  0.00  0.00    +0.110 C 
ATOM     36  C   UNL     1     -12.198  12.362  63.585  0.00  0.00    +0.012 C 
ENDBRANCH  33  35
ENDBRANCH  32  33
ENDBRANCH   1  32
TORSDOF 8
ENDMDL
MODEL 3
REMARK VINA RESULT:      -7.0      2.002      4.294
REMARK  Name = 
REMARK  8 active torsions:
REMARK  status: ('A' for Active; 'I' for Inactive)
REMARK    1  A    between atoms: C_2  and  C_3
REMARK    2  A    between atoms: C_3  and  O_5
REMARK    3  A    between atoms: O_5  and  C_6
REMARK    4  A    between atoms: C_6  and  C_7
REMARK    5  A    between atoms: C_7  and  C_9
REMARK    6  A    between atoms: C_9  and  O_10
REMARK    7  A    between atoms: O_10  and  C_11
REMARK    8  A    between atoms: C_11  and  C_13
REMARK                            x       y       z     vdW  Elec       q    Type
REMARK                         _______ _______ _______ _____ _____    ______ ____
ROOT
ATOM      1  C   UNL     1      -9.858  14.819  67.344  0.00  0.00    +0.190 C 
ATOM      2  C   UNL     1      -8.637  15.389  67.909  0.00  0.00    +0.043 C 
ATOM      3  C   UNL     1      -8.973  16.908  67.490  0.00  0.00    +0.005 C 
ATOM      4  C   UNL     1      -7.800  17.461  68.574  0.00  0.00    +0.017 C 
ATOM      5  C   UNL     1      -6.633  17.326  67.486  0.00  0.00    +0.102 C 
ATOM      6  C   UNL     1      -6.098  15.777  67.571  0.00  0.00    +0.166 C 
ATOM      7  O   UNL     1      -6.335  15.648  69.065  0.00  0.00    -0.222 OA
ATOM      8 CL   UNL     1      -7.151  17.676  65.888  0.00  0.00    -0.113 Cl
ATOM      9  C   UNL     1      -5.490  18.199  67.879  0.00  0.00    +0.049 C 
ATOM     10  C   UNL     1      -5.807  19.201  68.930  0.00  0.00    -0.037 C 
ATOM     11  C   UNL     1      -4.794  20.022  69.223  0.00  0.00    +0.034 C 
ATOM     12  C   UNL     1      -3.717  20.239  68.242  0.00  0.00    +0.195 C 
ATOM     13  C   UNL     1      -4.153  19.998  66.858  0.00  0.00    +0.038 C 
ATOM     14  O   UNL     1      -2.778  21.066  68.452  0.00  0.00    -0.287 OA
ATOM     15  C   UNL     1      -7.195  19.711  69.171  0.00  0.00    +0.022 C 
ATOM     16  C   UNL     1      -4.264  17.407  68.330  0.00  0.00    +0.010 C 
ATOM     17  C   UNL     1      -5.013  18.991  66.699  0.00  0.00    -0.018 C 
ATOM     18  C   UNL     1      -8.088  19.007  68.181  0.00  0.00    +0.006 C 
ATOM     19  C   UNL     1     -10.175  16.894  68.567  0.00  0.00    +0.004 C 
ATOM     20  C   UNL     1      -8.728  15.231  69.375  0.00  0.00    +0.004 C 
ATOM     21  C   UNL     1      -7.502  15.051  67.152  0.00  0.00    +0.038 C 
ATOM     22  C   UNL     1     -11.035  15.909  67.583  0.00  0.00    +0.044 C 
ATOM     23  C   UNL     1     -11.711  15.134  68.850  0.00  0.00    +0.004 C 
ENDROOT
BRANCH   1  24
ATOM     24  C   UNL     1     -10.276  13.500  67.753  0.00  0.00    +0.230 C 
ATOM     25  O   UNL     1      -9.493  12.552  67.694  0.00  0.00    -0.288 OA
BRANCH  24  26
ATOM     26  C   UNL     1     -11.719  13.138  67.887  0.00  0.00    +0.276 C 
BRANCH  26  27
ATOM     27  O   UNL     1     -11.938  11.752  67.887  0.00  0.00    -0.440 OA
BRANCH  27  28
ATOM     28  C   UNL     1     -11.905  11.033  69.063  0.00  0.00    +0.317 C 
ATOM     29  O   UNL     1     -11.235   9.959  69.059  0.00  0.00    -0.250 OA
BRANCH  28  31
ATOM     30  C   UNL     1     -12.741  10.793  71.239  0.00  0.00    +0.012 C 
ATOM     31  C   UNL     1     -12.195  11.647  70.395  0.00  0.00    +0.110 C 
ENDBRANCH  28  31
ENDBRANCH  27  28
ENDBRANCH  26  27
ENDBRANCH  24  26
ENDBRANCH   1  24
BRANCH   1  32
ATOM     32  O   UNL     1      -9.743  14.859  65.922  0.00  0.00    -0.448 OA
BRANCH  32  33
ATOM     33  C   UNL     1     -10.823  15.316  65.184  0.00  0.00    +0.317 C 
ATOM     34  O   UNL     1     -10.849  16.481  64.703  0.00  0.00    -0.250 OA
BRANCH  33  35
ATOM     35  C   UNL     1     -11.862  14.373  64.690  0.00  0.00    +0.110 C 
ATOM     36  C   UNL     1     -11.248  13.081  64.181  0.00  0.00    +0.012 C 
ENDBRANCH  33  35
ENDBRANCH  32  33
ENDBRANCH   1  32
TORSDOF 8
ENDMDL
MODEL 4
REMARK VINA RESULT:      -7.0      1.811      3.657
REMARK  Name = 
REMARK  8 active torsions:
REMARK  status: ('A' for Active; 'I' for Inactive)
REMARK    1  A    between atoms: C_2  and  C_3
REMARK    2  A    between atoms: C_3  and  O_5
REMARK    3  A    between atoms: O_5  and  C_6
REMARK    4  A    between atoms: C_6  and  C_7
REMARK    5  A    between atoms: C_7  and  C_9
REMARK    6  A    between atoms: C_9  and  O_10
REMARK    7  A    between atoms: O_10  and  C_11
REMARK    8  A    between atoms: C_11  and  C_13
REMARK                            x       y       z     vdW  Elec       q    Type
REMARK                         _______ _______ _______ _____ _____    ______ ____
ROOT
ATOM      1  C   UNL     1     -10.355  13.601  67.549  0.00  0.00    +0.190 C 
ATOM      2  C   UNL     1      -9.360  14.605  67.922  0.00  0.00    +0.043 C 
ATOM      3  C   UNL     1     -10.222  15.867  67.408  0.00  0.00    +0.005 C 
ATOM      4  C   UNL     1      -9.229  16.902  68.303  0.00  0.00    +0.017 C 
ATOM      5  C   UNL     1      -8.170  17.027  67.109  0.00  0.00    +0.102 C 
ATOM      6  C   UNL     1      -7.136  15.764  67.272  0.00  0.00    +0.166 C 
ATOM      7  O   UNL     1      -7.204  15.745  68.789  0.00  0.00    -0.222 OA
ATOM      8 CL   UNL     1      -8.893  16.991  65.553  0.00  0.00    -0.113 Cl
ATOM      9  C   UNL     1      -7.364  18.269  67.294  0.00  0.00    +0.049 C 
ATOM     10  C   UNL     1      -7.923  19.230  68.279  0.00  0.00    -0.037 C 
ATOM     11  C   UNL     1      -7.230  20.369  68.384  0.00  0.00    +0.034 C 
ATOM     12  C   UNL     1      -6.366  20.807  67.274  0.00  0.00    +0.195 C 
ATOM     13  C   UNL     1      -6.796  20.270  65.974  0.00  0.00    +0.038 C 
ATOM     14  O   UNL     1      -5.750  21.916  67.305  0.00  0.00    -0.287 OA
ATOM     15  C   UNL     1      -9.380  19.281  68.626  0.00  0.00    +0.022 C 
ATOM     16  C   UNL     1      -5.912  17.985  67.675  0.00  0.00    +0.010 C 
ATOM     17  C   UNL     1      -7.273  19.024  66.002  0.00  0.00    -0.018 C 
ATOM     18  C   UNL     1     -10.052  18.207  67.807  0.00  0.00    +0.006 C 
ATOM     19  C   UNL     1     -11.265  15.589  68.608  0.00  0.00    +0.004 C 
ATOM     20  C   UNL     1      -9.284  14.606  69.397  0.00  0.00    +0.004 C 
ATOM     21  C   UNL     1      -8.238  14.571  67.077  0.00  0.00    +0.038 C 
ATOM     22  C   UNL     1     -11.811  14.264  67.818  0.00  0.00    +0.044 C 
ATOM     23  C   UNL     1     -12.088  13.470  69.216  0.00  0.00    +0.004 C 
ENDROOT
BRANCH   1  24
ATOM     24  C   UNL     1     -10.269  12.278  68.117  0.00  0.00    +0.230 C 
ATOM     25  O   UNL     1      -9.245  11.913  68.694  0.00  0.00    -0.288 OA
BRANCH  24  26
ATOM     26  C   UNL     1     -11.209  11.188  67.718  0.00  0.00    +0.276 C 
BRANCH  26  27
ATOM     27  O   UNL     1     -10.642   9.909  67.828  0.00  0.00    -0.440 OA
BRANCH  27  28
ATOM     28  C   UNL     1     -10.258   9.208  66.705  0.00  0.00    +0.317 C 
ATOM     29  O   UNL     1     -10.543   7.976  66.673  0.00  0.00    -0.250 OA
BRANCH  28  31
ATOM     30  C   UNL     1      -8.731  10.308  65.310  0.00  0.00    +0.012 C 
ATOM     31  C   UNL     1      -9.973   9.873  65.395  0.00  0.00    +0.110 C 
ENDBRANCH  28  31
ENDBRANCH  27  28
ENDBRANCH  26  27
ENDBRANCH  24  26
ENDBRANCH   1  24
BRANCH   1  32
ATOM     32  O   UNL     1     -10.365  13.504  66.124  0.00  0.00    -0.448 OA
BRANCH  32  33
ATOM     33  C   UNL     1     -11.557  13.737  65.456  0.00  0.00    +0.317 C 
ATOM     34  O   UNL     1     -11.819  14.858  64.942  0.00  0.00    -0.250 OA
BRANCH  33  35
ATOM     35  C   UNL     1     -12.445  12.608  65.069  0.00  0.00    +0.110 C 
ATOM     36  C   UNL     1     -12.301  12.260  63.599  0.00  0.00    +0.012 C 
ENDBRANCH  33  35
ENDBRANCH  32  33
ENDBRANCH   1  32
TORSDOF 8
ENDMDL
MODEL 5
REMARK VINA RESULT:      -6.8      3.923      8.466
REMARK  Name = 
REMARK  8 active torsions:
REMARK  status: ('A' for Active; 'I' for Inactive)
REMARK    1  A    between atoms: C_2  and  C_3
REMARK    2  A    between atoms: C_3  and  O_5
REMARK    3  A    between atoms: O_5  and  C_6
REMARK    4  A    between atoms: C_6  and  C_7
REMARK    5  A    between atoms: C_7  and  C_9
REMARK    6  A    between atoms: C_9  and  O_10
REMARK    7  A    between atoms: O_10  and  C_11
REMARK    8  A    between atoms: C_11  and  C_13
REMARK                            x       y       z     vdW  Elec       q    Type
REMARK                         _______ _______ _______ _____ _____    ______ ____
ROOT
ATOM      1  C   UNL     1     -10.464  12.378  66.836  0.00  0.00    +0.190 C 
ATOM      2  C   UNL     1     -10.732  11.823  68.161  0.00  0.00    +0.043 C 
ATOM      3  C   UNL     1      -9.630  10.652  68.059  0.00  0.00    +0.005 C 
ATOM      4  C   UNL     1      -9.713  10.437  69.734  0.00  0.00    +0.017 C 
ATOM      5  C   UNL     1     -10.939   9.415  69.611  0.00  0.00    +0.102 C 
ATOM      6  C   UNL     1     -12.301  10.329  69.581  0.00  0.00    +0.166 C 
ATOM      7  O   UNL     1     -11.750  11.401  70.504  0.00  0.00    -0.222 OA
ATOM      8 CL   UNL     1     -10.866   8.432  68.206  0.00  0.00    -0.113 Cl
ATOM      9  C   UNL     1     -11.009   8.579  70.844  0.00  0.00    +0.049 C 
ATOM     10  C   UNL     1      -9.794   8.631  71.698  0.00  0.00    -0.037 C 
ATOM     11  C   UNL     1      -9.842   7.824  72.764  0.00  0.00    +0.034 C 
ATOM     12  C   UNL     1     -10.740   6.657  72.760  0.00  0.00    +0.195 C 
ATOM     13  C   UNL     1     -11.046   6.180  71.403  0.00  0.00    +0.038 C 
ATOM     14  O   UNL     1     -10.760   5.826  73.719  0.00  0.00    -0.287 OA
ATOM     15  C   UNL     1      -8.439   8.978  71.161  0.00  0.00    +0.022 C 
ATOM     16  C   UNL     1     -12.220   8.904  71.716  0.00  0.00    +0.010 C 
ATOM     17  C   UNL     1     -11.183   7.134  70.481  0.00  0.00    -0.018 C 
ATOM     18  C   UNL     1      -8.618   9.242  69.688  0.00  0.00    +0.006 C 
ATOM     19  C   UNL     1      -8.482  11.785  68.111  0.00  0.00    +0.004 C 
ATOM     20  C   UNL     1     -10.307  12.840  69.145  0.00  0.00    +0.004 C 
ATOM     21  C   UNL     1     -11.966  11.153  68.208  0.00  0.00    +0.038 C 
ATOM     22  C   UNL     1      -8.868  12.235  66.585  0.00  0.00    +0.044 C 
ATOM     23  C   UNL     1      -8.519  13.799  66.895  0.00  0.00    +0.004 C 
ENDROOT
BRANCH   1  24
ATOM     24  C   UNL     1     -10.925  13.709  66.522  0.00  0.00    +0.230 C 
ATOM     25  O   UNL     1     -12.094  14.029  66.735  0.00  0.00    -0.288 OA
BRANCH  24  26
ATOM     26  C   UNL     1     -10.168  14.606  65.598  0.00  0.00    +0.276 C 
BRANCH  26  27
ATOM     27  O   UNL     1     -10.774  15.861  65.434  0.00  0.00    -0.440 OA
BRANCH  27  28
ATOM     28  C   UNL     1     -10.241  16.985  66.027  0.00  0.00    +0.317 C 
ATOM     29  O   UNL     1     -10.506  18.098  65.487  0.00  0.00    -0.250 OA
BRANCH  28  31
ATOM     30  C   UNL     1     -10.803  16.922  68.301  0.00  0.00    +0.012 C 
ATOM     31  C   UNL     1      -9.795  17.012  67.455  0.00  0.00    +0.110 C 
ENDBRANCH  28  31
ENDBRANCH  27  28
ENDBRANCH  26  27
ENDBRANCH  24  26
ENDBRANCH   1  24
BRANCH   1  32
ATOM     32  O   UNL     1     -10.969  11.460  65.867  0.00  0.00    -0.448 OA
BRANCH  32  33
ATOM     33  C   UNL     1     -10.276  11.309  64.676  0.00  0.00    +0.317 C 
ATOM     34  O   UNL     1      -9.338  10.475  64.559  0.00  0.00    -0.250 OA
BRANCH  33  35
ATOM     35  C   UNL     1     -10.787  11.912  63.416  0.00  0.00    +0.110 C 
ATOM     36  C   UNL     1     -12.282  12.168  63.484  0.00  0.00    +0.012 C 
ENDBRANCH  33  35
ENDBRANCH  32  33
ENDBRANCH   1  32
TORSDOF 8
ENDMDL
MODEL 6
REMARK VINA RESULT:      -6.8      4.011      7.326
REMARK  Name = 
REMARK  8 active torsions:
REMARK  status: ('A' for Active; 'I' for Inactive)
REMARK    1  A    between atoms: C_2  and  C_3
REMARK    2  A    between atoms: C_3  and  O_5
REMARK    3  A    between atoms: O_5  and  C_6
REMARK    4  A    between atoms: C_6  and  C_7
REMARK    5  A    between atoms: C_7  and  C_9
REMARK    6  A    between atoms: C_9  and  O_10
REMARK    7  A    between atoms: O_10  and  C_11
REMARK    8  A    between atoms: C_11  and  C_13
REMARK                            x       y       z     vdW  Elec       q    Type
REMARK                         _______ _______ _______ _____ _____    ______ ____
ROOT
ATOM      1  C   UNL     1      -8.672   8.484  68.354  0.00  0.00    +0.190 C 
ATOM      2  C   UNL     1      -9.703   9.429  67.930  0.00  0.00    +0.043 C 
ATOM      3  C   UNL     1      -8.938   9.892  66.588  0.00  0.00    +0.005 C 
ATOM      4  C   UNL     1     -10.378  10.556  66.003  0.00  0.00    +0.017 C 
ATOM      5  C   UNL     1     -10.113  11.952  66.741  0.00  0.00    +0.102 C 
ATOM      6  C   UNL     1     -10.711  11.793  68.261  0.00  0.00    +0.166 C 
ATOM      7  O   UNL     1     -11.849  10.875  67.849  0.00  0.00    -0.222 OA
ATOM      8 CL   UNL     1      -8.453  12.380  66.810  0.00  0.00    -0.113 Cl
ATOM      9  C   UNL     1     -10.912  13.020  66.075  0.00  0.00    +0.049 C 
ATOM     10  C   UNL     1     -11.461  12.646  64.745  0.00  0.00    -0.037 C 
ATOM     11  C   UNL     1     -12.116  13.636  64.128  0.00  0.00    +0.034 C 
ATOM     12  C   UNL     1     -11.837  15.037  64.488  0.00  0.00    +0.195 C 
ATOM     13  C   UNL     1     -10.491  15.222  65.051  0.00  0.00    +0.038 C 
ATOM     14  O   UNL     1     -12.382  16.005  63.875  0.00  0.00    -0.287 OA
ATOM     15  C   UNL     1     -10.844  11.589  63.882  0.00  0.00    +0.022 C 
ATOM     16  C   UNL     1     -12.063  13.531  66.940  0.00  0.00    +0.010 C 
ATOM     17  C   UNL     1     -10.059  14.230  65.831  0.00  0.00    -0.018 C 
ATOM     18  C   UNL     1      -9.656  11.056  64.641  0.00  0.00    +0.006 C 
ATOM     19  C   UNL     1      -9.197   8.419  65.983  0.00  0.00    +0.004 C 
ATOM     20  C   UNL     1     -10.899   8.633  67.586  0.00  0.00    +0.004 C 
ATOM     21  C   UNL     1      -9.729  10.576  68.741  0.00  0.00    +0.038 C 
ATOM     22  C   UNL     1      -8.075   7.808  67.006  0.00  0.00    +0.044 C 
ATOM     23  C   UNL     1      -8.892   6.404  67.160  0.00  0.00    +0.004 C 
ENDROOT
BRANCH   1  24
ATOM     24  C   UNL     1      -8.997   7.483  69.341  0.00  0.00    +0.230 C 
ATOM     25  O   UNL     1      -9.123   6.303  69.015  0.00  0.00    -0.288 OA
BRANCH  24  26
ATOM     26  C   UNL     1      -9.566   7.849  70.674  0.00  0.00    +0.276 C 
BRANCH  26  27
ATOM     27  O   UNL     1     -10.834   7.293  70.899  0.00  0.00    -0.440 OA
BRANCH  27  28
ATOM     28  C   UNL     1     -11.932   8.100  71.105  0.00  0.00    +0.317 C 
ATOM     29  O   UNL     1     -13.002   7.531  71.467  0.00  0.00    -0.250 OA
BRANCH  28  31
ATOM     30  C   UNL     1     -12.988  10.175  71.372  0.00  0.00    +0.012 C 
ATOM     31  C   UNL     1     -11.817   9.567  71.377  0.00  0.00    +0.110 C 
ENDBRANCH  28  31
ENDBRANCH  27  28
ENDBRANCH  26  27
ENDBRANCH  24  26
ENDBRANCH   1  24
BRANCH   1  32
ATOM     32  O   UNL     1      -7.544   9.237  68.797  0.00  0.00    -0.448 OA
BRANCH  32  33
ATOM     33  C   UNL     1      -6.288   8.655  68.716  0.00  0.00    +0.317 C 
ATOM     34  O   UNL     1      -5.440   9.029  67.862  0.00  0.00    -0.250 OA
BRANCH  33  35
ATOM     35  C   UNL     1      -5.787   7.772  69.803  0.00  0.00    +0.110 C 
ATOM     36  C   UNL     1      -5.411   6.398  69.280  0.00  0.00    +0.012 C 
ENDBRANCH  33  35
ENDBRANCH  32  33
ENDBRANCH   1  32
TORSDOF 8
ENDMDL
MODEL 7
REMARK VINA RESULT:      -6.7      2.211      3.323
REMARK  Name = 
REMARK  8 active torsions:
REMARK  status: ('A' for Active; 'I' for Inactive)
REMARK    1  A    between atoms: C_2  and  C_3
REMARK    2  A    between atoms: C_3  and  O_5
REMARK    3  A    between atoms: O_5  and  C_6
REMARK    4  A    between atoms: C_6  and  C_7
REMARK    5  A    between atoms: C_7  and  C_9
REMARK    6  A    between atoms: C_9  and  O_10
REMARK    7  A    between atoms: O_10  and  C_11
REMARK    8  A    between atoms: C_11  and  C_13
REMARK                            x       y       z     vdW  Elec       q    Type
REMARK                         _______ _______ _______ _____ _____    ______ ____
ROOT
ATOM      1  C   UNL     1      -9.409  16.727  67.316  0.00  0.00    +0.190 C 
ATOM      2  C   UNL     1      -8.210  17.554  67.192  0.00  0.00    +0.043 C 
ATOM      3  C   UNL     1      -7.608  17.162  68.635  0.00  0.00    +0.005 C 
ATOM      4  C   UNL     1      -6.099  17.758  68.160  0.00  0.00    +0.017 C 
ATOM      5  C   UNL     1      -6.466  19.247  68.619  0.00  0.00    +0.102 C 
ATOM      6  C   UNL     1      -7.231  19.947  67.348  0.00  0.00    +0.166 C 
ATOM      7  O   UNL     1      -6.428  19.203  66.296  0.00  0.00    -0.222 OA
ATOM      8 CL   UNL     1      -7.473  19.301  70.007  0.00  0.00    -0.113 Cl
ATOM      9  C   UNL     1      -5.209  20.017  68.842  0.00  0.00    +0.049 C 
ATOM     10  C   UNL     1      -3.980  19.187  68.928  0.00  0.00    -0.037 C 
ATOM     11  C   UNL     1      -2.870  19.883  69.197  0.00  0.00    +0.034 C 
ATOM     12  C   UNL     1      -2.969  21.196  69.857  0.00  0.00    +0.195 C 
ATOM     13  C   UNL     1      -4.195  21.339  70.657  0.00  0.00    +0.038 C 
ATOM     14  O   UNL     1      -1.938  21.853  70.196  0.00  0.00    -0.287 OA
ATOM     15  C   UNL     1      -4.002  17.746  69.337  0.00  0.00    +0.022 C 
ATOM     16  C   UNL     1      -4.980  21.101  67.789  0.00  0.00    +0.010 C 
ATOM     17  C   UNL     1      -5.282  20.764  70.141  0.00  0.00    -0.018 C 
ATOM     18  C   UNL     1      -5.445  17.397  69.599  0.00  0.00    +0.006 C 
ATOM     19  C   UNL     1      -7.360  15.668  68.079  0.00  0.00    +0.004 C 
ATOM     20  C   UNL     1      -7.389  16.958  66.118  0.00  0.00    +0.004 C 
ATOM     21  C   UNL     1      -8.506  18.924  67.286  0.00  0.00    +0.038 C 
ATOM     22  C   UNL     1      -8.972  15.390  68.124  0.00  0.00    +0.044 C 
ATOM     23  C   UNL     1      -8.904  14.427  66.809  0.00  0.00    +0.004 C 
ENDROOT
BRANCH   1  24
ATOM     24  C   UNL     1     -10.165  16.399  66.132  0.00  0.00    +0.230 C 
ATOM     25  O   UNL     1     -10.513  17.283  65.350  0.00  0.00    -0.288 OA
BRANCH  24  26
ATOM     26  C   UNL     1     -10.882  15.095  65.993  0.00  0.00    +0.276 C 
BRANCH  26  27
ATOM     27  O   UNL     1     -11.540  14.961  64.761  0.00  0.00    -0.440 OA
BRANCH  27  28
ATOM     28  C   UNL     1     -11.925  13.721  64.298  0.00  0.00    +0.317 C 
ATOM     29  O   UNL     1     -12.678  13.698  63.282  0.00  0.00    -0.250 OA
BRANCH  28  31
ATOM     30  C   UNL     1     -10.524  11.994  63.560  0.00  0.00    +0.012 C 
ATOM     31  C   UNL     1     -11.166  12.471  64.610  0.00  0.00    +0.110 C 
ENDBRANCH  28  31
ENDBRANCH  27  28
ENDBRANCH  26  27
ENDBRANCH  24  26
ENDBRANCH   1  24
BRANCH   1  32
ATOM     32  O   UNL     1     -10.270  17.347  68.271  0.00  0.00    -0.448 OA
BRANCH  32  33
ATOM     33  C   UNL     1     -11.123  16.543  69.011  0.00  0.00    +0.317 C 
ATOM     34  O   UNL     1     -12.245  16.182  68.563  0.00  0.00    -0.250 OA
BRANCH  33  35
ATOM     35  C   UNL     1     -10.642  15.842  70.231  0.00  0.00    +0.110 C 
ATOM     36  C   UNL     1     -11.668  15.896  71.349  0.00  0.00    +0.012 C 
ENDBRANCH  33  35
ENDBRANCH  32  33
ENDBRANCH   1  32
TORSDOF 8
ENDMDL
MODEL 8
REMARK VINA RESULT:      -6.7      2.090      7.325
REMARK  Name = 
REMARK  8 active torsions:
REMARK  status: ('A' for Active; 'I' for Inactive)
REMARK    1  A    between atoms: C_2  and  C_3
REMARK    2  A    between atoms: C_3  and  O_5
REMARK    3  A    between atoms: O_5  and  C_6
REMARK    4  A    between atoms: C_6  and  C_7
REMARK    5  A    between atoms: C_7  and  C_9
REMARK    6  A    between atoms: C_9  and  O_10
REMARK    7  A    between atoms: O_10  and  C_11
REMARK    8  A    between atoms: C_11  and  C_13
REMARK                            x       y       z     vdW  Elec       q    Type
REMARK                         _______ _______ _______ _____ _____    ______ ____
ROOT
ATOM      1  C   UNL     1      -8.401  18.526  67.290  0.00  0.00    +0.190 C 
ATOM      2  C   UNL     1      -9.098  17.286  66.957  0.00  0.00    +0.043 C 
ATOM      3  C   UNL     1      -9.165  16.740  68.473  0.00  0.00    +0.005 C 
ATOM      4  C   UNL     1     -10.352  15.628  68.014  0.00  0.00    +0.017 C 
ATOM      5  C   UNL     1      -9.261  14.541  67.577  0.00  0.00    +0.102 C 
ATOM      6  C   UNL     1      -8.865  14.881  66.022  0.00  0.00    +0.166 C 
ATOM      7  O   UNL     1     -10.252  15.374  65.647  0.00  0.00    -0.222 OA
ATOM      8 CL   UNL     1      -7.851  14.563  68.555  0.00  0.00    -0.113 Cl
ATOM      9  C   UNL     1      -9.887  13.188  67.575  0.00  0.00    +0.049 C 
ATOM     10  C   UNL     1     -11.196  13.109  68.275  0.00  0.00    -0.037 C 
ATOM     11  C   UNL     1     -11.714  11.877  68.326  0.00  0.00    +0.034 C 
ATOM     12  C   UNL     1     -10.832  10.704  68.193  0.00  0.00    +0.195 C 
ATOM     13  C   UNL     1      -9.446  10.988  68.594  0.00  0.00    +0.038 C 
ATOM     14  O   UNL     1     -11.273   9.521  68.311  0.00  0.00    -0.287 OA
ATOM     15  C   UNL     1     -11.597  14.067  69.355  0.00  0.00    +0.022 C 
ATOM     16  C   UNL     1     -10.062  12.614  66.170  0.00  0.00    +0.010 C 
ATOM     17  C   UNL     1      -8.998  12.204  68.276  0.00  0.00    -0.018 C 
ATOM     18  C   UNL     1     -10.450  15.032  69.518  0.00  0.00    +0.006 C 
ATOM     19  C   UNL     1     -10.200  17.931  68.811  0.00  0.00    +0.004 C 
ATOM     20  C   UNL     1     -10.448  17.664  66.491  0.00  0.00    +0.004 C 
ATOM     21  C   UNL     1      -8.261  16.378  66.286  0.00  0.00    +0.038 C 
ATOM     22  C   UNL     1      -8.973  19.012  68.728  0.00  0.00    +0.044 C 
ATOM     23  C   UNL     1      -9.953  20.168  68.124  0.00  0.00    +0.004 C 
ENDROOT
BRANCH   1  24
ATOM     24  C   UNL     1      -8.394  19.609  66.337  0.00  0.00    +0.230 C 
ATOM     25  O   UNL     1      -9.422  19.914  65.733  0.00  0.00    -0.288 OA
BRANCH  24  26
ATOM     26  C   UNL     1      -7.123  20.138  65.756  0.00  0.00    +0.276 C 
BRANCH  26  27
ATOM     27  O   UNL     1      -6.820  19.583  64.504  0.00  0.00    -0.440 OA
BRANCH  27  28
ATOM     28  C   UNL     1      -5.599  18.985  64.274  0.00  0.00    +0.317 C 
ATOM     29  O   UNL     1      -5.236  18.870  63.068  0.00  0.00    -0.250 OA
BRANCH  28  31
ATOM     30  C   UNL     1      -4.239  17.664  65.650  0.00  0.00    +0.012 C 
ATOM     31  C   UNL     1      -4.529  18.907  65.316  0.00  0.00    +0.110 C 
ENDBRANCH  28  31
ENDBRANCH  27  28
ENDBRANCH  26  27
ENDBRANCH  24  26
ENDBRANCH   1  24
BRANCH   1  32
ATOM     32  O   UNL     1      -7.057  18.193  67.637  0.00  0.00    -0.448 OA
BRANCH  32  33
ATOM     33  C   UNL     1      -6.558  18.640  68.851  0.00  0.00    +0.317 C 
ATOM     34  O   UNL     1      -6.265  17.839  69.779  0.00  0.00    -0.250 OA
BRANCH  33  35
ATOM     35  C   UNL     1      -6.082  20.040  69.009  0.00  0.00    +0.110 C 
ATOM     36  C   UNL     1      -5.641  20.323  70.434  0.00  0.00    +0.012 C 
ENDBRANCH  33  35
ENDBRANCH  32  33
ENDBRANCH   1  32
TORSDOF 8
ENDMDL
MODEL 9
REMARK VINA RESULT:      -6.6      3.985      7.422
REMARK  Name = 
REMARK  8 active torsions:
REMARK  status: ('A' for Active; 'I' for Inactive)
REMARK    1  A    between atoms: C_2  and  C_3
REMARK    2  A    between atoms: C_3  and  O_5
REMARK    3  A    between atoms: O_5  and  C_6
REMARK    4  A    between atoms: C_6  and  C_7
REMARK    5  A    between atoms: C_7  and  C_9
REMARK    6  A    between atoms: C_9  and  O_10
REMARK    7  A    between atoms: O_10  and  C_11
REMARK    8  A    between atoms: C_11  and  C_13
REMARK                            x       y       z     vdW  Elec       q    Type
REMARK                         _______ _______ _______ _____ _____    ______ ____
ROOT
ATOM      1  C   UNL     1      -8.541   8.527  68.424  0.00  0.00    +0.190 C 
ATOM      2  C   UNL     1      -9.583   9.458  67.996  0.00  0.00    +0.043 C 
ATOM      3  C   UNL     1      -8.833   9.911  66.643  0.00  0.00    +0.005 C 
ATOM      4  C   UNL     1     -10.284  10.555  66.061  0.00  0.00    +0.017 C 
ATOM      5  C   UNL     1     -10.027  11.961  66.780  0.00  0.00    +0.102 C 
ATOM      6  C   UNL     1     -10.611  11.816  68.306  0.00  0.00    +0.166 C 
ATOM      7  O   UNL     1     -11.743  10.883  67.915  0.00  0.00    -0.222 OA
ATOM      8 CL   UNL     1      -8.370  12.406  66.830  0.00  0.00    -0.113 Cl
ATOM      9  C   UNL     1     -10.841  13.014  66.107  0.00  0.00    +0.049 C 
ATOM     10  C   UNL     1     -11.397  12.619  64.787  0.00  0.00    -0.037 C 
ATOM     11  C   UNL     1     -12.066  13.594  64.163  0.00  0.00    +0.034 C 
ATOM     12  C   UNL     1     -11.798  15.002  64.503  0.00  0.00    +0.195 C 
ATOM     13  C   UNL     1     -10.449  15.207  65.053  0.00  0.00    +0.038 C 
ATOM     14  O   UNL     1     -12.356  15.958  63.883  0.00  0.00    -0.287 OA
ATOM     15  C   UNL     1     -10.777  11.557  63.931  0.00  0.00    +0.022 C 
ATOM     16  C   UNL     1     -11.989  13.525  66.975  0.00  0.00    +0.010 C 
ATOM     17  C   UNL     1     -10.001  14.228  65.842  0.00  0.00    -0.018 C 
ATOM     18  C   UNL     1      -9.577  11.044  64.687  0.00  0.00    +0.006 C 
ATOM     19  C   UNL     1      -9.084   8.428  66.058  0.00  0.00    +0.004 C 
ATOM     20  C   UNL     1     -10.775   8.647  67.672  0.00  0.00    +0.004 C 
ATOM     21  C   UNL     1      -9.614  10.614  68.794  0.00  0.00    +0.038 C 
ATOM     22  C   UNL     1      -7.948   7.840  67.079  0.00  0.00    +0.044 C 
ATOM     23  C   UNL     1      -8.750   6.431  67.257  0.00  0.00    +0.004 C 
ENDROOT
BRANCH   1  24
ATOM     24  C   UNL     1      -8.848   7.536  69.426  0.00  0.00    +0.230 C 
ATOM     25  O   UNL     1      -9.843   6.820  69.310  0.00  0.00    -0.288 OA
BRANCH  24  26
ATOM     26  C   UNL     1      -8.242   7.583  70.791  0.00  0.00    +0.276 C 
BRANCH  26  27
ATOM     27  O   UNL     1      -8.887   8.490  71.645  0.00  0.00    -0.440 OA
BRANCH  27  28
ATOM     28  C   UNL     1      -9.827   8.055  72.555  0.00  0.00    +0.317 C 
ATOM     29  O   UNL     1      -9.432   7.866  73.741  0.00  0.00    -0.250 OA
BRANCH  28  31
ATOM     30  C   UNL     1     -11.571   9.285  71.588  0.00  0.00    +0.012 C 
ATOM     31  C   UNL     1     -11.297   8.245  72.351  0.00  0.00    +0.110 C 
ENDBRANCH  28  31
ENDBRANCH  27  28
ENDBRANCH  26  27
ENDBRANCH  24  26
ENDBRANCH   1  24
BRANCH   1  32
ATOM     32  O   UNL     1      -7.416   9.296  68.849  0.00  0.00    -0.448 OA
BRANCH  32  33
ATOM     33  C   UNL     1      -6.149   8.877  68.473  0.00  0.00    +0.317 C 
ATOM     34  O   UNL     1      -5.772   7.685  68.637  0.00  0.00    -0.250 OA
BRANCH  33  35
ATOM     35  C   UNL     1      -5.289   9.730  67.610  0.00  0.00    +0.110 C 
ATOM     36  C   UNL     1      -5.357  11.190  68.021  0.00  0.00    +0.012 C 
ENDBRANCH  33  35
ENDBRANCH  32  33
ENDBRANCH   1  32
TORSDOF 8
ENDMDL
