MODEL 1
REMARK VINA RESULT:      -4.9      0.000      0.000
REMARK  Name = 
REMARK  1 active torsions:
REMARK  status: ('A' for Active; 'I' for Inactive)
REMARK    1  A    between atoms: C_2  and  C_4
REMARK                            x       y       z     vdW  Elec       q    Type
REMARK                         _______ _______ _______ _____ _____    ______ ____
ROOT
ATOM      1  C   UNL     1     -11.306  14.397  64.938  0.00  0.00    +0.076 A 
ATOM      2  C   UNL     1     -12.556  13.938  65.327  0.00  0.00    +0.103 A 
ATOM      3  N   UNL     1     -13.086  12.837  64.762  0.00  0.00    -0.242 NA
ATOM      4  C   UNL     1     -12.354  12.165  63.839  0.00  0.00    +0.099 A 
ATOM      5  C   UNL     1     -10.975  12.269  63.993  0.00  0.00    +0.021 A 
ATOM      6  C   UNL     1     -10.417  13.448  64.470  0.00  0.00    +0.008 A 
ENDROOT
BRANCH   1   8
ATOM      7  N   UNL     1      -9.969  16.432  65.562  0.00  0.00    -0.084 NA
ATOM      8  C   UNL     1     -11.046  15.839  64.822  0.00  0.00    +0.286 C 
ATOM      9  O   UNL     1     -11.642  16.501  63.935  0.00  0.00    -0.267 OA
ENDBRANCH   1   8
TORSDOF 1
ENDMDL
MODEL 2
REMARK VINA RESULT:      -4.2      1.451      1.825
REMARK  Name = 
REMARK  1 active torsions:
REMARK  status: ('A' for Active; 'I' for Inactive)
REMARK    1  A    between atoms: C_2  and  C_4
REMARK                            x       y       z     vdW  Elec       q    Type
REMARK                         _______ _______ _______ _____ _____    ______ ____
ROOT
ATOM      1  C   UNL     1     -10.950  14.672  64.995  0.00  0.00    +0.076 A 
ATOM      2  C   UNL     1     -10.070  13.877  65.716  0.00  0.00    +0.103 A 
ATOM      3  N   UNL     1     -10.517  12.805  66.395  0.00  0.00    -0.242 NA
ATOM      4  C   UNL     1     -11.836  12.495  66.325  0.00  0.00    +0.099 A 
ATOM      5  C   UNL     1     -12.468  12.882  65.148  0.00  0.00    +0.021 A 
ATOM      6  C   UNL     1     -12.083  14.051  64.505  0.00  0.00    +0.008 A 
ENDROOT
BRANCH   1   8
ATOM      7  N   UNL     1      -9.726  16.742  65.723  0.00  0.00    -0.084 NA
ATOM      8  C   UNL     1     -10.782  16.132  64.968  0.00  0.00    +0.286 C 
ATOM      9  O   UNL     1     -11.440  16.810  64.140  0.00  0.00    -0.267 OA
ENDBRANCH   1   8
TORSDOF 1
ENDMDL
MODEL 3
REMARK VINA RESULT:      -4.2      1.268      1.698
REMARK  Name = 
REMARK  1 active torsions:
REMARK  status: ('A' for Active; 'I' for Inactive)
REMARK    1  A    between atoms: C_2  and  C_4
REMARK                            x       y       z     vdW  Elec       q    Type
REMARK                         _______ _______ _______ _____ _____    ______ ____
ROOT
ATOM      1  C   UNL     1     -11.612  14.825  65.481  0.00  0.00    +0.076 A 
ATOM      2  C   UNL     1     -12.090  13.957  64.509  0.00  0.00    +0.103 A 
ATOM      3  N   UNL     1     -12.065  12.626  64.710  0.00  0.00    -0.242 NA
ATOM      4  C   UNL     1     -11.603  12.157  65.895  0.00  0.00    +0.099 A 
ATOM      5  C   UNL     1     -11.777  13.016  66.976  0.00  0.00    +0.021 A 
ATOM      6  C   UNL     1     -11.690  14.390  66.790  0.00  0.00    +0.008 A 
ENDROOT
BRANCH   1   8
ATOM      7  N   UNL     1      -9.532  16.230  65.602  0.00  0.00    -0.084 NA
ATOM      8  C   UNL     1     -10.860  16.028  65.098  0.00  0.00    +0.286 C 
ATOM      9  O   UNL     1     -11.310  16.770  64.188  0.00  0.00    -0.267 OA
ENDBRANCH   1   8
TORSDOF 1
ENDMDL
MODEL 4
REMARK VINA RESULT:      -4.2      6.545      7.280
REMARK  Name = 
REMARK  1 active torsions:
REMARK  status: ('A' for Active; 'I' for Inactive)
REMARK    1  A    between atoms: C_2  and  C_4
REMARK                            x       y       z     vdW  Elec       q    Type
REMARK                         _______ _______ _______ _____ _____    ______ ____
ROOT
ATOM      1  C   UNL     1     -12.623  15.616  70.934  0.00  0.00    +0.076 A 
ATOM      2  C   UNL     1     -13.775  14.953  71.333  0.00  0.00    +0.103 A 
ATOM      3  N   UNL     1     -13.891  14.480  72.588  0.00  0.00    -0.242 NA
ATOM      4  C   UNL     1     -12.878  14.702  73.462  0.00  0.00    +0.099 A 
ATOM      5  C   UNL     1     -12.138  15.855  73.223  0.00  0.00    +0.021 A 
ATOM      6  C   UNL     1     -11.922  16.283  71.920  0.00  0.00    +0.008 A 
ENDROOT
BRANCH   1   8
ATOM      7  N   UNL     1     -12.060  14.095  69.014  0.00  0.00    -0.084 NA
ATOM      8  C   UNL     1     -12.077  15.412  69.585  0.00  0.00    +0.286 C 
ATOM      9  O   UNL     1     -11.808  16.412  68.874  0.00  0.00    -0.267 OA
ENDBRANCH   1   8
TORSDOF 1
ENDMDL
MODEL 5
REMARK VINA RESULT:      -4.1      3.651      5.842
REMARK  Name = 
REMARK  1 active torsions:
REMARK  status: ('A' for Active; 'I' for Inactive)
REMARK    1  A    between atoms: C_2  and  C_4
REMARK                            x       y       z     vdW  Elec       q    Type
REMARK                         _______ _______ _______ _____ _____    ______ ____
ROOT
ATOM      1  C   UNL     1     -10.476  17.968  66.505  0.00  0.00    +0.076 A 
ATOM      2  C   UNL     1     -10.487  17.686  67.864  0.00  0.00    +0.103 A 
ATOM      3  N   UNL     1      -9.867  18.503  68.736  0.00  0.00    -0.242 NA
ATOM      4  C   UNL     1      -9.272  19.626  68.263  0.00  0.00    +0.099 A 
ATOM      5  C   UNL     1      -9.841  20.151  67.107  0.00  0.00    +0.021 A 
ATOM      6  C   UNL     1     -10.381  19.300  66.151  0.00  0.00    +0.008 A 
ENDROOT
BRANCH   1   8
ATOM      7  N   UNL     1     -11.232  16.825  64.399  0.00  0.00    -0.084 NA
ATOM      8  C   UNL     1     -10.341  16.884  65.522  0.00  0.00    +0.286 C 
ATOM      9  O   UNL     1      -9.334  16.134  65.570  0.00  0.00    -0.267 OA
ENDBRANCH   1   8
TORSDOF 1
ENDMDL
MODEL 6
REMARK VINA RESULT:      -4.1      2.895      3.734
REMARK  Name = 
REMARK  1 active torsions:
REMARK  status: ('A' for Active; 'I' for Inactive)
REMARK    1  A    between atoms: C_2  and  C_4
REMARK                            x       y       z     vdW  Elec       q    Type
REMARK                         _______ _______ _______ _____ _____    ______ ____
ROOT
ATOM      1  C   UNL     1     -11.897  13.547  66.368  0.00  0.00    +0.076 A 
ATOM      2  C   UNL     1     -11.570  14.749  66.980  0.00  0.00    +0.103 A 
ATOM      3  N   UNL     1     -11.639  14.875  68.319  0.00  0.00    -0.242 NA
ATOM      4  C   UNL     1     -11.992  13.793  69.056  0.00  0.00    +0.099 A 
ATOM      5  C   UNL     1     -11.660  12.564  68.492  0.00  0.00    +0.021 A 
ATOM      6  C   UNL     1     -11.699  12.401  67.113  0.00  0.00    +0.008 A 
ENDROOT
BRANCH   1   8
ATOM      7  N   UNL     1     -12.514  14.652  64.197  0.00  0.00    -0.084 NA
ATOM      8  C   UNL     1     -12.626  13.536  65.092  0.00  0.00    +0.286 C 
ATOM      9  O   UNL     1     -13.184  12.476  64.712  0.00  0.00    -0.267 OA
ENDBRANCH   1   8
TORSDOF 1
ENDMDL
MODEL 7
REMARK VINA RESULT:      -4.1      6.212      6.998
REMARK  Name = 
REMARK  1 active torsions:
REMARK  status: ('A' for Active; 'I' for Inactive)
REMARK    1  A    between atoms: C_2  and  C_4
REMARK                            x       y       z     vdW  Elec       q    Type
REMARK                         _______ _______ _______ _____ _____    ______ ____
ROOT
ATOM      1  C   UNL     1     -12.593  14.920  71.142  0.00  0.00    +0.076 A 
ATOM      2  C   UNL     1     -12.437  13.998  70.117  0.00  0.00    +0.103 A 
ATOM      3  N   UNL     1     -11.928  14.376  68.929  0.00  0.00    -0.242 NA
ATOM      4  C   UNL     1     -11.533  15.663  68.772  0.00  0.00    +0.099 A 
ATOM      5  C   UNL     1     -11.111  16.295  69.938  0.00  0.00    +0.021 A 
ATOM      6  C   UNL     1     -11.715  15.988  71.151  0.00  0.00    +0.008 A 
ENDROOT
BRANCH   1   8
ATOM      7  N   UNL     1     -14.246  13.603  72.500  0.00  0.00    -0.084 NA
ATOM      8  C   UNL     1     -13.772  14.868  72.017  0.00  0.00    +0.286 C 
ATOM      9  O   UNL     1     -14.237  15.937  72.486  0.00  0.00    -0.267 OA
ENDBRANCH   1   8
TORSDOF 1
ENDMDL
MODEL 8
REMARK VINA RESULT:      -4.0      1.812      3.673
REMARK  Name = 
REMARK  1 active torsions:
REMARK  status: ('A' for Active; 'I' for Inactive)
REMARK    1  A    between atoms: C_2  and  C_4
REMARK                            x       y       z     vdW  Elec       q    Type
REMARK                         _______ _______ _______ _____ _____    ______ ____
ROOT
ATOM      1  C   UNL     1     -11.028  14.426  65.353  0.00  0.00    +0.076 A 
ATOM      2  C   UNL     1     -11.155  15.657  64.725  0.00  0.00    +0.103 A 
ATOM      3  N   UNL     1     -10.474  16.727  65.176  0.00  0.00    -0.242 NA
ATOM      4  C   UNL     1      -9.631  16.565  66.226  0.00  0.00    +0.099 A 
ATOM      5  C   UNL     1      -9.081  15.293  66.348  0.00  0.00    +0.021 A 
ATOM      6  C   UNL     1      -9.827  14.178  65.989  0.00  0.00    +0.008 A 
ENDROOT
BRANCH   1   8
ATOM      7  N   UNL     1     -12.058  12.293  66.194  0.00  0.00    -0.084 NA
ATOM      8  C   UNL     1     -12.197  13.550  65.517  0.00  0.00    +0.286 C 
ATOM      9  O   UNL     1     -13.339  13.992  65.234  0.00  0.00    -0.267 OA
ENDBRANCH   1   8
TORSDOF 1
ENDMDL
MODEL 9
REMARK VINA RESULT:      -3.8      4.763      5.984
REMARK  Name = 
REMARK  1 active torsions:
REMARK  status: ('A' for Active; 'I' for Inactive)
REMARK    1  A    between atoms: C_2  and  C_4
REMARK                            x       y       z     vdW  Elec       q    Type
REMARK                         _______ _______ _______ _____ _____    ______ ____
ROOT
ATOM      1  C   UNL     1     -10.155  17.534  67.996  0.00  0.00    +0.076 A 
ATOM      2  C   UNL     1     -10.109  17.405  66.614  0.00  0.00    +0.103 A 
ATOM      3  N   UNL     1     -10.354  18.464  65.821  0.00  0.00    -0.242 NA
ATOM      4  C   UNL     1     -10.605  19.665  66.400  0.00  0.00    +0.099 A 
ATOM      5  C   UNL     1     -10.008  19.855  67.642  0.00  0.00    +0.021 A 
ATOM      6  C   UNL     1      -9.856  18.781  68.510  0.00  0.00    +0.008 A 
ENDROOT
BRANCH   1   8
ATOM      7  N   UNL     1      -9.844  15.639  69.617  0.00  0.00    -0.084 NA
ATOM      8  C   UNL     1     -10.716  16.458  68.825  0.00  0.00    +0.286 C 
ATOM      9  O   UNL     1     -11.961  16.388  68.979  0.00  0.00    -0.267 OA
ENDBRANCH   1   8
TORSDOF 1
ENDMDL
