MODEL 1
REMARK VINA RESULT:      -6.8      0.000      0.000
REMARK  Name = 3194
REMARK  1 active torsions:
REMARK  status: ('A' for Active; 'I' for Inactive)
REMARK    1  A    between atoms: N_3  and  C_7
REMARK                            x       y       z     vdW  Elec       q    Type
REMARK                         _______ _______ _______ _____ _____    ______ ____
ROOT
ATOM      1 SE   UNL     1     -13.352  12.279  72.045  0.00  0.00    +0.000 Se
ATOM      2  C   UNL     1     -12.926  11.577  71.485  0.00  0.00    +0.000 A 
ATOM      3  C   UNL     1     -12.950  10.578  71.527  0.00  0.00    +0.000 A 
ATOM      4  C   UNL     1     -12.442  10.038  70.856  0.00  0.00    +0.000 A 
ATOM      5  C   UNL     1     -11.910  10.496  70.144  0.00  0.00    +0.000 A 
ATOM      6  C   UNL     1     -11.886  11.495  70.103  0.00  0.00    +0.000 A 
ATOM      7  C   UNL     1     -12.394  12.035  70.773  0.00  0.00    +0.000 A 
ATOM      8  C   UNL     1     -12.496  13.016  70.900  0.00  0.00    +0.000 A 
ATOM      9  O   UNL     1     -12.078  13.728  70.335  0.00  0.00    +0.000 OA
ATOM     10  N   UNL     1     -13.088  13.166  71.685  0.00  0.00    +0.000 N 
ENDROOT
BRANCH  10  11
ATOM     11  C   UNL     1     -13.367  14.055  72.048  0.00  0.00    +0.000 A 
ATOM     12  C   UNL     1     -14.160  14.526  71.662  0.00  0.00    +0.000 A 
ATOM     13  C   UNL     1     -14.440  15.415  72.025  0.00  0.00    +0.000 A 
ATOM     14  C   UNL     1     -13.926  15.833  72.774  0.00  0.00    +0.000 A 
ATOM     15  C   UNL     1     -13.133  15.362  73.161  0.00  0.00    +0.000 A 
ATOM     16  C   UNL     1     -12.854  14.473  72.797  0.00  0.00    +0.000 A 
ENDBRANCH  10  11
TORSDOF 1
ENDMDL
MODEL 2
REMARK VINA RESULT:      -6.7      2.067      2.560
REMARK  Name = 3194
REMARK  1 active torsions:
REMARK  status: ('A' for Active; 'I' for Inactive)
REMARK    1  A    between atoms: N_3  and  C_7
REMARK                            x       y       z     vdW  Elec       q    Type
REMARK                         _______ _______ _______ _____ _____    ______ ____
ROOT
ATOM      1 SE   UNL     1     -12.221  13.665  70.499  0.00  0.00    +0.000 Se
ATOM      2  C   UNL     1     -11.971  13.542  69.545  0.00  0.00    +0.000 A 
ATOM      3  C   UNL     1     -11.765  12.726  69.005  0.00  0.00    +0.000 A 
ATOM      4  C   UNL     1     -11.530  12.814  68.037  0.00  0.00    +0.000 A 
ATOM      5  C   UNL     1     -11.501  13.717  67.609  0.00  0.00    +0.000 A 
ATOM      6  C   UNL     1     -11.708  14.533  68.150  0.00  0.00    +0.000 A 
ATOM      7  C   UNL     1     -11.943  14.445  69.118  0.00  0.00    +0.000 A 
ATOM      8  C   UNL     1     -12.175  15.118  69.811  0.00  0.00    +0.000 A 
ATOM      9  O   UNL     1     -12.226  16.108  69.676  0.00  0.00    +0.000 OA
ATOM     10  N   UNL     1     -12.347  14.637  70.664  0.00  0.00    +0.000 N 
ENDROOT
BRANCH  10  11
ATOM     11  C   UNL     1     -12.601  15.057  71.535  0.00  0.00    +0.000 A 
ATOM     12  C   UNL     1     -13.564  15.226  71.746  0.00  0.00    +0.000 A 
ATOM     13  C   UNL     1     -13.819  15.646  72.617  0.00  0.00    +0.000 A 
ATOM     14  C   UNL     1     -13.111  15.897  73.277  0.00  0.00    +0.000 A 
ATOM     15  C   UNL     1     -12.148  15.729  73.066  0.00  0.00    +0.000 A 
ATOM     16  C   UNL     1     -11.893  15.308  72.195  0.00  0.00    +0.000 A 
ENDBRANCH  10  11
TORSDOF 1
ENDMDL
MODEL 3
REMARK VINA RESULT:      -6.4      4.599      6.360
REMARK  Name = 3194
REMARK  1 active torsions:
REMARK  status: ('A' for Active; 'I' for Inactive)
REMARK    1  A    between atoms: N_3  and  C_7
REMARK                            x       y       z     vdW  Elec       q    Type
REMARK                         _______ _______ _______ _____ _____    ______ ____
ROOT
ATOM      1 SE   UNL     1     -11.745  13.933  66.666  0.00  0.00    +0.000 Se
ATOM      2  C   UNL     1     -11.786  13.880  67.658  0.00  0.00    +0.000 A 
ATOM      3  C   UNL     1     -11.844  14.585  68.365  0.00  0.00    +0.000 A 
ATOM      4  C   UNL     1     -11.876  14.322  69.330  0.00  0.00    +0.000 A 
ATOM      5  C   UNL     1     -11.850  13.356  69.587  0.00  0.00    +0.000 A 
ATOM      6  C   UNL     1     -11.792  12.652  68.879  0.00  0.00    +0.000 A 
ATOM      7  C   UNL     1     -11.760  12.914  67.914  0.00  0.00    +0.000 A 
ATOM      8  C   UNL     1     -11.703  12.378  67.079  0.00  0.00    +0.000 A 
ATOM      9  O   UNL     1     -11.662  11.380  67.023  0.00  0.00    +0.000 OA
ATOM     10  N   UNL     1     -11.693  13.007  66.309  0.00  0.00    +0.000 N 
ENDROOT
BRANCH  10  11
ATOM     11  C   UNL     1     -11.641  12.752  65.343  0.00  0.00    +0.000 A 
ATOM     12  C   UNL     1     -12.479  12.574  64.827  0.00  0.00    +0.000 A 
ATOM     13  C   UNL     1     -12.427  12.319  63.862  0.00  0.00    +0.000 A 
ATOM     14  C   UNL     1     -11.537  12.241  63.412  0.00  0.00    +0.000 A 
ATOM     15  C   UNL     1     -10.699  12.419  63.928  0.00  0.00    +0.000 A 
ATOM     16  C   UNL     1     -10.751  12.674  64.894  0.00  0.00    +0.000 A 
ENDBRANCH  10  11
TORSDOF 1
ENDMDL
MODEL 4
REMARK VINA RESULT:      -6.3      5.144      5.980
REMARK  Name = 3194
REMARK  1 active torsions:
REMARK  status: ('A' for Active; 'I' for Inactive)
REMARK    1  A    between atoms: N_3  and  C_7
REMARK                            x       y       z     vdW  Elec       q    Type
REMARK                         _______ _______ _______ _____ _____    ______ ____
ROOT
ATOM      1 SE   UNL     1     -10.935  12.745  65.892  0.00  0.00    +0.000 Se
ATOM      2  C   UNL     1     -11.199  12.360  65.015  0.00  0.00    +0.000 A 
ATOM      3  C   UNL     1     -10.757  11.694  64.414  0.00  0.00    +0.000 A 
ATOM      4  C   UNL     1     -11.194  11.430  63.554  0.00  0.00    +0.000 A 
ATOM      5  C   UNL     1     -12.072  11.832  63.295  0.00  0.00    +0.000 A 
ATOM      6  C   UNL     1     -12.513  12.498  63.896  0.00  0.00    +0.000 A 
ATOM      7  C   UNL     1     -12.077  12.762  64.756  0.00  0.00    +0.000 A 
ATOM      8  C   UNL     1     -12.348  13.392  65.476  0.00  0.00    +0.000 A 
ATOM      9  O   UNL     1     -13.184  13.942  65.492  0.00  0.00    +0.000 OA
ATOM     10  N   UNL     1     -11.642  13.382  66.177  0.00  0.00    +0.000 N 
ENDROOT
BRANCH  10  11
ATOM     11  C   UNL     1     -11.645  13.919  67.021  0.00  0.00    +0.000 A 
ATOM     12  C   UNL     1     -11.989  13.515  67.869  0.00  0.00    +0.000 A 
ATOM     13  C   UNL     1     -11.992  14.052  68.712  0.00  0.00    +0.000 A 
ATOM     14  C   UNL     1     -11.651  14.992  68.708  0.00  0.00    +0.000 A 
ATOM     15  C   UNL     1     -11.308  15.396  67.860  0.00  0.00    +0.000 A 
ATOM     16  C   UNL     1     -11.305  14.859  67.016  0.00  0.00    +0.000 A 
ENDBRANCH  10  11
TORSDOF 1
ENDMDL
MODEL 5
REMARK VINA RESULT:      -6.3      1.953      4.340
REMARK  Name = 3194
REMARK  1 active torsions:
REMARK  status: ('A' for Active; 'I' for Inactive)
REMARK    1  A    between atoms: N_3  and  C_7
REMARK                            x       y       z     vdW  Elec       q    Type
REMARK                         _______ _______ _______ _____ _____    ______ ____
ROOT
ATOM      1 SE   UNL     1     -13.098  14.371  70.919  0.00  0.00    +0.000 Se
ATOM      2  C   UNL     1     -13.017  14.958  71.717  0.00  0.00    +0.000 A 
ATOM      3  C   UNL     1     -13.649  15.170  72.462  0.00  0.00    +0.000 A 
ATOM      4  C   UNL     1     -13.374  15.800  73.188  0.00  0.00    +0.000 A 
ATOM      5  C   UNL     1     -12.466  16.218  73.168  0.00  0.00    +0.000 A 
ATOM      6  C   UNL     1     -11.834  16.007  72.423  0.00  0.00    +0.000 A 
ATOM      7  C   UNL     1     -12.109  15.377  71.697  0.00  0.00    +0.000 A 
ATOM      8  C   UNL     1     -11.637  15.045  70.888  0.00  0.00    +0.000 A 
ATOM      9  O   UNL     1     -10.710  15.292  70.605  0.00  0.00    +0.000 OA
ATOM     10  N   UNL     1     -12.248  14.424  70.407  0.00  0.00    +0.000 N 
ENDROOT
BRANCH  10  11
ATOM     11  C   UNL     1     -12.042  13.938  69.558  0.00  0.00    +0.000 A 
ATOM     12  C   UNL     1     -12.092  14.419  68.682  0.00  0.00    +0.000 A 
ATOM     13  C   UNL     1     -11.886  13.933  67.833  0.00  0.00    +0.000 A 
ATOM     14  C   UNL     1     -11.630  12.967  67.859  0.00  0.00    +0.000 A 
ATOM     15  C   UNL     1     -11.581  12.486  68.734  0.00  0.00    +0.000 A 
ATOM     16  C   UNL     1     -11.787  12.972  69.584  0.00  0.00    +0.000 A 
ENDBRANCH  10  11
TORSDOF 1
ENDMDL
MODEL 6
REMARK VINA RESULT:      -6.2      6.998      7.406
REMARK  Name = 3194
REMARK  1 active torsions:
REMARK  status: ('A' for Active; 'I' for Inactive)
REMARK    1  A    between atoms: N_3  and  C_7
REMARK                            x       y       z     vdW  Elec       q    Type
REMARK                         _______ _______ _______ _____ _____    ______ ____
ROOT
ATOM      1 SE   UNL     1      -9.659  16.513  66.792  0.00  0.00    +0.000 Se
ATOM      2  C   UNL     1      -9.901  15.693  66.286  0.00  0.00    +0.000 A 
ATOM      3  C   UNL     1      -9.699  14.726  66.439  0.00  0.00    +0.000 A 
ATOM      4  C   UNL     1     -10.041  14.036  65.800  0.00  0.00    +0.000 A 
ATOM      5  C   UNL     1     -10.585  14.315  65.008  0.00  0.00    +0.000 A 
ATOM      6  C   UNL     1     -10.787  15.282  64.855  0.00  0.00    +0.000 A 
ATOM      7  C   UNL     1     -10.445  15.971  65.494  0.00  0.00    +0.000 A 
ATOM      8  C   UNL     1     -10.534  16.961  65.518  0.00  0.00    +0.000 A 
ATOM      9  O   UNL     1     -11.025  17.523  64.853  0.00  0.00    +0.000 OA
ATOM     10  N   UNL     1     -10.049  17.295  66.319  0.00  0.00    +0.000 N 
ENDROOT
BRANCH  10  11
ATOM     11  C   UNL     1      -9.967  18.252  66.600  0.00  0.00    +0.000 A 
ATOM     12  C   UNL     1     -10.642  18.650  67.221  0.00  0.00    +0.000 A 
ATOM     13  C   UNL     1     -10.561  19.606  67.502  0.00  0.00    +0.000 A 
ATOM     14  C   UNL     1      -9.805  20.165  67.161  0.00  0.00    +0.000 A 
ATOM     15  C   UNL     1      -9.130  19.767  66.540  0.00  0.00    +0.000 A 
ATOM     16  C   UNL     1      -9.211  18.811  66.259  0.00  0.00    +0.000 A 
ENDBRANCH  10  11
TORSDOF 1
ENDMDL
MODEL 7
REMARK VINA RESULT:      -6.1      2.597      4.287
REMARK  Name = 3194
REMARK  1 active torsions:
REMARK  status: ('A' for Active; 'I' for Inactive)
REMARK    1  A    between atoms: N_3  and  C_7
REMARK                            x       y       z     vdW  Elec       q    Type
REMARK                         _______ _______ _______ _____ _____    ______ ____
ROOT
ATOM      1 SE   UNL     1     -12.223  13.611  70.281  0.00  0.00    +0.000 Se
ATOM      2  C   UNL     1     -12.740  13.985  71.043  0.00  0.00    +0.000 A 
ATOM      3  C   UNL     1     -13.158  13.557  71.844  0.00  0.00    +0.000 A 
ATOM      4  C   UNL     1     -13.646  14.119  72.513  0.00  0.00    +0.000 A 
ATOM      5  C   UNL     1     -13.716  15.107  72.380  0.00  0.00    +0.000 A 
ATOM      6  C   UNL     1     -13.297  15.535  71.578  0.00  0.00    +0.000 A 
ATOM      7  C   UNL     1     -12.809  14.973  70.910  0.00  0.00    +0.000 A 
ATOM      8  C   UNL     1     -12.335  15.201  70.066  0.00  0.00    +0.000 A 
ATOM      9  O   UNL     1     -12.239  16.118  69.676  0.00  0.00    +0.000 OA
ATOM     10  N   UNL     1     -11.974  14.360  69.678  0.00  0.00    +0.000 N 
ENDROOT
BRANCH  10  11
ATOM     11  C   UNL     1     -11.450  14.283  68.830  0.00  0.00    +0.000 A 
ATOM     12  C   UNL     1     -11.922  14.113  67.965  0.00  0.00    +0.000 A 
ATOM     13  C   UNL     1     -11.399  14.036  67.116  0.00  0.00    +0.000 A 
ATOM     14  C   UNL     1     -10.403  14.128  67.132  0.00  0.00    +0.000 A 
ATOM     15  C   UNL     1      -9.931  14.298  67.997  0.00  0.00    +0.000 A 
ATOM     16  C   UNL     1     -10.455  14.375  68.846  0.00  0.00    +0.000 A 
ENDBRANCH  10  11
TORSDOF 1
ENDMDL
MODEL 8
REMARK VINA RESULT:      -6.0      6.468      7.863
REMARK  Name = 3194
REMARK  1 active torsions:
REMARK  status: ('A' for Active; 'I' for Inactive)
REMARK    1  A    between atoms: N_3  and  C_7
REMARK                            x       y       z     vdW  Elec       q    Type
REMARK                         _______ _______ _______ _____ _____    ______ ____
ROOT
ATOM      1 SE   UNL     1     -10.085  17.247  67.733  0.00  0.00    +0.000 Se
ATOM      2  C   UNL     1     -10.122  18.219  67.531  0.00  0.00    +0.000 A 
ATOM      3  C   UNL     1     -10.021  19.030  68.107  0.00  0.00    +0.000 A 
ATOM      4  C   UNL     1     -10.094  19.942  67.704  0.00  0.00    +0.000 A 
ATOM      5  C   UNL     1     -10.269  20.043  66.725  0.00  0.00    +0.000 A 
ATOM      6  C   UNL     1     -10.370  19.233  66.148  0.00  0.00    +0.000 A 
ATOM      7  C   UNL     1     -10.297  18.320  66.551  0.00  0.00    +0.000 A 
ATOM      8  C   UNL     1     -10.366  17.410  66.158  0.00  0.00    +0.000 A 
ATOM      9  O   UNL     1     -10.537  17.198  65.195  0.00  0.00    +0.000 OA
ATOM     10  N   UNL     1     -10.234  16.748  66.887  0.00  0.00    +0.000 N 
ENDROOT
BRANCH  10  11
ATOM     11  C   UNL     1     -10.250  15.753  66.787  0.00  0.00    +0.000 A 
ATOM     12  C   UNL     1      -9.422  15.264  66.515  0.00  0.00    +0.000 A 
ATOM     13  C   UNL     1      -9.438  14.269  66.414  0.00  0.00    +0.000 A 
ATOM     14  C   UNL     1     -10.283  13.763  66.586  0.00  0.00    +0.000 A 
ATOM     15  C   UNL     1     -11.112  14.252  66.859  0.00  0.00    +0.000 A 
ATOM     16  C   UNL     1     -11.095  15.246  66.959  0.00  0.00    +0.000 A 
ENDBRANCH  10  11
TORSDOF 1
ENDMDL
MODEL 9
REMARK VINA RESULT:      -6.0      3.077      4.032
REMARK  Name = 3194
REMARK  1 active torsions:
REMARK  status: ('A' for Active; 'I' for Inactive)
REMARK    1  A    between atoms: N_3  and  C_7
REMARK                            x       y       z     vdW  Elec       q    Type
REMARK                         _______ _______ _______ _____ _____    ______ ____
ROOT
ATOM      1 SE   UNL     1     -12.227  14.692  69.243  0.00  0.00    +0.000 Se
ATOM      2  C   UNL     1     -11.602  15.306  68.776  0.00  0.00    +0.000 A 
ATOM      3  C   UNL     1     -11.237  15.313  67.845  0.00  0.00    +0.000 A 
ATOM      4  C   UNL     1     -10.605  16.034  67.561  0.00  0.00    +0.000 A 
ATOM      5  C   UNL     1     -10.337  16.748  68.208  0.00  0.00    +0.000 A 
ATOM      6  C   UNL     1     -10.702  16.741  69.139  0.00  0.00    +0.000 A 
ATOM      7  C   UNL     1     -11.334  16.020  69.423  0.00  0.00    +0.000 A 
ATOM      8  C   UNL     1     -11.796  15.840  70.285  0.00  0.00    +0.000 A 
ATOM      9  O   UNL     1     -11.721  16.388  71.118  0.00  0.00    +0.000 OA
ATOM     10  N   UNL     1     -12.348  15.020  70.173  0.00  0.00    +0.000 N 
ENDROOT
BRANCH  10  11
ATOM     11  C   UNL     1     -12.923  14.600  70.875  0.00  0.00    +0.000 A 
ATOM     12  C   UNL     1     -13.772  15.046  71.159  0.00  0.00    +0.000 A 
ATOM     13  C   UNL     1     -14.348  14.626  71.860  0.00  0.00    +0.000 A 
ATOM     14  C   UNL     1     -14.074  13.759  72.278  0.00  0.00    +0.000 A 
ATOM     15  C   UNL     1     -13.225  13.313  71.995  0.00  0.00    +0.000 A 
ATOM     16  C   UNL     1     -12.650  13.734  71.293  0.00  0.00    +0.000 A 
ENDBRANCH  10  11
TORSDOF 1
ENDMDL
