MODEL 1
REMARK VINA RESULT:      -6.5      0.000      0.000
REMARK  Name = 
REMARK  9 active torsions:
REMARK  status: ('A' for Active; 'I' for Inactive)
REMARK    1  A    between atoms: C_2  and  N_3
REMARK    2  A    between atoms: N_3  and  C_4
REMARK    3  A    between atoms: N_3  and  C_6
REMARK    4  A    between atoms: C_6  and  C_7
REMARK    5  A    between atoms: C_7  and  O_8
REMARK    6  A    between atoms: O_8  and  C_9
REMARK    7  A    between atoms: C_12  and  C_13
REMARK    8  A    between atoms: C_13  and  C_22
REMARK    9  A    between atoms: C_14  and  C_16
REMARK                            x       y       z     vdW  Elec       q    Type
REMARK                         _______ _______ _______ _____ _____    ______ ____
ROOT
ATOM      1  C   UNL     1     -10.167  11.913  67.452  0.00  0.00    +0.011 C 
ATOM      2  C   UNL     1     -10.488  10.755  68.028  0.00  0.00    +0.058 C 
ATOM      3 CL   UNL     1     -10.761   9.404  66.959  0.00  0.00    -0.082 Cl
ENDROOT
BRANCH   1   7
ATOM      4  C   UNL     1      -8.351  15.340  68.888  0.00  0.00    +0.139 A 
ATOM      5  C   UNL     1      -7.556  14.226  68.654  0.00  0.00    +0.037 A 
ATOM      6  C   UNL     1      -8.189  13.165  68.021  0.00  0.00    +0.003 A 
ATOM      7  C   UNL     1      -9.516  12.892  68.333  0.00  0.00    +0.001 A 
ATOM      8  C   UNL     1     -10.282  14.011  68.638  0.00  0.00    +0.003 A 
ATOM      9  C   UNL     1      -9.707  15.179  69.126  0.00  0.00    +0.037 A 
BRANCH   4  10
ATOM     10  O   UNL     1      -7.743  16.581  69.066  0.00  0.00    -0.474 OA
BRANCH  10  11
ATOM     11  C   UNL     1      -8.087  17.647  68.191  0.00  0.00    +0.223 C 
BRANCH  11  12
ATOM     12  C   UNL     1      -7.843  17.245  66.742  0.00  0.00    +0.120 C 
BRANCH  12  13
ATOM     13  N   UNL     1      -8.885  17.897  65.957  0.00  0.00    -0.270 NA
BRANCH  13  15
ATOM     14  C   UNL     1     -10.489  19.706  66.312  0.00  0.00    +0.019 C 
ATOM     15  C   UNL     1      -9.037  19.268  66.410  0.00  0.00    +0.072 C 
ENDBRANCH  13  15
BRANCH  13  16
ATOM     16  C   UNL     1     -10.161  17.241  66.176  0.00  0.00    +0.072 C 
ATOM     17  C   UNL     1     -10.075  15.871  65.515  0.00  0.00    +0.019 C 
ENDBRANCH  13  16
ENDBRANCH  12  13
ENDBRANCH  11  12
ENDBRANCH  10  11
ENDBRANCH   4  10
ENDBRANCH   1   7
BRANCH   2  18
ATOM     18  C   UNL     1     -10.922  10.670  69.425  0.00  0.00    +0.011 A 
ATOM     19  C   UNL     1     -12.145  11.102  69.864  0.00  0.00    +0.001 A 
ATOM     20  C   UNL     1     -12.774  10.563  70.979  0.00  0.00    +0.000 A 
ATOM     21  C   UNL     1     -12.242   9.431  71.585  0.00  0.00    +0.000 A 
ATOM     22  C   UNL     1     -10.883   9.232  71.376  0.00  0.00    +0.000 A 
ATOM     23  C   UNL     1     -10.259   9.778  70.261  0.00  0.00    +0.001 A 
ENDBRANCH   2  18
BRANCH   1  24
ATOM     24  C   UNL     1     -10.664  12.281  66.119  0.00  0.00    +0.001 A 
ATOM     25  C   UNL     1      -9.988  11.887  64.970  0.00  0.00    +0.000 A 
ATOM     26  C   UNL     1     -10.599  12.092  63.742  0.00  0.00    +0.000 A 
ATOM     27  C   UNL     1     -11.927  12.433  63.622  0.00  0.00    +0.000 A 
ATOM     28  C   UNL     1     -12.661  12.592  64.767  0.00  0.00    +0.000 A 
ATOM     29  C   UNL     1     -12.032  12.467  65.987  0.00  0.00    +0.000 A 
ENDBRANCH   1  24
TORSDOF 9
ENDMDL
MODEL 2
REMARK VINA RESULT:      -6.0      2.874      4.076
REMARK  Name = 
REMARK  9 active torsions:
REMARK  status: ('A' for Active; 'I' for Inactive)
REMARK    1  A    between atoms: C_2  and  N_3
REMARK    2  A    between atoms: N_3  and  C_4
REMARK    3  A    between atoms: N_3  and  C_6
REMARK    4  A    between atoms: C_6  and  C_7
REMARK    5  A    between atoms: C_7  and  O_8
REMARK    6  A    between atoms: O_8  and  C_9
REMARK    7  A    between atoms: C_12  and  C_13
REMARK    8  A    between atoms: C_13  and  C_22
REMARK    9  A    between atoms: C_14  and  C_16
REMARK                            x       y       z     vdW  Elec       q    Type
REMARK                         _______ _______ _______ _____ _____    ______ ____
ROOT
ATOM      1  C   UNL     1     -10.700  14.914  68.400  0.00  0.00    +0.011 C 
ATOM      2  C   UNL     1     -11.230  14.303  69.459  0.00  0.00    +0.058 C 
ATOM      3 CL   UNL     1     -11.384  12.569  69.361  0.00  0.00    -0.082 Cl
ENDROOT
BRANCH   1   7
ATOM      4  C   UNL     1      -8.919  18.613  67.907  0.00  0.00    +0.139 A 
ATOM      5  C   UNL     1      -8.207  17.628  68.579  0.00  0.00    +0.037 A 
ATOM      6  C   UNL     1      -8.785  16.365  68.569  0.00  0.00    +0.003 A 
ATOM      7  C   UNL     1     -10.169  16.260  68.653  0.00  0.00    +0.001 A 
ATOM      8  C   UNL     1     -10.868  17.294  68.040  0.00  0.00    +0.003 A 
ATOM      9  C   UNL     1     -10.303  18.551  67.861  0.00  0.00    +0.037 A 
BRANCH   4  10
ATOM     10  O   UNL     1      -8.245  19.745  67.454  0.00  0.00    -0.474 OA
BRANCH  10  11
ATOM     11  C   UNL     1      -6.919  19.604  66.959  0.00  0.00    +0.223 C 
BRANCH  11  12
ATOM     12  C   UNL     1      -6.852  20.021  65.495  0.00  0.00    +0.120 C 
BRANCH  12  13
ATOM     13  N   UNL     1      -6.426  18.838  64.754  0.00  0.00    -0.270 NA
BRANCH  13  15
ATOM     14  C   UNL     1      -4.253  17.836  65.246  0.00  0.00    +0.019 C 
ATOM     15  C   UNL     1      -5.714  17.945  65.650  0.00  0.00    +0.072 C 
ENDBRANCH  13  15
BRANCH  13  16
ATOM     16  C   UNL     1      -5.493  19.212  63.708  0.00  0.00    +0.072 C 
ATOM     17  C   UNL     1      -5.859  20.625  63.270  0.00  0.00    +0.019 C 
ENDBRANCH  13  16
ENDBRANCH  12  13
ENDBRANCH  11  12
ENDBRANCH  10  11
ENDBRANCH   4  10
ENDBRANCH   1   7
BRANCH   2  18
ATOM     18  C   UNL     1     -11.951  15.034  70.505  0.00  0.00    +0.011 A 
ATOM     19  C   UNL     1     -13.313  15.180  70.522  0.00  0.00    +0.001 A 
ATOM     20  C   UNL     1     -14.032  15.357  71.697  0.00  0.00    +0.000 A 
ATOM     21  C   UNL     1     -13.391  15.215  72.921  0.00  0.00    +0.000 A 
ATOM     22  C   UNL     1     -12.017  15.424  72.896  0.00  0.00    +0.000 A 
ATOM     23  C   UNL     1     -11.304  15.250  71.716  0.00  0.00    +0.001 A 
ENDBRANCH   2  18
BRANCH   1  24
ATOM     24  C   UNL     1     -10.876  14.394  67.037  0.00  0.00    +0.001 A 
ATOM     25  C   UNL     1      -9.905  13.592  66.447  0.00  0.00    +0.000 A 
ATOM     26  C   UNL     1     -10.204  12.972  65.243  0.00  0.00    +0.000 A 
ATOM     27  C   UNL     1     -11.483  12.913  64.737  0.00  0.00    +0.000 A 
ATOM     28  C   UNL     1     -12.490  13.509  65.448  0.00  0.00    +0.000 A 
ATOM     29  C   UNL     1     -12.178  14.193  66.603  0.00  0.00    +0.000 A 
ENDBRANCH   1  24
TORSDOF 9
ENDMDL
MODEL 3
REMARK VINA RESULT:      -5.9      2.991      4.240
REMARK  Name = 
REMARK  9 active torsions:
REMARK  status: ('A' for Active; 'I' for Inactive)
REMARK    1  A    between atoms: C_2  and  N_3
REMARK    2  A    between atoms: N_3  and  C_4
REMARK    3  A    between atoms: N_3  and  C_6
REMARK    4  A    between atoms: C_6  and  C_7
REMARK    5  A    between atoms: C_7  and  O_8
REMARK    6  A    between atoms: O_8  and  C_9
REMARK    7  A    between atoms: C_12  and  C_13
REMARK    8  A    between atoms: C_13  and  C_22
REMARK    9  A    between atoms: C_14  and  C_16
REMARK                            x       y       z     vdW  Elec       q    Type
REMARK                         _______ _______ _______ _____ _____    ______ ____
ROOT
ATOM      1  C   UNL     1     -11.058  14.347  68.769  0.00  0.00    +0.011 C 
ATOM      2  C   UNL     1     -11.637  13.965  69.906  0.00  0.00    +0.058 C 
ATOM      3 CL   UNL     1     -11.974  12.261  70.073  0.00  0.00    -0.082 Cl
ENDROOT
BRANCH   1   7
ATOM      4  C   UNL     1      -8.779  17.654  67.781  0.00  0.00    +0.139 A 
ATOM      5  C   UNL     1      -8.268  16.761  68.713  0.00  0.00    +0.037 A 
ATOM      6  C   UNL     1      -8.999  15.592  68.880  0.00  0.00    +0.003 A 
ATOM      7  C   UNL     1     -10.386  15.652  68.816  0.00  0.00    +0.001 A 
ATOM      8  C   UNL     1     -10.885  16.604  67.934  0.00  0.00    +0.003 A 
ATOM      9  C   UNL     1     -10.149  17.730  67.582  0.00  0.00    +0.037 A 
BRANCH   4  10
ATOM     10  O   UNL     1      -7.926  18.589  67.200  0.00  0.00    -0.474 OA
BRANCH  10  11
ATOM     11  C   UNL     1      -8.263  19.969  67.275  0.00  0.00    +0.223 C 
BRANCH  11  12
ATOM     12  C   UNL     1      -7.003  20.819  67.373  0.00  0.00    +0.120 C 
BRANCH  12  13
ATOM     13  N   UNL     1      -6.003  19.989  68.037  0.00  0.00    -0.270 NA
BRANCH  13  15
ATOM     14  C   UNL     1      -5.640  19.037  70.257  0.00  0.00    +0.019 C 
ATOM     15  C   UNL     1      -6.015  20.275  69.460  0.00  0.00    +0.072 C 
ENDBRANCH  13  15
BRANCH  13  16
ATOM     16  C   UNL     1      -4.676  20.324  67.556  0.00  0.00    +0.072 C 
ATOM     17  C   UNL     1      -4.839  20.861  66.140  0.00  0.00    +0.019 C 
ENDBRANCH  13  16
ENDBRANCH  12  13
ENDBRANCH  11  12
ENDBRANCH  10  11
ENDBRANCH   4  10
ENDBRANCH   1   7
BRANCH   2  18
ATOM     18  C   UNL     1     -12.268  14.919  70.823  0.00  0.00    +0.011 A 
ATOM     19  C   UNL     1     -13.623  15.030  70.982  0.00  0.00    +0.001 A 
ATOM     20  C   UNL     1     -14.204  15.481  72.161  0.00  0.00    +0.000 A 
ATOM     21  C   UNL     1     -13.412  15.670  73.287  0.00  0.00    +0.000 A 
ATOM     22  C   UNL     1     -12.066  15.899  73.031  0.00  0.00    +0.000 A 
ATOM     23  C   UNL     1     -11.491  15.449  71.848  0.00  0.00    +0.001 A 
ENDBRANCH   2  18
BRANCH   1  24
ATOM     24  C   UNL     1     -11.301  13.646  67.501  0.00  0.00    +0.001 A 
ATOM     25  C   UNL     1     -12.329  14.040  66.652  0.00  0.00    +0.000 A 
ATOM     26  C   UNL     1     -12.393  13.474  65.388  0.00  0.00    +0.000 A 
ATOM     27  C   UNL     1     -11.361  12.739  64.850  0.00  0.00    +0.000 A 
ATOM     28  C   UNL     1     -10.237  12.548  65.609  0.00  0.00    +0.000 A 
ATOM     29  C   UNL     1     -10.208  13.043  66.895  0.00  0.00    +0.000 A 
ENDBRANCH   1  24
TORSDOF 9
ENDMDL
MODEL 4
REMARK VINA RESULT:      -5.9      3.265      7.535
REMARK  Name = 
REMARK  9 active torsions:
REMARK  status: ('A' for Active; 'I' for Inactive)
REMARK    1  A    between atoms: C_2  and  N_3
REMARK    2  A    between atoms: N_3  and  C_4
REMARK    3  A    between atoms: N_3  and  C_6
REMARK    4  A    between atoms: C_6  and  C_7
REMARK    5  A    between atoms: C_7  and  O_8
REMARK    6  A    between atoms: O_8  and  C_9
REMARK    7  A    between atoms: C_12  and  C_13
REMARK    8  A    between atoms: C_13  and  C_22
REMARK    9  A    between atoms: C_14  and  C_16
REMARK                            x       y       z     vdW  Elec       q    Type
REMARK                         _______ _______ _______ _____ _____    ______ ____
ROOT
ATOM      1  C   UNL     1     -10.939  14.638  66.335  0.00  0.00    +0.011 C 
ATOM      2  C   UNL     1     -10.436  15.864  66.200  0.00  0.00    +0.058 C 
ATOM      3 CL   UNL     1     -10.946  16.765  64.796  0.00  0.00    -0.082 Cl
ENDROOT
BRANCH   1   7
ATOM      4  C   UNL     1     -11.798  12.508  69.774  0.00  0.00    +0.139 A 
ATOM      5  C   UNL     1     -12.032  13.876  69.776  0.00  0.00    +0.037 A 
ATOM      6  C   UNL     1     -11.881  14.508  68.547  0.00  0.00    +0.003 A 
ATOM      7  C   UNL     1     -10.874  14.079  67.692  0.00  0.00    +0.001 A 
ATOM      8  C   UNL     1     -10.598  12.717  67.755  0.00  0.00    +0.003 A 
ATOM      9  C   UNL     1     -10.870  11.970  68.896  0.00  0.00    +0.037 A 
BRANCH   4  10
ATOM     10  O   UNL     1     -12.358  11.724  70.780  0.00  0.00    -0.474 OA
BRANCH  10  11
ATOM     11  C   UNL     1     -12.561  10.337  70.539  0.00  0.00    +0.223 C 
BRANCH  11  12
ATOM     12  C   UNL     1     -11.719   9.504  71.496  0.00  0.00    +0.120 C 
BRANCH  12  13
ATOM     13  N   UNL     1     -12.644   8.601  72.173  0.00  0.00    -0.270 NA
BRANCH  13  15
ATOM     14  C   UNL     1     -10.985   6.906  72.760  0.00  0.00    +0.019 C 
ATOM     15  C   UNL     1     -12.225   7.230  71.944  0.00  0.00    +0.072 C 
ENDBRANCH  13  15
BRANCH  13  16
ATOM     16  C   UNL     1     -13.974   8.731  71.607  0.00  0.00    +0.072 C 
ATOM     17  C   UNL     1     -14.645   7.369  71.734  0.00  0.00    +0.019 C 
ENDBRANCH  13  16
ENDBRANCH  12  13
ENDBRANCH  11  12
ENDBRANCH  10  11
ENDBRANCH   4  10
ENDBRANCH   1   7
BRANCH   2  18
ATOM     18  C   UNL     1      -9.277  16.323  66.971  0.00  0.00    +0.011 A 
ATOM     19  C   UNL     1      -7.981  16.054  66.620  0.00  0.00    +0.001 A 
ATOM     20  C   UNL     1      -6.923  16.884  66.969  0.00  0.00    +0.000 A 
ATOM     21  C   UNL     1      -7.183  18.119  67.549  0.00  0.00    +0.000 A 
ATOM     22  C   UNL     1      -8.404  18.220  68.203  0.00  0.00    +0.000 A 
ATOM     23  C   UNL     1      -9.458  17.385  67.852  0.00  0.00    +0.001 A 
ENDBRANCH   2  18
BRANCH   1  24
ATOM     24  C   UNL     1     -11.285  13.810  65.172  0.00  0.00    +0.001 A 
ATOM     25  C   UNL     1     -10.304  13.128  64.462  0.00  0.00    +0.000 A 
ATOM     26  C   UNL     1     -10.702  12.213  63.499  0.00  0.00    +0.000 A 
ATOM     27  C   UNL     1     -12.001  11.772  63.386  0.00  0.00    +0.000 A 
ATOM     28  C   UNL     1     -12.934  12.276  64.252  0.00  0.00    +0.000 A 
ATOM     29  C   UNL     1     -12.552  13.245  65.155  0.00  0.00    +0.000 A 
ENDBRANCH   1  24
TORSDOF 9
ENDMDL
MODEL 5
REMARK VINA RESULT:      -5.7      4.040      8.274
REMARK  Name = 
REMARK  9 active torsions:
REMARK  status: ('A' for Active; 'I' for Inactive)
REMARK    1  A    between atoms: C_2  and  N_3
REMARK    2  A    between atoms: N_3  and  C_4
REMARK    3  A    between atoms: N_3  and  C_6
REMARK    4  A    between atoms: C_6  and  C_7
REMARK    5  A    between atoms: C_7  and  O_8
REMARK    6  A    between atoms: O_8  and  C_9
REMARK    7  A    between atoms: C_12  and  C_13
REMARK    8  A    between atoms: C_13  and  C_22
REMARK    9  A    between atoms: C_14  and  C_16
REMARK                            x       y       z     vdW  Elec       q    Type
REMARK                         _______ _______ _______ _____ _____    ______ ____
ROOT
ATOM      1  C   UNL     1     -11.369  14.154  69.504  0.00  0.00    +0.011 C 
ATOM      2  C   UNL     1     -11.020  15.080  68.611  0.00  0.00    +0.058 C 
ATOM      3 CL   UNL     1     -10.639  16.662  69.239  0.00  0.00    -0.082 Cl
ENDROOT
BRANCH   1   7
ATOM      4  C   UNL     1     -10.450  10.127  69.306  0.00  0.00    +0.139 A 
ATOM      5  C   UNL     1      -9.708  11.007  68.530  0.00  0.00    +0.037 A 
ATOM      6  C   UNL     1      -9.951  12.355  68.761  0.00  0.00    +0.003 A 
ATOM      7  C   UNL     1     -11.248  12.764  69.046  0.00  0.00    +0.001 A 
ATOM      8  C   UNL     1     -12.005  11.841  69.759  0.00  0.00    +0.003 A 
ATOM      9  C   UNL     1     -11.727  10.479  69.714  0.00  0.00    +0.037 A 
BRANCH   4  10
ATOM     10  O   UNL     1      -9.975   8.833  69.504  0.00  0.00    -0.474 OA
BRANCH  10  11
ATOM     11  C   UNL     1     -10.349   8.135  70.686  0.00  0.00    +0.223 C 
BRANCH  11  12
ATOM     12  C   UNL     1     -11.175   6.904  70.337  0.00  0.00    +0.120 C 
BRANCH  12  13
ATOM     13  N   UNL     1     -12.000   6.623  71.506  0.00  0.00    -0.270 NA
BRANCH  13  15
ATOM     14  C   UNL     1     -14.313   7.412  71.522  0.00  0.00    +0.019 C 
ATOM     15  C   UNL     1     -12.856   7.765  71.772  0.00  0.00    +0.072 C 
ENDBRANCH  13  15
BRANCH  13  16
ATOM     16  C   UNL     1     -11.164   6.447  72.679  0.00  0.00    +0.072 C 
ATOM     17  C   UNL     1     -11.256   4.978  73.073  0.00  0.00    +0.019 C 
ENDBRANCH  13  16
ENDBRANCH  12  13
ENDBRANCH  11  12
ENDBRANCH  10  11
ENDBRANCH   4  10
ENDBRANCH   1   7
BRANCH   2  18
ATOM     18  C   UNL     1     -11.258  14.911  67.175  0.00  0.00    +0.011 A 
ATOM     19  C   UNL     1     -10.276  15.024  66.228  0.00  0.00    +0.001 A 
ATOM     20  C   UNL     1     -10.331  14.361  65.008  0.00  0.00    +0.000 A 
ATOM     21  C   UNL     1     -11.323  13.413  64.788  0.00  0.00    +0.000 A 
ATOM     22  C   UNL     1     -12.466  13.564  65.562  0.00  0.00    +0.000 A 
ATOM     23  C   UNL     1     -12.406  14.232  66.779  0.00  0.00    +0.001 A 
ENDBRANCH   2  18
BRANCH   1  24
ATOM     24  C   UNL     1     -12.070  14.502  70.748  0.00  0.00    +0.001 A 
ATOM     25  C   UNL     1     -11.386  15.061  71.821  0.00  0.00    +0.000 A 
ATOM     26  C   UNL     1     -12.122  15.547  72.891  0.00  0.00    +0.000 A 
ATOM     27  C   UNL     1     -13.486  15.726  72.833  0.00  0.00    +0.000 A 
ATOM     28  C   UNL     1     -14.135  15.391  71.675  0.00  0.00    +0.000 A 
ATOM     29  C   UNL     1     -13.413  14.833  70.642  0.00  0.00    +0.000 A 
ENDBRANCH   1  24
TORSDOF 9
ENDMDL
MODEL 6
REMARK VINA RESULT:      -5.7      4.826      9.459
REMARK  Name = 
REMARK  9 active torsions:
REMARK  status: ('A' for Active; 'I' for Inactive)
REMARK    1  A    between atoms: C_2  and  N_3
REMARK    2  A    between atoms: N_3  and  C_4
REMARK    3  A    between atoms: N_3  and  C_6
REMARK    4  A    between atoms: C_6  and  C_7
REMARK    5  A    between atoms: C_7  and  O_8
REMARK    6  A    between atoms: O_8  and  C_9
REMARK    7  A    between atoms: C_12  and  C_13
REMARK    8  A    between atoms: C_13  and  C_22
REMARK    9  A    between atoms: C_14  and  C_16
REMARK                            x       y       z     vdW  Elec       q    Type
REMARK                         _______ _______ _______ _____ _____    ______ ____
ROOT
ATOM      1  C   UNL     1      -6.244  18.777  68.184  0.00  0.00    +0.011 C 
ATOM      2  C   UNL     1      -5.427  18.797  67.132  0.00  0.00    +0.058 C 
ATOM      3 CL   UNL     1      -3.717  18.802  67.475  0.00  0.00    -0.082 Cl
ENDROOT
BRANCH   1   7
ATOM      4  C   UNL     1     -10.088  17.314  68.623  0.00  0.00    +0.139 A 
ATOM      5  C   UNL     1      -9.132  16.484  68.054  0.00  0.00    +0.037 A 
ATOM      6  C   UNL     1      -7.830  16.967  68.084  0.00  0.00    +0.003 A 
ATOM      7  C   UNL     1      -7.615  18.328  67.905  0.00  0.00    +0.001 A 
ATOM      8  C   UNL     1      -8.618  19.146  68.414  0.00  0.00    +0.003 A 
ATOM      9  C   UNL     1      -9.922  18.690  68.571  0.00  0.00    +0.037 A 
BRANCH   4  10
ATOM     10  O   UNL     1     -11.287  16.762  69.068  0.00  0.00    -0.474 OA
BRANCH  10  11
ATOM     11  C   UNL     1     -11.357  16.248  70.392  0.00  0.00    +0.223 C 
BRANCH  11  12
ATOM     12  C   UNL     1     -12.279  15.036  70.442  0.00  0.00    +0.120 C 
BRANCH  12  13
ATOM     13  N   UNL     1     -12.415  14.685  71.851  0.00  0.00    -0.270 NA
BRANCH  13  15
ATOM     14  C   UNL     1     -14.812  15.035  71.529  0.00  0.00    +0.019 C 
ATOM     15  C   UNL     1     -13.732  14.117  72.077  0.00  0.00    +0.072 C 
ENDBRANCH  13  15
BRANCH  13  16
ATOM     16  C   UNL     1     -12.328  15.877  72.674  0.00  0.00    +0.072 C 
ATOM     17  C   UNL     1     -12.393  15.419  74.126  0.00  0.00    +0.019 C 
ENDBRANCH  13  16
ENDBRANCH  12  13
ENDBRANCH  11  12
ENDBRANCH  10  11
ENDBRANCH   4  10
ENDBRANCH   1   7
BRANCH   2  18
ATOM     18  C   UNL     1      -5.894  19.135  65.784  0.00  0.00    +0.011 A 
ATOM     19  C   UNL     1      -6.430  20.351  65.453  0.00  0.00    +0.001 A 
ATOM     20  C   UNL     1      -6.362  20.874  64.168  0.00  0.00    +0.000 A 
ATOM     21  C   UNL     1      -5.583  20.239  63.209  0.00  0.00    +0.000 A 
ATOM     22  C   UNL     1      -5.356  18.887  63.434  0.00  0.00    +0.000 A 
ATOM     23  C   UNL     1      -5.430  18.368  64.721  0.00  0.00    +0.001 A 
ENDBRANCH   2  18
BRANCH   1  24
ATOM     24  C   UNL     1      -5.880  19.406  69.461  0.00  0.00    +0.001 A 
ATOM     25  C   UNL     1      -5.544  18.635  70.568  0.00  0.00    +0.000 A 
ATOM     26  C   UNL     1      -5.024  19.274  71.683  0.00  0.00    +0.000 A 
ATOM     27  C   UNL     1      -4.598  20.582  71.658  0.00  0.00    +0.000 A 
ATOM     28  C   UNL     1      -4.714  21.279  70.484  0.00  0.00    +0.000 A 
ATOM     29  C   UNL     1      -5.305  20.667  69.400  0.00  0.00    +0.000 A 
ENDBRANCH   1  24
TORSDOF 9
ENDMDL
MODEL 7
REMARK VINA RESULT:      -5.6      3.217      7.709
REMARK  Name = 
REMARK  9 active torsions:
REMARK  status: ('A' for Active; 'I' for Inactive)
REMARK    1  A    between atoms: C_2  and  N_3
REMARK    2  A    between atoms: N_3  and  C_4
REMARK    3  A    between atoms: N_3  and  C_6
REMARK    4  A    between atoms: C_6  and  C_7
REMARK    5  A    between atoms: C_7  and  O_8
REMARK    6  A    between atoms: O_8  and  C_9
REMARK    7  A    between atoms: C_12  and  C_13
REMARK    8  A    between atoms: C_13  and  C_22
REMARK    9  A    between atoms: C_14  and  C_16
REMARK                            x       y       z     vdW  Elec       q    Type
REMARK                         _______ _______ _______ _____ _____    ______ ____
ROOT
ATOM      1  C   UNL     1     -10.270  15.890  67.426  0.00  0.00    +0.011 C 
ATOM      2  C   UNL     1      -9.622  15.487  66.333  0.00  0.00    +0.058 C 
ATOM      3 CL   UNL     1      -8.180  16.373  65.913  0.00  0.00    -0.082 Cl
ENDROOT
BRANCH   1   7
ATOM      4  C   UNL     1     -12.036  13.195  70.018  0.00  0.00    +0.139 A 
ATOM      5  C   UNL     1     -11.346  12.694  68.923  0.00  0.00    +0.037 A 
ATOM      6  C   UNL     1     -10.639  13.634  68.184  0.00  0.00    +0.003 A 
ATOM      7  C   UNL     1     -11.183  14.901  68.013  0.00  0.00    +0.001 A 
ATOM      8  C   UNL     1     -11.935  15.360  69.089  0.00  0.00    +0.003 A 
ATOM      9  C   UNL     1     -12.546  14.483  69.979  0.00  0.00    +0.037 A 
BRANCH   4  10
ATOM     10  O   UNL     1     -12.366  12.334  71.062  0.00  0.00    -0.474 OA
BRANCH  10  11
ATOM     11  C   UNL     1     -12.803  11.016  70.755  0.00  0.00    +0.223 C 
BRANCH  11  12
ATOM     12  C   UNL     1     -11.912   9.988  71.442  0.00  0.00    +0.120 C 
BRANCH  12  13
ATOM     13  N   UNL     1     -12.665   8.739  71.451  0.00  0.00    -0.270 NA
BRANCH  13  15
ATOM     14  C   UNL     1     -14.894   7.841  71.896  0.00  0.00    +0.019 C 
ATOM     15  C   UNL     1     -13.875   8.916  72.234  0.00  0.00    +0.072 C 
ENDBRANCH  13  15
BRANCH  13  16
ATOM     16  C   UNL     1     -11.896   7.696  72.104  0.00  0.00    +0.072 C 
ATOM     17  C   UNL     1     -10.510   8.269  72.375  0.00  0.00    +0.019 C 
ENDBRANCH  13  16
ENDBRANCH  12  13
ENDBRANCH  11  12
ENDBRANCH  10  11
ENDBRANCH   4  10
ENDBRANCH   1   7
BRANCH   2  18
ATOM     18  C   UNL     1     -10.232  14.591  65.347  0.00  0.00    +0.011 A 
ATOM     19  C   UNL     1      -9.864  13.282  65.187  0.00  0.00    +0.001 A 
ATOM     20  C   UNL     1     -10.734  12.313  64.702  0.00  0.00    +0.000 A 
ATOM     21  C   UNL     1     -12.077  12.624  64.527  0.00  0.00    +0.000 A 
ATOM     22  C   UNL     1     -12.352  13.974  64.348  0.00  0.00    +0.000 A 
ATOM     23  C   UNL     1     -11.476  14.938  64.831  0.00  0.00    +0.001 A 
ENDBRANCH   2  18
BRANCH   1  24
ATOM     24  C   UNL     1     -10.272  17.296  67.851  0.00  0.00    +0.001 A 
ATOM     25  C   UNL     1      -9.315  17.777  68.737  0.00  0.00    +0.000 A 
ATOM     26  C   UNL     1      -9.245  19.145  68.953  0.00  0.00    +0.000 A 
ATOM     27  C   UNL     1      -9.901  20.057  68.158  0.00  0.00    +0.000 A 
ATOM     28  C   UNL     1     -10.667  19.584  67.126  0.00  0.00    +0.000 A 
ATOM     29  C   UNL     1     -10.800  18.222  66.962  0.00  0.00    +0.000 A 
ENDBRANCH   1  24
TORSDOF 9
ENDMDL
MODEL 8
REMARK VINA RESULT:      -5.6      2.980      6.090
REMARK  Name = 
REMARK  9 active torsions:
REMARK  status: ('A' for Active; 'I' for Inactive)
REMARK    1  A    between atoms: C_2  and  N_3
REMARK    2  A    between atoms: N_3  and  C_4
REMARK    3  A    between atoms: N_3  and  C_6
REMARK    4  A    between atoms: C_6  and  C_7
REMARK    5  A    between atoms: C_7  and  O_8
REMARK    6  A    between atoms: O_8  and  C_9
REMARK    7  A    between atoms: C_12  and  C_13
REMARK    8  A    between atoms: C_13  and  C_22
REMARK    9  A    between atoms: C_14  and  C_16
REMARK                            x       y       z     vdW  Elec       q    Type
REMARK                         _______ _______ _______ _____ _____    ______ ____
ROOT
ATOM      1  C   UNL     1     -10.383  10.174  67.731  0.00  0.00    +0.011 C 
ATOM      2  C   UNL     1     -10.226   9.482  66.603  0.00  0.00    +0.058 C 
ATOM      3 CL   UNL     1     -10.673   7.797  66.656  0.00  0.00    -0.082 Cl
ENDROOT
BRANCH   1   7
ATOM      4  C   UNL     1     -10.783  14.220  68.489  0.00  0.00    +0.139 A 
ATOM      5  C   UNL     1     -11.818  13.572  67.828  0.00  0.00    +0.037 A 
ATOM      6  C   UNL     1     -11.701  12.190  67.748  0.00  0.00    +0.003 A 
ATOM      7  C   UNL     1     -10.440  11.632  67.568  0.00  0.00    +0.001 A 
ATOM      8  C   UNL     1      -9.403  12.334  68.174  0.00  0.00    +0.003 A 
ATOM      9  C   UNL     1      -9.501  13.695  68.441  0.00  0.00    +0.037 A 
BRANCH   4  10
ATOM     10  O   UNL     1     -11.012  15.482  69.032  0.00  0.00    -0.474 OA
BRANCH  10  11
ATOM     11  C   UNL     1     -12.103  15.659  69.927  0.00  0.00    +0.223 C 
BRANCH  11  12
ATOM     12  C   UNL     1     -11.646  15.460  71.366  0.00  0.00    +0.120 C 
BRANCH  12  13
ATOM     13  N   UNL     1     -12.847  15.547  72.190  0.00  0.00    -0.270 NA
BRANCH  13  15
ATOM     14  C   UNL     1     -12.463  16.151  74.527  0.00  0.00    +0.019 C 
ATOM     15  C   UNL     1     -12.557  15.023  73.513  0.00  0.00    +0.072 C 
ENDBRANCH  13  15
BRANCH  13  16
ATOM     16  C   UNL     1     -13.897  14.715  71.634  0.00  0.00    +0.072 C 
ATOM     17  C   UNL     1     -13.728  13.325  72.233  0.00  0.00    +0.019 C 
ENDBRANCH  13  16
ENDBRANCH  12  13
ENDBRANCH  11  12
ENDBRANCH  10  11
ENDBRANCH   4  10
ENDBRANCH   1   7
BRANCH   2  18
ATOM     18  C   UNL     1      -9.423   9.981  65.483  0.00  0.00    +0.011 A 
ATOM     19  C   UNL     1      -8.072   9.785  65.376  0.00  0.00    +0.001 A 
ATOM     20  C   UNL     1      -7.415   9.745  64.153  0.00  0.00    +0.000 A 
ATOM     21  C   UNL     1      -8.157   9.731  62.977  0.00  0.00    +0.000 A 
ATOM     22  C   UNL     1      -9.432  10.273  63.077  0.00  0.00    +0.000 A 
ATOM     23  C   UNL     1     -10.082  10.315  64.305  0.00  0.00    +0.001 A 
ENDBRANCH   2  18
BRANCH   1  24
ATOM     24  C   UNL     1     -10.241   9.546  69.051  0.00  0.00    +0.001 A 
ATOM     25  C   UNL     1      -8.988   9.227  69.560  0.00  0.00    +0.000 A 
ATOM     26  C   UNL     1      -8.897   8.818  70.882  0.00  0.00    +0.000 A 
ATOM     27  C   UNL     1      -9.939   8.949  71.773  0.00  0.00    +0.000 A 
ATOM     28  C   UNL     1     -11.114   9.490  71.321  0.00  0.00    +0.000 A 
ATOM     29  C   UNL     1     -11.227   9.821  69.988  0.00  0.00    +0.000 A 
ENDBRANCH   1  24
TORSDOF 9
ENDMDL
MODEL 9
REMARK VINA RESULT:      -5.6      3.413      7.222
REMARK  Name = 
REMARK  9 active torsions:
REMARK  status: ('A' for Active; 'I' for Inactive)
REMARK    1  A    between atoms: C_2  and  N_3
REMARK    2  A    between atoms: N_3  and  C_4
REMARK    3  A    between atoms: N_3  and  C_6
REMARK    4  A    between atoms: C_6  and  C_7
REMARK    5  A    between atoms: C_7  and  O_8
REMARK    6  A    between atoms: O_8  and  C_9
REMARK    7  A    between atoms: C_12  and  C_13
REMARK    8  A    between atoms: C_13  and  C_22
REMARK    9  A    between atoms: C_14  and  C_16
REMARK                            x       y       z     vdW  Elec       q    Type
REMARK                         _______ _______ _______ _____ _____    ______ ____
ROOT
ATOM      1  C   UNL     1      -7.853  15.882  67.377  0.00  0.00    +0.011 C 
ATOM      2  C   UNL     1      -7.228  17.049  67.225  0.00  0.00    +0.058 C 
ATOM      3 CL   UNL     1      -5.484  17.005  67.245  0.00  0.00    -0.082 Cl
ENDROOT
BRANCH   1   7
ATOM      4  C   UNL     1     -11.568  14.584  66.104  0.00  0.00    +0.139 A 
ATOM      5  C   UNL     1     -10.714  15.146  65.165  0.00  0.00    +0.037 A 
ATOM      6  C   UNL     1      -9.426  15.411  65.615  0.00  0.00    +0.003 A 
ATOM      7  C   UNL     1      -9.249  15.855  66.920  0.00  0.00    +0.001 A 
ATOM      8  C   UNL     1     -10.159  15.341  67.837  0.00  0.00    +0.003 A 
ATOM      9  C   UNL     1     -11.418  14.898  67.446  0.00  0.00    +0.037 A 
BRANCH   4  10
ATOM     10  O   UNL     1     -12.676  13.862  65.665  0.00  0.00    -0.474 OA
BRANCH  10  11
ATOM     11  C   UNL     1     -12.469  12.639  64.970  0.00  0.00    +0.223 C 
BRANCH  11  12
ATOM     12  C   UNL     1     -11.665  11.671  65.829  0.00  0.00    +0.120 C 
BRANCH  12  13
ATOM     13  N   UNL     1     -10.603  11.152  64.973  0.00  0.00    -0.270 NA
BRANCH  13  15
ATOM     14  C   UNL     1      -9.379  11.668  67.023  0.00  0.00    +0.019 C 
ATOM     15  C   UNL     1      -9.317  11.557  65.509  0.00  0.00    +0.072 C 
ENDBRANCH  13  15
BRANCH  13  16
ATOM     16  C   UNL     1     -10.703  11.730  63.646  0.00  0.00    +0.072 C 
ATOM     17  C   UNL     1      -9.482  11.262  62.865  0.00  0.00    +0.019 C 
ENDBRANCH  13  16
ENDBRANCH  12  13
ENDBRANCH  11  12
ENDBRANCH  10  11
ENDBRANCH   4  10
ENDBRANCH   1   7
BRANCH   2  18
ATOM     18  C   UNL     1      -7.920  18.333  67.370  0.00  0.00    +0.011 A 
ATOM     19  C   UNL     1      -8.426  19.042  66.313  0.00  0.00    +0.001 A 
ATOM     20  C   UNL     1      -9.504  19.908  66.440  0.00  0.00    +0.000 A 
ATOM     21  C   UNL     1     -10.217  19.945  67.632  0.00  0.00    +0.000 A 
ATOM     22  C   UNL     1      -9.514  19.524  68.753  0.00  0.00    +0.000 A 
ATOM     23  C   UNL     1      -8.433  18.661  68.620  0.00  0.00    +0.001 A 
ENDBRANCH   2  18
BRANCH   1  24
ATOM     24  C   UNL     1      -7.280  14.794  68.180  0.00  0.00    +0.001 A 
ATOM     25  C   UNL     1      -6.552  13.771  67.582  0.00  0.00    +0.000 A 
ATOM     26  C   UNL     1      -5.873  12.881  68.400  0.00  0.00    +0.000 A 
ATOM     27  C   UNL     1      -5.683  13.104  69.745  0.00  0.00    +0.000 A 
ATOM     28  C   UNL     1      -6.207  14.245  70.292  0.00  0.00    +0.000 A 
ATOM     29  C   UNL     1      -6.950  15.088  69.495  0.00  0.00    +0.000 A 
ENDBRANCH   1  24
TORSDOF 9
ENDMDL
