MODEL 1
REMARK VINA RESULT:      -6.7      0.000      0.000
REMARK  Name = 
REMARK  7 active torsions:
REMARK  status: ('A' for Active; 'I' for Inactive)
REMARK    1  A    between atoms: C_2  and  C_3
REMARK    2  A    between atoms: C_2  and  N_12
REMARK    3  A    between atoms: C_3  and  C_4
REMARK    4  A    between atoms: C_4  and  C_5
REMARK    5  A    between atoms: N_12  and  C_13
REMARK    6  A    between atoms: C_13  and  C_14
REMARK    7  A    between atoms: C_14  and  C_15
REMARK                            x       y       z     vdW  Elec       q    Type
REMARK                         _______ _______ _______ _____ _____    ______ ____
ROOT
ATOM      1  C   UNL     1     -11.913  12.780  65.997  0.00  0.00    +0.019 C 
ATOM      2  C   UNL     1     -11.050  12.667  67.398  0.00  0.00    +0.073 C 
ENDROOT
BRANCH   2   3
ATOM      3  N   UNL     1     -11.897  11.424  67.888  0.00  0.00    -0.219 NA
BRANCH   3   4
ATOM      4  C   UNL     1     -10.943  10.369  68.089  0.00  0.00    +0.093 C 
BRANCH   4   5
ATOM      5  C   UNL     1     -10.446  10.239  69.493  0.00  0.00    +0.045 C 
BRANCH   5   6
ATOM      6  C   UNL     1     -11.446   9.759  70.454  0.00  0.00    -0.017 A 
ATOM      7  C   UNL     1     -11.547   8.482  70.933  0.00  0.00    +0.041 A 
ATOM      8  C   UNL     1     -12.759   8.059  71.463  0.00  0.00    +0.234 A 
ATOM      9  O   UNL     1     -13.184   6.747  71.399  0.00  0.00    -0.283 OA
ATOM     10  C   UNL     1     -13.551   9.000  72.108  0.00  0.00    +0.234 A 
ATOM     11  O   UNL     1     -14.632   8.559  72.865  0.00  0.00    -0.283 OA
ATOM     12  C   UNL     1     -13.333  10.322  71.827  0.00  0.00    +0.045 A 
ATOM     13  C   UNL     1     -12.291  10.705  71.023  0.00  0.00    -0.001 A 
ENDBRANCH   5   6
ENDBRANCH   4   5
ENDBRANCH   3   4
ENDBRANCH   2   3
BRANCH   2  14
ATOM     14  C   UNL     1     -12.049  13.729  68.169  0.00  0.00    +0.022 C 
BRANCH  14  15
ATOM     15  C   UNL     1     -11.401  13.792  69.538  0.00  0.00    +0.028 C 
BRANCH  15  16
ATOM     16  C   UNL     1     -12.189  14.659  70.470  0.00  0.00    -0.022 A 
ATOM     17  C   UNL     1     -11.728  15.905  70.873  0.00  0.00    -0.001 A 
ATOM     18  C   UNL     1     -11.874  16.308  72.186  0.00  0.00    +0.042 A 
ATOM     19  C   UNL     1     -12.716  15.645  73.062  0.00  0.00    +0.196 A 
ATOM     20  O   UNL     1     -12.864  16.058  74.389  0.00  0.00    -0.287 OA
ATOM     21  C   UNL     1     -13.382  14.539  72.561  0.00  0.00    +0.042 A 
ATOM     22  C   UNL     1     -13.070  14.038  71.327  0.00  0.00    -0.001 A 
ENDBRANCH  15  16
ENDBRANCH  14  15
ENDBRANCH   2  14
TORSDOF 7
ENDMDL
MODEL 2
REMARK VINA RESULT:      -6.6      1.107      5.617
REMARK  Name = 
REMARK  7 active torsions:
REMARK  status: ('A' for Active; 'I' for Inactive)
REMARK    1  A    between atoms: C_2  and  C_3
REMARK    2  A    between atoms: C_2  and  N_12
REMARK    3  A    between atoms: C_3  and  C_4
REMARK    4  A    between atoms: C_4  and  C_5
REMARK    5  A    between atoms: N_12  and  C_13
REMARK    6  A    between atoms: C_13  and  C_14
REMARK    7  A    between atoms: C_14  and  C_15
REMARK                            x       y       z     vdW  Elec       q    Type
REMARK                         _______ _______ _______ _____ _____    ______ ____
ROOT
ATOM      1  C   UNL     1      -9.555  11.843  68.315  0.00  0.00    +0.019 C 
ATOM      2  C   UNL     1     -10.726  11.187  67.357  0.00  0.00    +0.073 C 
ENDROOT
BRANCH   2   3
ATOM      3  N   UNL     1     -11.402  12.597  67.118  0.00  0.00    -0.219 NA
BRANCH   3   4
ATOM      4  C   UNL     1     -10.873  13.451  68.144  0.00  0.00    +0.093 C 
BRANCH   4   5
ATOM      5  C   UNL     1     -11.768  14.584  68.533  0.00  0.00    +0.045 C 
BRANCH   5   6
ATOM      6  C   UNL     1     -11.991  14.719  69.978  0.00  0.00    -0.017 A 
ATOM      7  C   UNL     1     -12.486  13.748  70.805  0.00  0.00    +0.041 A 
ATOM      8  C   UNL     1     -13.056  14.126  72.014  0.00  0.00    +0.234 A 
ATOM      9  O   UNL     1     -14.080  13.416  72.610  0.00  0.00    -0.283 OA
ATOM     10  C   UNL     1     -12.545  15.247  72.653  0.00  0.00    +0.234 A 
ATOM     11  O   UNL     1     -12.915  15.493  73.971  0.00  0.00    -0.283 OA
ATOM     12  C   UNL     1     -11.840  16.148  71.900  0.00  0.00    +0.045 A 
ATOM     13  C   UNL     1     -11.553  15.890  70.585  0.00  0.00    -0.001 A 
ENDBRANCH   5   6
ENDBRANCH   4   5
ENDBRANCH   3   4
ENDBRANCH   2   3
BRANCH   2  14
ATOM     14  C   UNL     1     -11.695  10.873  68.655  0.00  0.00    +0.022 C 
BRANCH  14  15
ATOM     15  C   UNL     1     -10.834   9.891  69.426  0.00  0.00    +0.028 C 
BRANCH  15  16
ATOM     16  C   UNL     1     -11.532   9.412  70.660  0.00  0.00    -0.022 A 
ATOM     17  C   UNL     1     -11.754   8.061  70.895  0.00  0.00    -0.001 A 
ATOM     18  C   UNL     1     -12.962   7.636  71.414  0.00  0.00    +0.042 A 
ATOM     19  C   UNL     1     -13.862   8.521  71.981  0.00  0.00    +0.196 A 
ATOM     20  O   UNL     1     -15.081   8.087  72.509  0.00  0.00    -0.287 OA
ATOM     21  C   UNL     1     -13.502   9.858  71.975  0.00  0.00    +0.042 A 
ATOM     22  C   UNL     1     -12.403  10.280  71.277  0.00  0.00    -0.001 A 
ENDBRANCH  15  16
ENDBRANCH  14  15
ENDBRANCH   2  14
TORSDOF 7
ENDMDL
MODEL 3
REMARK VINA RESULT:      -6.6      3.641      7.043
REMARK  Name = 
REMARK  7 active torsions:
REMARK  status: ('A' for Active; 'I' for Inactive)
REMARK    1  A    between atoms: C_2  and  C_3
REMARK    2  A    between atoms: C_2  and  N_12
REMARK    3  A    between atoms: C_3  and  C_4
REMARK    4  A    between atoms: C_4  and  C_5
REMARK    5  A    between atoms: N_12  and  C_13
REMARK    6  A    between atoms: C_13  and  C_14
REMARK    7  A    between atoms: C_14  and  C_15
REMARK                            x       y       z     vdW  Elec       q    Type
REMARK                         _______ _______ _______ _____ _____    ______ ____
ROOT
ATOM      1  C   UNL     1     -14.387  15.234  71.690  0.00  0.00    +0.019 C 
ATOM      2  C   UNL     1     -12.954  14.891  72.431  0.00  0.00    +0.073 C 
ENDROOT
BRANCH   2   3
ATOM      3  N   UNL     1     -12.181  15.965  71.564  0.00  0.00    -0.219 NA
BRANCH   3   4
ATOM      4  C   UNL     1     -12.291  15.508  70.206  0.00  0.00    +0.093 C 
BRANCH   4   5
ATOM      5  C   UNL     1     -11.351  16.169  69.250  0.00  0.00    +0.045 C 
BRANCH   5   6
ATOM      6  C   UNL     1     -11.284  15.540  67.925  0.00  0.00    -0.017 A 
ATOM      7  C   UNL     1     -10.633  16.043  66.833  0.00  0.00    +0.041 A 
ATOM      8  C   UNL     1     -11.007  15.604  65.569  0.00  0.00    +0.234 A 
ATOM      9  O   UNL     1     -10.916  16.401  64.445  0.00  0.00    -0.283 OA
ATOM     10  C   UNL     1     -11.460  14.298  65.441  0.00  0.00    +0.234 A 
ATOM     11  O   UNL     1     -11.592  13.757  64.166  0.00  0.00    -0.283 OA
ATOM     12  C   UNL     1     -11.918  13.666  66.566  0.00  0.00    +0.045 A 
ATOM     13  C   UNL     1     -11.825  14.265  67.795  0.00  0.00    -0.001 A 
ENDBRANCH   5   6
ENDBRANCH   4   5
ENDBRANCH   3   4
ENDBRANCH   2   3
BRANCH   2  14
ATOM     14  C   UNL     1     -12.617  13.688  71.354  0.00  0.00    +0.022 C 
BRANCH  14  15
ATOM     15  C   UNL     1     -13.303  12.509  72.015  0.00  0.00    +0.028 C 
BRANCH  15  16
ATOM     16  C   UNL     1     -12.956  11.225  71.327  0.00  0.00    -0.022 A 
ATOM     17  C   UNL     1     -13.157   9.993  71.936  0.00  0.00    -0.001 A 
ATOM     18  C   UNL     1     -12.206   8.998  71.819  0.00  0.00    +0.042 A 
ATOM     19  C   UNL     1     -11.189   9.070  70.882  0.00  0.00    +0.196 A 
ATOM     20  O   UNL     1     -10.232   8.058  70.763  0.00  0.00    -0.287 OA
ATOM     21  C   UNL     1     -11.158  10.205  70.089  0.00  0.00    +0.042 A 
ATOM     22  C   UNL     1     -11.980  11.265  70.359  0.00  0.00    -0.001 A 
ENDBRANCH  15  16
ENDBRANCH  14  15
ENDBRANCH   2  14
TORSDOF 7
ENDMDL
MODEL 4
REMARK VINA RESULT:      -6.6      3.500      5.812
REMARK  Name = 
REMARK  7 active torsions:
REMARK  status: ('A' for Active; 'I' for Inactive)
REMARK    1  A    between atoms: C_2  and  C_3
REMARK    2  A    between atoms: C_2  and  N_12
REMARK    3  A    between atoms: C_3  and  C_4
REMARK    4  A    between atoms: C_4  and  C_5
REMARK    5  A    between atoms: N_12  and  C_13
REMARK    6  A    between atoms: C_13  and  C_14
REMARK    7  A    between atoms: C_14  and  C_15
REMARK                            x       y       z     vdW  Elec       q    Type
REMARK                         _______ _______ _______ _____ _____    ______ ____
ROOT
ATOM      1  C   UNL     1     -10.333  10.438  69.804  0.00  0.00    +0.019 C 
ATOM      2  C   UNL     1     -11.902  10.447  69.295  0.00  0.00    +0.073 C 
ENDROOT
BRANCH   2   3
ATOM      3  N   UNL     1     -11.644  11.674  68.331  0.00  0.00    -0.219 NA
BRANCH   3   4
ATOM      4  C   UNL     1     -11.145  11.102  67.112  0.00  0.00    +0.093 C 
BRANCH   4   5
ATOM      5  C   UNL     1     -10.062  11.892  66.450  0.00  0.00    +0.045 C 
BRANCH   5   6
ATOM      6  C   UNL     1     -10.470  13.225  65.992  0.00  0.00    -0.017 A 
ATOM      7  C   UNL     1     -11.685  13.548  65.453  0.00  0.00    +0.041 A 
ATOM      8  C   UNL     1     -11.787  14.692  64.670  0.00  0.00    +0.234 A 
ATOM      9  O   UNL     1     -12.683  14.803  63.625  0.00  0.00    -0.283 OA
ATOM     10  C   UNL     1     -10.971  15.770  64.983  0.00  0.00    +0.234 A 
ATOM     11  O   UNL     1     -11.232  17.001  64.391  0.00  0.00    -0.283 OA
ATOM     12  C   UNL     1      -9.845  15.527  65.725  0.00  0.00    +0.045 A 
ATOM     13  C   UNL     1      -9.597  14.279  66.235  0.00  0.00    -0.001 A 
ENDBRANCH   5   6
ENDBRANCH   4   5
ENDBRANCH   3   4
ENDBRANCH   2   3
BRANCH   2  14
ATOM     14  C   UNL     1     -12.360  11.437  70.533  0.00  0.00    +0.022 C 
BRANCH  14  15
ATOM     15  C   UNL     1     -11.799  12.765  70.062  0.00  0.00    +0.028 C 
BRANCH  15  16
ATOM     16  C   UNL     1     -12.481  13.912  70.741  0.00  0.00    -0.022 A 
ATOM     17  C   UNL     1     -11.979  15.205  70.668  0.00  0.00    -0.001 A 
ATOM     18  C   UNL     1     -11.980  16.013  71.789  0.00  0.00    +0.042 A 
ATOM     19  C   UNL     1     -12.720  15.696  72.915  0.00  0.00    +0.196 A 
ATOM     20  O   UNL     1     -12.722  16.519  74.045  0.00  0.00    -0.287 OA
ATOM     21  C   UNL     1     -13.436  14.512  72.870  0.00  0.00    +0.042 A 
ATOM     22  C   UNL     1     -13.261  13.630  71.838  0.00  0.00    -0.001 A 
ENDBRANCH  15  16
ENDBRANCH  14  15
ENDBRANCH   2  14
TORSDOF 7
ENDMDL
MODEL 5
REMARK VINA RESULT:      -6.5      3.445      5.959
REMARK  Name = 
REMARK  7 active torsions:
REMARK  status: ('A' for Active; 'I' for Inactive)
REMARK    1  A    between atoms: C_2  and  C_3
REMARK    2  A    between atoms: C_2  and  N_12
REMARK    3  A    between atoms: C_3  and  C_4
REMARK    4  A    between atoms: C_4  and  C_5
REMARK    5  A    between atoms: N_12  and  C_13
REMARK    6  A    between atoms: C_13  and  C_14
REMARK    7  A    between atoms: C_14  and  C_15
REMARK                            x       y       z     vdW  Elec       q    Type
REMARK                         _______ _______ _______ _____ _____    ______ ____
ROOT
ATOM      1  C   UNL     1      -9.580  11.491  68.394  0.00  0.00    +0.019 C 
ATOM      2  C   UNL     1     -11.054  11.796  69.071  0.00  0.00    +0.073 C 
ENDROOT
BRANCH   2   3
ATOM      3  N   UNL     1     -11.811  11.405  67.738  0.00  0.00    -0.219 NA
BRANCH   3   4
ATOM      4  C   UNL     1     -10.778  11.162  66.770  0.00  0.00    +0.093 C 
BRANCH   4   5
ATOM      5  C   UNL     1     -11.149  11.507  65.364  0.00  0.00    +0.045 C 
BRANCH   5   6
ATOM      6  C   UNL     1     -11.086  12.938  65.047  0.00  0.00    -0.017 A 
ATOM      7  C   UNL     1      -9.961  13.717  65.086  0.00  0.00    +0.041 A 
ATOM      8  C   UNL     1     -10.104  15.094  65.204  0.00  0.00    +0.234 A 
ATOM      9  O   UNL     1      -9.175  15.888  65.846  0.00  0.00    -0.283 OA
ATOM     10  C   UNL     1     -11.217  15.685  64.620  0.00  0.00    +0.234 A 
ATOM     11  O   UNL     1     -11.252  17.071  64.499  0.00  0.00    -0.283 OA
ATOM     12  C   UNL     1     -12.299  14.889  64.352  0.00  0.00    +0.045 A 
ATOM     13  C   UNL     1     -12.238  13.534  64.548  0.00  0.00    -0.001 A 
ENDBRANCH   5   6
ENDBRANCH   4   5
ENDBRANCH   3   4
ENDBRANCH   2   3
BRANCH   2  14
ATOM     14  C   UNL     1     -10.988  13.387  68.640  0.00  0.00    +0.022 C 
BRANCH  14  15
ATOM     15  C   UNL     1     -12.281  13.902  69.241  0.00  0.00    +0.028 C 
BRANCH  15  16
ATOM     16  C   UNL     1     -12.126  14.175  70.705  0.00  0.00    -0.022 A 
ATOM     17  C   UNL     1     -13.002  13.644  71.643  0.00  0.00    -0.001 A 
ATOM     18  C   UNL     1     -13.442  14.419  72.698  0.00  0.00    +0.042 A 
ATOM     19  C   UNL     1     -12.829  15.615  73.028  0.00  0.00    +0.196 A 
ATOM     20  O   UNL     1     -13.274  16.395  74.099  0.00  0.00    -0.287 OA
ATOM     21  C   UNL     1     -11.769  16.008  72.227  0.00  0.00    +0.042 A 
ATOM     22  C   UNL     1     -11.482  15.334  71.072  0.00  0.00    -0.001 A 
ENDBRANCH  15  16
ENDBRANCH  14  15
ENDBRANCH   2  14
TORSDOF 7
ENDMDL
MODEL 6
REMARK VINA RESULT:      -6.5      3.766      6.783
REMARK  Name = 
REMARK  7 active torsions:
REMARK  status: ('A' for Active; 'I' for Inactive)
REMARK    1  A    between atoms: C_2  and  C_3
REMARK    2  A    between atoms: C_2  and  N_12
REMARK    3  A    between atoms: C_3  and  C_4
REMARK    4  A    between atoms: C_4  and  C_5
REMARK    5  A    between atoms: N_12  and  C_13
REMARK    6  A    between atoms: C_13  and  C_14
REMARK    7  A    between atoms: C_14  and  C_15
REMARK                            x       y       z     vdW  Elec       q    Type
REMARK                         _______ _______ _______ _____ _____    ______ ____
ROOT
ATOM      1  C   UNL     1     -10.123  12.597  68.260  0.00  0.00    +0.019 C 
ATOM      2  C   UNL     1     -11.587  12.673  67.505  0.00  0.00    +0.073 C 
ENDROOT
BRANCH   2   3
ATOM      3  N   UNL     1     -10.996  13.535  66.317  0.00  0.00    -0.219 NA
BRANCH   3   4
ATOM      4  C   UNL     1      -9.670  13.897  66.734  0.00  0.00    +0.093 C 
BRANCH   4   5
ATOM      5  C   UNL     1      -9.130  15.132  66.086  0.00  0.00    +0.045 C 
BRANCH   5   6
ATOM      6  C   UNL     1      -9.603  16.390  66.676  0.00  0.00    -0.017 A 
ATOM      7  C   UNL     1     -10.387  17.320  66.051  0.00  0.00    +0.041 A 
ATOM      8  C   UNL     1     -10.391  18.624  66.532  0.00  0.00    +0.234 A 
ATOM      9  O   UNL     1     -10.594  19.719  65.716  0.00  0.00    -0.283 OA
ATOM     10  C   UNL     1     -10.212  18.816  67.895  0.00  0.00    +0.234 A 
ATOM     11  O   UNL     1     -10.468  20.073  68.433  0.00  0.00    -0.283 OA
ATOM     12  C   UNL     1      -9.627  17.806  68.613  0.00  0.00    +0.045 A 
ATOM     13  C   UNL     1      -9.335  16.604  68.023  0.00  0.00    -0.001 A 
ENDBRANCH   5   6
ENDBRANCH   4   5
ENDBRANCH   3   4
ENDBRANCH   2   3
BRANCH   2  14
ATOM     14  C   UNL     1     -12.019  14.022  68.351  0.00  0.00    +0.022 C 
BRANCH  14  15
ATOM     15  C   UNL     1     -11.964  13.500  69.773  0.00  0.00    +0.028 C 
BRANCH  15  16
ATOM     16  C   UNL     1     -12.560  14.481  70.733  0.00  0.00    -0.022 A 
ATOM     17  C   UNL     1     -11.978  15.722  70.964  0.00  0.00    -0.001 A 
ATOM     18  C   UNL     1     -11.909  16.227  72.248  0.00  0.00    +0.042 A 
ATOM     19  C   UNL     1     -12.649  15.686  73.285  0.00  0.00    +0.196 A 
ATOM     20  O   UNL     1     -12.580  16.203  74.581  0.00  0.00    -0.287 OA
ATOM     21  C   UNL     1     -13.440  14.592  72.974  0.00  0.00    +0.042 A 
ATOM     22  C   UNL     1     -13.338  13.984  71.753  0.00  0.00    -0.001 A 
ENDBRANCH  15  16
ENDBRANCH  14  15
ENDBRANCH   2  14
TORSDOF 7
ENDMDL
MODEL 7
REMARK VINA RESULT:      -6.5      3.583      6.249
REMARK  Name = 
REMARK  7 active torsions:
REMARK  status: ('A' for Active; 'I' for Inactive)
REMARK    1  A    between atoms: C_2  and  C_3
REMARK    2  A    between atoms: C_2  and  N_12
REMARK    3  A    between atoms: C_3  and  C_4
REMARK    4  A    between atoms: C_4  and  C_5
REMARK    5  A    between atoms: N_12  and  C_13
REMARK    6  A    between atoms: C_13  and  C_14
REMARK    7  A    between atoms: C_14  and  C_15
REMARK                            x       y       z     vdW  Elec       q    Type
REMARK                         _______ _______ _______ _____ _____    ______ ____
ROOT
ATOM      1  C   UNL     1      -9.236  10.809  68.725  0.00  0.00    +0.019 C 
ATOM      2  C   UNL     1     -10.715  10.097  68.564  0.00  0.00    +0.073 C 
ENDROOT
BRANCH   2   3
ATOM      3  N   UNL     1     -10.686  10.258  66.991  0.00  0.00    -0.219 NA
BRANCH   3   4
ATOM      4  C   UNL     1      -9.908  11.440  66.744  0.00  0.00    +0.093 C 
BRANCH   4   5
ATOM      5  C   UNL     1     -10.264  12.167  65.486  0.00  0.00    +0.045 C 
BRANCH   5   6
ATOM      6  C   UNL     1     -10.351  13.625  65.626  0.00  0.00    -0.017 A 
ATOM      7  C   UNL     1     -11.324  14.423  65.089  0.00  0.00    +0.041 A 
ATOM      8  C   UNL     1     -11.059  15.776  64.914  0.00  0.00    +0.234 A 
ATOM      9  O   UNL     1     -11.622  16.520  63.897  0.00  0.00    -0.283 OA
ATOM     10  C   UNL     1     -10.217  16.398  65.826  0.00  0.00    +0.234 A 
ATOM     11  O   UNL     1     -10.142  17.787  65.829  0.00  0.00    -0.283 OA
ATOM     12  C   UNL     1      -9.372  15.608  66.559  0.00  0.00    +0.045 A 
ATOM     13  C   UNL     1      -9.439  14.242  66.475  0.00  0.00    -0.001 A 
ENDBRANCH   5   6
ENDBRANCH   4   5
ENDBRANCH   3   4
ENDBRANCH   2   3
BRANCH   2  14
ATOM     14  C   UNL     1     -11.495  11.538  68.759  0.00  0.00    +0.022 C 
BRANCH  14  15
ATOM     15  C   UNL     1     -12.335  11.247  69.987  0.00  0.00    +0.028 C 
BRANCH  15  16
ATOM     16  C   UNL     1     -12.437  12.451  70.870  0.00  0.00    -0.022 A 
ATOM     17  C   UNL     1     -13.243  12.460  72.002  0.00  0.00    -0.001 A 
ATOM     18  C   UNL     1     -14.001  13.575  72.305  0.00  0.00    +0.042 A 
ATOM     19  C   UNL     1     -13.778  14.795  71.691  0.00  0.00    +0.196 A 
ATOM     20  O   UNL     1     -14.544  15.922  72.004  0.00  0.00    -0.287 OA
ATOM     21  C   UNL     1     -12.776  14.833  70.736  0.00  0.00    +0.042 A 
ATOM     22  C   UNL     1     -12.180  13.679  70.306  0.00  0.00    -0.001 A 
ENDBRANCH  15  16
ENDBRANCH  14  15
ENDBRANCH   2  14
TORSDOF 7
ENDMDL
MODEL 8
REMARK VINA RESULT:      -6.4      3.158      5.597
REMARK  Name = 
REMARK  7 active torsions:
REMARK  status: ('A' for Active; 'I' for Inactive)
REMARK    1  A    between atoms: C_2  and  C_3
REMARK    2  A    between atoms: C_2  and  N_12
REMARK    3  A    between atoms: C_3  and  C_4
REMARK    4  A    between atoms: C_4  and  C_5
REMARK    5  A    between atoms: N_12  and  C_13
REMARK    6  A    between atoms: C_13  and  C_14
REMARK    7  A    between atoms: C_14  and  C_15
REMARK                            x       y       z     vdW  Elec       q    Type
REMARK                         _______ _______ _______ _____ _____    ______ ____
ROOT
ATOM      1  C   UNL     1      -9.293  16.227  69.053  0.00  0.00    +0.019 C 
ATOM      2  C   UNL     1     -10.300  17.420  68.521  0.00  0.00    +0.073 C 
ENDROOT
BRANCH   2   3
ATOM      3  N   UNL     1     -11.583  16.529  68.768  0.00  0.00    -0.219 NA
BRANCH   3   4
ATOM      4  C   UNL     1     -11.467  16.063  70.122  0.00  0.00    +0.093 C 
BRANCH   4   5
ATOM      5  C   UNL     1     -12.676  15.354  70.642  0.00  0.00    +0.045 C 
BRANCH   5   6
ATOM      6  C   UNL     1     -12.550  13.893  70.702  0.00  0.00    -0.017 A 
ATOM      7  C   UNL     1     -11.866  13.112  69.811  0.00  0.00    +0.041 A 
ATOM      8  C   UNL     1     -12.186  11.763  69.719  0.00  0.00    +0.234 A 
ATOM      9  O   UNL     1     -12.065  11.046  68.546  0.00  0.00    -0.283 OA
ATOM     10  C   UNL     1     -12.614  11.116  70.871  0.00  0.00    +0.234 A 
ATOM     11  O   UNL     1     -12.690   9.727  70.869  0.00  0.00    -0.283 OA
ATOM     12  C   UNL     1     -13.104  11.884  71.893  0.00  0.00    +0.045 A 
ATOM     13  C   UNL     1     -13.066  13.252  71.822  0.00  0.00    -0.001 A 
ENDBRANCH   5   6
ENDBRANCH   4   5
ENDBRANCH   3   4
ENDBRANCH   2   3
BRANCH   2  14
ATOM     14  C   UNL     1     -10.172  16.912  66.957  0.00  0.00    +0.022 C 
BRANCH  14  15
ATOM     15  C   UNL     1      -9.771  15.463  67.157  0.00  0.00    +0.028 C 
BRANCH  15  16
ATOM     16  C   UNL     1     -10.256  14.606  66.030  0.00  0.00    -0.022 A 
ATOM     17  C   UNL     1     -11.067  15.115  65.023  0.00  0.00    -0.001 A 
ATOM     18  C   UNL     1     -12.131  14.373  64.548  0.00  0.00    +0.042 A 
ATOM     19  C   UNL     1     -12.260  13.024  64.827  0.00  0.00    +0.196 A 
ATOM     20  O   UNL     1     -13.336  12.276  64.340  0.00  0.00    -0.287 OA
ATOM     21  C   UNL     1     -11.283  12.463  65.631  0.00  0.00    +0.042 A 
ATOM     22  C   UNL     1     -10.357  13.253  66.256  0.00  0.00    -0.001 A 
ENDBRANCH  15  16
ENDBRANCH  14  15
ENDBRANCH   2  14
TORSDOF 7
ENDMDL
MODEL 9
REMARK VINA RESULT:      -6.4      5.172      8.846
REMARK  Name = 
REMARK  7 active torsions:
REMARK  status: ('A' for Active; 'I' for Inactive)
REMARK    1  A    between atoms: C_2  and  C_3
REMARK    2  A    between atoms: C_2  and  N_12
REMARK    3  A    between atoms: C_3  and  C_4
REMARK    4  A    between atoms: C_4  and  C_5
REMARK    5  A    between atoms: N_12  and  C_13
REMARK    6  A    between atoms: C_13  and  C_14
REMARK    7  A    between atoms: C_14  and  C_15
REMARK                            x       y       z     vdW  Elec       q    Type
REMARK                         _______ _______ _______ _____ _____    ______ ____
ROOT
ATOM      1  C   UNL     1     -12.870  14.135  71.219  0.00  0.00    +0.019 C 
ATOM      2  C   UNL     1     -11.490  14.463  70.377  0.00  0.00    +0.073 C 
ENDROOT
BRANCH   2   3
ATOM      3  N   UNL     1     -12.086  15.815  69.813  0.00  0.00    -0.219 NA
BRANCH   3   4
ATOM      4  C   UNL     1     -10.947  16.623  69.480  0.00  0.00    +0.093 C 
BRANCH   4   5
ATOM      5  C   UNL     1     -10.977  17.205  68.103  0.00  0.00    +0.045 C 
BRANCH   5   6
ATOM      6  C   UNL     1      -9.918  18.183  67.829  0.00  0.00    -0.017 A 
ATOM      7  C   UNL     1      -8.572  17.952  67.920  0.00  0.00    +0.041 A 
ATOM      8  C   UNL     1      -7.716  19.035  68.072  0.00  0.00    +0.234 A 
ATOM      9  O   UNL     1      -6.522  18.951  68.761  0.00  0.00    -0.283 OA
ATOM     10  C   UNL     1      -8.073  20.237  67.476  0.00  0.00    +0.234 A 
ATOM     11  O   UNL     1      -7.124  21.251  67.392  0.00  0.00    -0.283 OA
ATOM     12  C   UNL     1      -9.392  20.426  67.156  0.00  0.00    +0.045 A 
ATOM     13  C   UNL     1     -10.304  19.416  67.316  0.00  0.00    -0.001 A 
ENDBRANCH   5   6
ENDBRANCH   4   5
ENDBRANCH   3   4
ENDBRANCH   2   3
BRANCH   2  14
ATOM     14  C   UNL     1     -12.017  13.611  69.066  0.00  0.00    +0.022 C 
BRANCH  14  15
ATOM     15  C   UNL     1     -10.701  13.294  68.382  0.00  0.00    +0.028 C 
BRANCH  15  16
ATOM     16  C   UNL     1     -10.760  13.616  66.921  0.00  0.00    -0.022 A 
ATOM     17  C   UNL     1      -9.718  14.270  66.276  0.00  0.00    -0.001 A 
ATOM     18  C   UNL     1      -9.986  15.258  65.349  0.00  0.00    +0.042 A 
ATOM     19  C   UNL     1     -11.253  15.435  64.819  0.00  0.00    +0.196 A 
ATOM     20  O   UNL     1     -11.520  16.434  63.879  0.00  0.00    -0.287 OA
ATOM     21  C   UNL     1     -12.242  14.587  65.288  0.00  0.00    +0.042 A 
ATOM     22  C   UNL     1     -12.003  13.757  66.349  0.00  0.00    -0.001 A 
ENDBRANCH  15  16
ENDBRANCH  14  15
ENDBRANCH   2  14
TORSDOF 7
ENDMDL
