MODEL 1
REMARK VINA RESULT:      -7.2      0.000      0.000
REMARK  Name = 
REMARK  2 active torsions:
REMARK  status: ('A' for Active; 'I' for Inactive)
REMARK    1  A    between atoms: C_2  and  C_4
REMARK    2  A    between atoms: C_4  and  C_6
REMARK                            x       y       z     vdW  Elec       q    Type
REMARK                         _______ _______ _______ _____ _____    ______ ____
ROOT
ATOM      1  C   UNL     1     -12.263  14.078  68.939  0.00  0.00    +0.147 C 
ATOM      2  N   UNL     1     -12.151  13.504  70.412  0.00  0.00    -0.228 NA
ATOM      3  C   UNL     1     -12.537  14.438  71.428  0.00  0.00    +0.157 A 
ATOM      4  C   UNL     1     -11.833  15.637  71.422  0.00  0.00    +0.170 A 
ATOM      5  N   UNL     1     -11.927  16.407  72.508  0.00  0.00    -0.193 NA
ATOM      6  C   UNL     1     -12.608  16.045  73.607  0.00  0.00    +0.260 A 
ATOM      7  N   UNL     1     -13.025  14.772  73.676  0.00  0.00    -0.171 NA
ATOM      8  N   UNL     1     -12.370  16.771  74.808  0.00  0.00    -0.086 NA
ATOM      9  N   UNL     1     -11.595  16.148  70.102  0.00  0.00    -0.217 NA
ATOM     10  C   UNL     1     -13.282  14.104  72.527  0.00  0.00    +0.299 A 
ATOM     11  O   UNL     1     -14.009  13.087  72.470  0.00  0.00    -0.264 OA
ATOM     12  C   UNL     1     -11.042  15.164  69.197  0.00  0.00    +0.138 C 
ENDROOT
BRANCH   1  13
ATOM     13  C   UNL     1     -11.129  12.907  68.346  0.00  0.00    +0.203 C 
ATOM     14  O   UNL     1     -12.105  11.777  68.573  0.00  0.00    -0.219 OA
BRANCH  13  16
ATOM     15  C   UNL     1     -11.087  11.695  66.230  0.00  0.00    +0.038 C 
ATOM     16  C   UNL     1     -11.725  13.156  66.724  0.00  0.00    +0.184 C 
ATOM     17  O   UNL     1     -10.444  13.901  66.316  0.00  0.00    -0.220 OA
ENDBRANCH  13  16
ENDBRANCH   1  13
TORSDOF 2
ENDMDL
MODEL 2
REMARK VINA RESULT:      -6.9      5.253      7.281
REMARK  Name = 
REMARK  2 active torsions:
REMARK  status: ('A' for Active; 'I' for Inactive)
REMARK    1  A    between atoms: C_2  and  C_4
REMARK    2  A    between atoms: C_4  and  C_6
REMARK                            x       y       z     vdW  Elec       q    Type
REMARK                         _______ _______ _______ _____ _____    ______ ____
ROOT
ATOM      1  C   UNL     1      -9.314  16.823  67.187  0.00  0.00    +0.147 C 
ATOM      2  N   UNL     1      -9.587  16.341  65.702  0.00  0.00    -0.228 NA
ATOM      3  C   UNL     1     -10.756  15.525  65.564  0.00  0.00    +0.157 A 
ATOM      4  C   UNL     1     -10.771  14.380  66.353  0.00  0.00    +0.170 A 
ATOM      5  N   UNL     1     -11.667  13.439  66.051  0.00  0.00    -0.193 NA
ATOM      6  C   UNL     1     -12.494  13.526  64.996  0.00  0.00    +0.260 A 
ATOM      7  N   UNL     1     -12.250  14.500  64.107  0.00  0.00    -0.171 NA
ATOM      8  N   UNL     1     -13.162  12.342  64.574  0.00  0.00    -0.086 NA
ATOM      9  N   UNL     1     -10.263  14.599  67.678  0.00  0.00    -0.217 NA
ATOM     10  C   UNL     1     -11.646  15.636  64.528  0.00  0.00    +0.299 A 
ATOM     11  O   UNL     1     -11.708  16.720  63.907  0.00  0.00    -0.264 OA
ATOM     12  C   UNL     1      -8.988  15.283  67.697  0.00  0.00    +0.138 C 
ENDROOT
BRANCH   1  13
ATOM     13  C   UNL     1      -7.636  17.090  66.842  0.00  0.00    +0.203 C 
ATOM     14  O   UNL     1      -7.968  18.114  65.782  0.00  0.00    -0.219 OA
BRANCH  13  16
ATOM     15  C   UNL     1      -6.090  18.843  67.540  0.00  0.00    +0.038 C 
ATOM     16  C   UNL     1      -7.581  18.323  68.078  0.00  0.00    +0.184 C 
ATOM     17  O   UNL     1      -6.929  17.356  69.080  0.00  0.00    -0.220 OA
ENDBRANCH  13  16
ENDBRANCH   1  13
TORSDOF 2
ENDMDL
MODEL 3
REMARK VINA RESULT:      -6.8      5.073      7.332
REMARK  Name = 
REMARK  2 active torsions:
REMARK  status: ('A' for Active; 'I' for Inactive)
REMARK    1  A    between atoms: C_2  and  C_4
REMARK    2  A    between atoms: C_4  and  C_6
REMARK                            x       y       z     vdW  Elec       q    Type
REMARK                         _______ _______ _______ _____ _____    ______ ____
ROOT
ATOM      1  C   UNL     1      -9.583  17.927  67.197  0.00  0.00    +0.147 C 
ATOM      2  N   UNL     1      -9.599  17.058  65.871  0.00  0.00    -0.228 NA
ATOM      3  C   UNL     1     -10.614  16.048  65.854  0.00  0.00    +0.157 A 
ATOM      4  C   UNL     1     -10.564  15.145  66.911  0.00  0.00    +0.170 A 
ATOM      5  N   UNL     1     -11.273  14.022  66.790  0.00  0.00    -0.193 NA
ATOM      6  C   UNL     1     -11.967  13.707  65.685  0.00  0.00    +0.260 A 
ATOM      7  N   UNL     1     -11.755  14.461  64.595  0.00  0.00    -0.171 NA
ATOM      8  N   UNL     1     -12.402  12.360  65.531  0.00  0.00    -0.086 NA
ATOM      9  N   UNL     1     -10.260  15.763  68.170  0.00  0.00    -0.217 NA
ATOM     10  C   UNL     1     -11.375  15.750  64.755  0.00  0.00    +0.299 A 
ATOM     11  O   UNL     1     -11.513  16.623  63.869  0.00  0.00    -0.264 OA
ATOM     12  C   UNL     1      -9.107  16.636  68.116  0.00  0.00    +0.138 C 
ENDROOT
BRANCH   1  13
ATOM     13  C   UNL     1      -7.929  18.381  66.935  0.00  0.00    +0.203 C 
ATOM     14  O   UNL     1      -8.299  19.215  65.731  0.00  0.00    -0.219 OA
BRANCH  13  16
ATOM     15  C   UNL     1      -6.823  20.519  67.327  0.00  0.00    +0.038 C 
ATOM     16  C   UNL     1      -8.139  19.748  68.002  0.00  0.00    +0.184 C 
ATOM     17  O   UNL     1      -7.258  19.099  69.082  0.00  0.00    -0.220 OA
ENDBRANCH  13  16
ENDBRANCH   1  13
TORSDOF 2
ENDMDL
MODEL 4
REMARK VINA RESULT:      -6.6      2.755      6.223
REMARK  Name = 
REMARK  2 active torsions:
REMARK  status: ('A' for Active; 'I' for Inactive)
REMARK    1  A    between atoms: C_2  and  C_4
REMARK    2  A    between atoms: C_4  and  C_6
REMARK                            x       y       z     vdW  Elec       q    Type
REMARK                         _______ _______ _______ _____ _____    ______ ____
ROOT
ATOM      1  C   UNL     1     -12.575  15.482  70.725  0.00  0.00    +0.147 C 
ATOM      2  N   UNL     1     -11.286  16.078  70.019  0.00  0.00    -0.228 NA
ATOM      3  C   UNL     1     -11.274  15.907  68.597  0.00  0.00    +0.157 A 
ATOM      4  C   UNL     1     -11.384  14.591  68.161  0.00  0.00    +0.170 A 
ATOM      5  N   UNL     1     -11.075  14.340  66.888  0.00  0.00    -0.193 NA
ATOM      6  C   UNL     1     -10.610  15.277  66.048  0.00  0.00    +0.260 A 
ATOM      7  N   UNL     1     -10.251  16.454  66.583  0.00  0.00    -0.171 NA
ATOM      8  N   UNL     1     -10.003  14.844  64.835  0.00  0.00    -0.086 NA
ATOM      9  N   UNL     1     -12.330  13.821  68.918  0.00  0.00    -0.217 NA
ATOM     10  C   UNL     1     -10.861  16.871  67.717  0.00  0.00    +0.299 A 
ATOM     11  O   UNL     1     -10.887  18.067  68.084  0.00  0.00    -0.264 OA
ATOM     12  C   UNL     1     -12.145  13.930  70.349  0.00  0.00    +0.138 C 
ENDROOT
BRANCH   1  13
ATOM     13  C   UNL     1     -11.747  15.369  72.245  0.00  0.00    +0.203 C 
ATOM     14  O   UNL     1     -11.627  16.871  72.346  0.00  0.00    -0.219 OA
BRANCH  13  16
ATOM     15  C   UNL     1     -12.519  15.586  74.549  0.00  0.00    +0.038 C 
ATOM     16  C   UNL     1     -13.282  15.391  73.078  0.00  0.00    +0.184 C 
ATOM     17  O   UNL     1     -13.275  13.861  73.230  0.00  0.00    -0.220 OA
ENDBRANCH  13  16
ENDBRANCH   1  13
TORSDOF 2
ENDMDL
MODEL 5
REMARK VINA RESULT:      -6.6      2.755      6.033
REMARK  Name = 
REMARK  2 active torsions:
REMARK  status: ('A' for Active; 'I' for Inactive)
REMARK    1  A    between atoms: C_2  and  C_4
REMARK    2  A    between atoms: C_4  and  C_6
REMARK                            x       y       z     vdW  Elec       q    Type
REMARK                         _______ _______ _______ _____ _____    ______ ____
ROOT
ATOM      1  C   UNL     1     -11.441  14.550  70.044  0.00  0.00    +0.147 C 
ATOM      2  N   UNL     1     -12.328  13.557  69.184  0.00  0.00    -0.228 NA
ATOM      3  C   UNL     1     -11.846  13.358  67.849  0.00  0.00    +0.157 A 
ATOM      4  C   UNL     1     -11.714  14.517  67.093  0.00  0.00    +0.170 A 
ATOM      5  N   UNL     1     -11.569  14.375  65.774  0.00  0.00    -0.193 NA
ATOM      6  C   UNL     1     -11.610  13.183  65.157  0.00  0.00    +0.260 A 
ATOM      7  N   UNL     1     -12.022  12.132  65.882  0.00  0.00    -0.171 NA
ATOM      8  N   UNL     1     -11.781  13.170  63.743  0.00  0.00    -0.086 NA
ATOM      9  N   UNL     1     -11.180  15.622  67.837  0.00  0.00    -0.217 NA
ATOM     10  C   UNL     1     -11.822  12.142  67.220  0.00  0.00    +0.299 A 
ATOM     11  O   UNL     1     -11.814  11.106  67.922  0.00  0.00    -0.264 OA
ATOM     12  C   UNL     1     -11.854  15.843  69.098  0.00  0.00    +0.138 C 
ENDROOT
BRANCH   1  13
ATOM     13  C   UNL     1     -12.765  14.879  71.115  0.00  0.00    +0.203 C 
ATOM     14  O   UNL     1     -12.885  13.421  71.491  0.00  0.00    -0.219 OA
BRANCH  13  16
ATOM     15  C   UNL     1     -12.869  15.121  73.540  0.00  0.00    +0.038 C 
ATOM     16  C   UNL     1     -11.636  15.168  72.416  0.00  0.00    +0.184 C 
ATOM     17  O   UNL     1     -11.777  16.691  72.263  0.00  0.00    -0.220 OA
ENDBRANCH  13  16
ENDBRANCH   1  13
TORSDOF 2
ENDMDL
MODEL 6
REMARK VINA RESULT:      -6.5      5.404      7.464
REMARK  Name = 
REMARK  2 active torsions:
REMARK  status: ('A' for Active; 'I' for Inactive)
REMARK    1  A    between atoms: C_2  and  C_4
REMARK    2  A    between atoms: C_4  and  C_6
REMARK                            x       y       z     vdW  Elec       q    Type
REMARK                         _______ _______ _______ _____ _____    ______ ____
ROOT
ATOM      1  C   UNL     1     -10.441  16.629  66.947  0.00  0.00    +0.147 C 
ATOM      2  N   UNL     1     -10.559  16.130  65.447  0.00  0.00    -0.228 NA
ATOM      3  C   UNL     1     -10.849  14.732  65.324  0.00  0.00    +0.157 A 
ATOM      4  C   UNL     1      -9.939  13.885  65.946  0.00  0.00    +0.170 A 
ATOM      5  N   UNL     1      -9.979  12.593  65.614  0.00  0.00    -0.193 NA
ATOM      6  C   UNL     1     -10.803  12.103  64.675  0.00  0.00    +0.260 A 
ATOM      7  N   UNL     1     -11.452  12.991  63.906  0.00  0.00    -0.171 NA
ATOM      8  N   UNL     1     -10.536  10.800  64.167  0.00  0.00    -0.086 NA
ATOM      9  N   UNL     1      -9.502  14.365  67.226  0.00  0.00    -0.217 NA
ATOM     10  C   UNL     1     -11.731  14.214  64.413  0.00  0.00    +0.299 A 
ATOM     11  O   UNL     1     -12.626  14.961  63.956  0.00  0.00    -0.264 OA
ATOM     12  C   UNL     1      -9.066  15.744  67.203  0.00  0.00    +0.138 C 
ENDROOT
BRANCH   1  13
ATOM     13  C   UNL     1      -9.497  18.002  66.465  0.00  0.00    +0.203 C 
ATOM     14  O   UNL     1     -10.621  18.534  65.608  0.00  0.00    -0.219 OA
BRANCH  13  16
ATOM     15  C   UNL     1      -9.548  20.326  67.202  0.00  0.00    +0.038 C 
ATOM     16  C   UNL     1     -10.078  18.885  67.855  0.00  0.00    +0.184 C 
ATOM     17  O   UNL     1      -8.747  18.684  68.598  0.00  0.00    -0.220 OA
ENDBRANCH  13  16
ENDBRANCH   1  13
TORSDOF 2
ENDMDL
MODEL 7
REMARK VINA RESULT:      -6.4      2.130      3.284
REMARK  Name = 
REMARK  2 active torsions:
REMARK  status: ('A' for Active; 'I' for Inactive)
REMARK    1  A    between atoms: C_2  and  C_4
REMARK    2  A    between atoms: C_4  and  C_6
REMARK                            x       y       z     vdW  Elec       q    Type
REMARK                         _______ _______ _______ _____ _____    ______ ____
ROOT
ATOM      1  C   UNL     1     -10.865  13.023  67.210  0.00  0.00    +0.147 C 
ATOM      2  N   UNL     1     -11.894  14.152  67.635  0.00  0.00    -0.228 NA
ATOM      3  C   UNL     1     -11.875  14.454  69.035  0.00  0.00    +0.157 A 
ATOM      4  C   UNL     1     -12.116  13.372  69.874  0.00  0.00    +0.170 A 
ATOM      5  N   UNL     1     -12.413  13.639  71.147  0.00  0.00    -0.193 NA
ATOM      6  C   UNL     1     -12.549  14.886  71.623  0.00  0.00    +0.260 A 
ATOM      7  N   UNL     1     -12.591  15.882  70.724  0.00  0.00    -0.171 NA
ATOM      8  N   UNL     1     -13.186  15.054  72.885  0.00  0.00    -0.086 NA
ATOM      9  N   UNL     1     -11.468  12.166  69.443  0.00  0.00    -0.217 NA
ATOM     10  C   UNL     1     -11.952  15.725  69.542  0.00  0.00    +0.299 A 
ATOM     11  O   UNL     1     -11.610  16.681  68.811  0.00  0.00    -0.264 OA
ATOM     12  C   UNL     1     -11.693  11.861  68.047  0.00  0.00    +0.138 C 
ENDROOT
BRANCH   1  13
ATOM     13  C   UNL     1     -11.773  12.671  65.775  0.00  0.00    +0.203 C 
ATOM     14  O   UNL     1     -11.648  14.095  65.288  0.00  0.00    -0.219 OA
BRANCH  13  16
ATOM     15  C   UNL     1     -11.095  12.137  63.493  0.00  0.00    +0.038 C 
ATOM     16  C   UNL     1     -10.299  12.215  64.958  0.00  0.00    +0.184 C 
ATOM     17  O   UNL     1     -10.557  10.723  65.225  0.00  0.00    -0.220 OA
ENDBRANCH  13  16
ENDBRANCH   1  13
TORSDOF 2
ENDMDL
MODEL 8
REMARK VINA RESULT:      -6.3      4.662      6.990
REMARK  Name = 
REMARK  2 active torsions:
REMARK  status: ('A' for Active; 'I' for Inactive)
REMARK    1  A    between atoms: C_2  and  C_4
REMARK    2  A    between atoms: C_4  and  C_6
REMARK                            x       y       z     vdW  Elec       q    Type
REMARK                         _______ _______ _______ _____ _____    ______ ____
ROOT
ATOM      1  C   UNL     1      -9.905  16.627  66.545  0.00  0.00    +0.147 C 
ATOM      2  N   UNL     1     -10.949  15.547  67.050  0.00  0.00    -0.228 NA
ATOM      3  C   UNL     1     -11.207  14.504  66.102  0.00  0.00    +0.157 A 
ATOM      4  C   UNL     1     -11.663  14.936  64.862  0.00  0.00    +0.170 A 
ATOM      5  N   UNL     1     -12.204  14.021  64.056  0.00  0.00    -0.193 NA
ATOM      6  C   UNL     1     -12.380  12.740  64.415  0.00  0.00    +0.260 A 
ATOM      7  N   UNL     1     -12.193  12.436  65.709  0.00  0.00    -0.171 NA
ATOM      8  N   UNL     1     -13.256  11.940  63.627  0.00  0.00    -0.086 NA
ATOM      9  N   UNL     1     -10.993  16.115  64.391  0.00  0.00    -0.217 NA
ATOM     10  C   UNL     1     -11.331  13.182  66.438  0.00  0.00    +0.299 A 
ATOM     11  O   UNL     1     -10.804  12.783  67.501  0.00  0.00    -0.264 OA
ATOM     12  C   UNL     1     -10.938  17.175  65.374  0.00  0.00    +0.138 C 
ENDROOT
BRANCH   1  13
ATOM     13  C   UNL     1     -10.512  17.805  67.665  0.00  0.00    +0.203 C 
ATOM     14  O   UNL     1     -10.011  17.009  68.847  0.00  0.00    -0.219 OA
BRANCH  13  16
ATOM     15  C   UNL     1      -9.397  19.588  68.901  0.00  0.00    +0.038 C 
ATOM     16  C   UNL     1      -9.004  18.679  67.557  0.00  0.00    +0.184 C 
ATOM     17  O   UNL     1      -9.624  19.726  66.617  0.00  0.00    -0.220 OA
ENDBRANCH  13  16
ENDBRANCH   1  13
TORSDOF 2
ENDMDL
MODEL 9
REMARK VINA RESULT:      -6.3      3.943      6.079
REMARK  Name = 
REMARK  2 active torsions:
REMARK  status: ('A' for Active; 'I' for Inactive)
REMARK    1  A    between atoms: C_2  and  C_4
REMARK    2  A    between atoms: C_4  and  C_6
REMARK                            x       y       z     vdW  Elec       q    Type
REMARK                         _______ _______ _______ _____ _____    ______ ____
ROOT
ATOM      1  C   UNL     1     -10.917  16.760  67.727  0.00  0.00    +0.147 C 
ATOM      2  N   UNL     1     -10.872  15.642  66.604  0.00  0.00    -0.228 NA
ATOM      3  C   UNL     1     -11.356  14.366  67.040  0.00  0.00    +0.157 A 
ATOM      4  C   UNL     1     -10.703  13.834  68.146  0.00  0.00    +0.170 A 
ATOM      5  N   UNL     1     -10.895  12.539  68.406  0.00  0.00    -0.193 NA
ATOM      6  C   UNL     1     -11.626  11.734  67.620  0.00  0.00    +0.260 A 
ATOM      7  N   UNL     1     -11.995  12.217  66.424  0.00  0.00    -0.171 NA
ATOM      8  N   UNL     1     -11.492  10.328  67.797  0.00  0.00    -0.086 NA
ATOM      9  N   UNL     1     -10.406  14.813  69.152  0.00  0.00    -0.217 NA
ATOM     10  C   UNL     1     -12.154  13.553  66.278  0.00  0.00    +0.299 A 
ATOM     11  O   UNL     1     -12.834  14.070  65.363  0.00  0.00    -0.264 OA
ATOM     12  C   UNL     1      -9.759  15.996  68.629  0.00  0.00    +0.138 C 
ENDROOT
BRANCH   1  13
ATOM     13  C   UNL     1      -9.702  17.692  66.912  0.00  0.00    +0.203 C 
ATOM     14  O   UNL     1     -10.555  17.808  65.671  0.00  0.00    -0.219 OA
BRANCH  13  16
ATOM     15  C   UNL     1      -9.487  20.091  66.524  0.00  0.00    +0.038 C 
ATOM     16  C   UNL     1     -10.387  19.156  67.574  0.00  0.00    +0.184 C 
ATOM     17  O   UNL     1      -9.293  19.238  68.650  0.00  0.00    -0.220 OA
ENDBRANCH  13  16
ENDBRANCH   1  13
TORSDOF 2
ENDMDL
