MODEL 1
REMARK VINA RESULT:      -7.1      0.000      0.000
REMARK  Name = 
REMARK  10 active torsions:
REMARK  status: ('A' for Active; 'I' for Inactive)
REMARK    1  A    between atoms: C_2  and  C_3
REMARK    2  A    between atoms: C_3  and  C_4
REMARK    3  A    between atoms: C_4  and  C_5
REMARK    4  A    between atoms: N_7  and  C_8
REMARK    5  A    between atoms: N_7  and  C_26
REMARK    6  A    between atoms: C_8  and  C_9
REMARK    7  A    between atoms: C_12  and  C_13
REMARK    8  A    between atoms: C_18  and  C_19
REMARK    9  A    between atoms: C_26  and  C_27
REMARK   10  A    between atoms: C_26  and  C_30
REMARK                            x       y       z     vdW  Elec       q    Type
REMARK                         _______ _______ _______ _____ _____    ______ ____
ROOT
ATOM      1  C   UNL     1      -8.557  14.607  67.485  0.00  0.00    -0.002 A 
ATOM      2  C   UNL     1      -8.338  14.892  68.807  0.00  0.00    -0.003 A 
ATOM      3  C   UNL     1      -7.847  16.113  69.185  0.00  0.00    -0.000 A 
ATOM      4  C   UNL     1      -7.727  17.127  68.249  0.00  0.00    -0.001 A 
ATOM      5  C   UNL     1      -7.686  16.751  66.922  0.00  0.00    -0.000 A 
ATOM      6  C   UNL     1      -8.058  15.476  66.539  0.00  0.00    -0.003 A 
ENDROOT
BRANCH   4   7
ATOM      7  C   UNL     1      -7.025  18.360  68.593  0.00  0.00    -0.006 A 
ATOM      8  C   UNL     1      -7.384  19.494  67.887  0.00  0.00    -0.015 A 
ATOM      9  C   UNL     1      -6.509  20.571  67.820  0.00  0.00    -0.007 A 
ATOM     10  C   UNL     1      -5.160  20.348  68.054  0.00  0.00    -0.001 A 
ATOM     11  C   UNL     1      -4.855  19.296  68.895  0.00  0.00    -0.000 A 
ATOM     12  C   UNL     1      -5.819  18.371  69.279  0.00  0.00    -0.001 A 
BRANCH   8  13
ATOM     13  C   UNL     1      -8.780  19.720  67.536  0.00  0.00    +0.044 A 
ATOM     14  N   UNL     1      -9.267  19.778  66.273  0.00  0.00    -0.289 NA
ATOM     15  N   UNL     1     -10.557  19.543  66.317  0.00  0.00    -0.218 NA
ATOM     16  N   UNL     1     -10.950  19.651  67.565  0.00  0.00    -0.218 NA
ATOM     17  N   UNL     1      -9.865  19.481  68.300  0.00  0.00    -0.289 NA
ENDBRANCH   8  13
ENDBRANCH   4   7
BRANCH   1  18
ATOM     18  C   UNL     1      -9.448  13.496  67.057  0.00  0.00    +0.121 C 
BRANCH  18  20
ATOM     19  C   UNL     1     -11.375  14.954  67.300  0.00  0.00    +0.226 C 
ATOM     20  N   UNL     1     -10.683  14.059  66.508  0.00  0.00    -0.267 N 
ATOM     21  O   UNL     1     -11.455  16.189  67.196  0.00  0.00    -0.275 OA
BRANCH  20  22
ATOM     22  C   UNL     1     -10.448  14.345  64.980  0.00  0.00    +0.179 C 
BRANCH  22  23
ATOM     23  C   UNL     1     -11.209  12.948  64.544  0.00  0.00    +0.029 C 
ATOM     24  C   UNL     1     -11.522  12.206  65.803  0.00  0.00    +0.002 C 
ATOM     25  C   UNL     1     -10.258  12.226  63.637  0.00  0.00    +0.002 C 
ENDBRANCH  22  23
BRANCH  22  26
ATOM     26  C   UNL     1     -11.753  15.283  64.799  0.00  0.00    +0.382 C 
ATOM     27  O   UNL     1     -11.256  16.456  64.190  0.00  0.00    -0.244 OA
ATOM     28  O   UNL     1     -12.664  14.825  64.045  0.00  0.00    -0.244 OA
ENDBRANCH  22  26
ENDBRANCH  20  22
BRANCH  19  29
ATOM     29  C   UNL     1     -11.709  14.405  68.655  0.00  0.00    +0.085 C 
BRANCH  29  30
ATOM     30  C   UNL     1     -12.032  15.514  69.615  0.00  0.00    +0.010 C 
BRANCH  30  32
ATOM     31  C   UNL     1     -12.008  16.053  71.978  0.00  0.00    +0.000 C 
ATOM     32  C   UNL     1     -11.264  15.267  70.907  0.00  0.00    +0.001 C 
ENDBRANCH  30  32
ENDBRANCH  29  30
ENDBRANCH  19  29
ENDBRANCH  18  20
ENDBRANCH   1  18
TORSDOF 10
ENDMDL
MODEL 2
REMARK VINA RESULT:      -6.8      1.350      1.786
REMARK  Name = 
REMARK  10 active torsions:
REMARK  status: ('A' for Active; 'I' for Inactive)
REMARK    1  A    between atoms: C_2  and  C_3
REMARK    2  A    between atoms: C_3  and  C_4
REMARK    3  A    between atoms: C_4  and  C_5
REMARK    4  A    between atoms: N_7  and  C_8
REMARK    5  A    between atoms: N_7  and  C_26
REMARK    6  A    between atoms: C_8  and  C_9
REMARK    7  A    between atoms: C_12  and  C_13
REMARK    8  A    between atoms: C_18  and  C_19
REMARK    9  A    between atoms: C_26  and  C_27
REMARK   10  A    between atoms: C_26  and  C_30
REMARK                            x       y       z     vdW  Elec       q    Type
REMARK                         _______ _______ _______ _____ _____    ______ ____
ROOT
ATOM      1  C   UNL     1      -9.011  14.376  67.492  0.00  0.00    -0.002 A 
ATOM      2  C   UNL     1      -8.416  15.137  66.521  0.00  0.00    -0.003 A 
ATOM      3  C   UNL     1      -7.778  16.305  66.845  0.00  0.00    -0.000 A 
ATOM      4  C   UNL     1      -7.586  16.639  68.175  0.00  0.00    -0.001 A 
ATOM      5  C   UNL     1      -8.408  16.026  69.099  0.00  0.00    -0.000 A 
ATOM      6  C   UNL     1      -9.158  14.920  68.750  0.00  0.00    -0.003 A 
ENDROOT
BRANCH   4   7
ATOM      7  C   UNL     1      -7.088  17.965  68.532  0.00  0.00    -0.006 A 
ATOM      8  C   UNL     1      -7.529  19.021  67.756  0.00  0.00    -0.015 A 
ATOM      9  C   UNL     1      -6.802  20.205  67.726  0.00  0.00    -0.007 A 
ATOM     10  C   UNL     1      -5.463  20.173  68.085  0.00  0.00    -0.001 A 
ATOM     11  C   UNL     1      -5.100  19.194  68.988  0.00  0.00    -0.000 A 
ATOM     12  C   UNL     1      -5.963  18.156  69.320  0.00  0.00    -0.001 A 
BRANCH   8  13
ATOM     13  C   UNL     1      -8.904  19.046  67.276  0.00  0.00    +0.044 A 
ATOM     14  N   UNL     1     -10.001  19.195  68.058  0.00  0.00    -0.289 NA
ATOM     15  N   UNL     1     -10.990  19.615  67.306  0.00  0.00    -0.218 NA
ATOM     16  N   UNL     1     -10.654  19.436  66.050  0.00  0.00    -0.218 NA
ATOM     17  N   UNL     1      -9.334  19.362  66.038  0.00  0.00    -0.289 NA
ENDBRANCH   8  13
ENDBRANCH   4   7
BRANCH   1  18
ATOM     18  C   UNL     1      -9.345  12.943  67.273  0.00  0.00    +0.121 C 
BRANCH  18  20
ATOM     19  C   UNL     1     -11.716  13.169  67.744  0.00  0.00    +0.226 C 
ATOM     20  N   UNL     1     -10.736  12.839  66.829  0.00  0.00    -0.267 N 
ATOM     21  O   UNL     1     -12.422  14.190  67.798  0.00  0.00    -0.275 OA
BRANCH  20  22
ATOM     22  C   UNL     1     -10.809  13.350  65.344  0.00  0.00    +0.179 C 
BRANCH  22  23
ATOM     23  C   UNL     1     -10.820  11.810  64.755  0.00  0.00    +0.029 C 
ATOM     24  C   UNL     1     -10.102  10.954  65.748  0.00  0.00    +0.002 C 
ATOM     25  C   UNL     1     -10.150  11.875  63.416  0.00  0.00    +0.002 C 
ENDBRANCH  22  23
BRANCH  22  26
ATOM     26  C   UNL     1     -12.417  13.525  65.323  0.00  0.00    +0.382 C 
ATOM     27  O   UNL     1     -12.639  14.609  64.447  0.00  0.00    -0.244 OA
ATOM     28  O   UNL     1     -13.076  12.538  64.875  0.00  0.00    -0.244 OA
ENDBRANCH  22  26
ENDBRANCH  20  22
BRANCH  19  29
ATOM     29  C   UNL     1     -11.608  12.399  69.026  0.00  0.00    +0.085 C 
BRANCH  29  30
ATOM     30  C   UNL     1     -12.101  13.220  70.184  0.00  0.00    +0.010 C 
BRANCH  30  32
ATOM     31  C   UNL     1     -13.514  13.186  72.154  0.00  0.00    +0.000 C 
ATOM     32  C   UNL     1     -12.754  12.283  71.192  0.00  0.00    +0.001 C 
ENDBRANCH  30  32
ENDBRANCH  29  30
ENDBRANCH  19  29
ENDBRANCH  18  20
ENDBRANCH   1  18
TORSDOF 10
ENDMDL
MODEL 3
REMARK VINA RESULT:      -6.8      4.607      8.674
REMARK  Name = 
REMARK  10 active torsions:
REMARK  status: ('A' for Active; 'I' for Inactive)
REMARK    1  A    between atoms: C_2  and  C_3
REMARK    2  A    between atoms: C_3  and  C_4
REMARK    3  A    between atoms: C_4  and  C_5
REMARK    4  A    between atoms: N_7  and  C_8
REMARK    5  A    between atoms: N_7  and  C_26
REMARK    6  A    between atoms: C_8  and  C_9
REMARK    7  A    between atoms: C_12  and  C_13
REMARK    8  A    between atoms: C_18  and  C_19
REMARK    9  A    between atoms: C_26  and  C_27
REMARK   10  A    between atoms: C_26  and  C_30
REMARK                            x       y       z     vdW  Elec       q    Type
REMARK                         _______ _______ _______ _____ _____    ______ ____
ROOT
ATOM      1  C   UNL     1     -11.901  13.097  69.160  0.00  0.00    -0.002 A 
ATOM      2  C   UNL     1     -12.262  13.189  70.478  0.00  0.00    -0.003 A 
ATOM      3  C   UNL     1     -12.422  12.060  71.237  0.00  0.00    -0.000 A 
ATOM      4  C   UNL     1     -12.058  10.827  70.723  0.00  0.00    -0.001 A 
ATOM      5  C   UNL     1     -11.967  10.724  69.349  0.00  0.00    -0.000 A 
ATOM      6  C   UNL     1     -11.933  11.857  68.559  0.00  0.00    -0.003 A 
ENDROOT
BRANCH   4   7
ATOM      7  C   UNL     1     -12.406   9.603  71.440  0.00  0.00    -0.006 A 
ATOM      8  C   UNL     1     -11.453   8.600  71.451  0.00  0.00    -0.015 A 
ATOM      9  C   UNL     1     -11.836   7.289  71.706  0.00  0.00    -0.007 A 
ATOM     10  C   UNL     1     -13.160   6.930  71.500  0.00  0.00    -0.001 A 
ATOM     11  C   UNL     1     -14.093   7.936  71.655  0.00  0.00    -0.000 A 
ATOM     12  C   UNL     1     -13.713   9.269  71.761  0.00  0.00    -0.001 A 
BRANCH   8  13
ATOM     13  C   UNL     1     -10.042   8.940  71.569  0.00  0.00    +0.044 A 
ATOM     14  N   UNL     1      -9.267   8.690  72.652  0.00  0.00    -0.289 NA
ATOM     15  N   UNL     1      -8.011   8.702  72.273  0.00  0.00    -0.218 NA
ATOM     16  N   UNL     1      -7.948   9.253  71.083  0.00  0.00    -0.218 NA
ATOM     17  N   UNL     1      -9.160   9.135  70.568  0.00  0.00    -0.289 NA
ENDBRANCH   8  13
ENDBRANCH   4   7
BRANCH   1  18
ATOM     18  C   UNL     1     -11.324  14.252  68.420  0.00  0.00    +0.121 C 
BRANCH  18  20
ATOM     19  C   UNL     1     -10.447  14.182  66.156  0.00  0.00    +0.226 C 
ATOM     20  N   UNL     1     -10.330  13.757  67.465  0.00  0.00    -0.267 N 
ATOM     21  O   UNL     1      -9.763  15.019  65.543  0.00  0.00    -0.275 OA
BRANCH  20  22
ATOM     22  C   UNL     1      -8.933  13.735  68.188  0.00  0.00    +0.179 C 
BRANCH  22  23
ATOM     23  C   UNL     1      -8.287  12.756  67.029  0.00  0.00    +0.029 C 
ATOM     24  C   UNL     1      -9.053  11.473  67.058  0.00  0.00    +0.002 C 
ATOM     25  C   UNL     1      -6.838  12.603  67.379  0.00  0.00    +0.002 C 
ENDBRANCH  22  23
BRANCH  22  26
ATOM     26  C   UNL     1      -8.400  15.112  67.528  0.00  0.00    +0.382 C 
ATOM     27  O   UNL     1      -8.651  16.090  68.514  0.00  0.00    -0.244 OA
ATOM     28  O   UNL     1      -7.160  15.156  67.262  0.00  0.00    -0.244 OA
ENDBRANCH  22  26
ENDBRANCH  20  22
BRANCH  19  29
ATOM     29  C   UNL     1     -11.797  13.905  65.565  0.00  0.00    +0.085 C 
BRANCH  29  30
ATOM     30  C   UNL     1     -11.875  12.495  65.053  0.00  0.00    +0.010 C 
BRANCH  30  32
ATOM     31  C   UNL     1     -10.331  11.696  63.364  0.00  0.00    +0.000 C 
ATOM     32  C   UNL     1     -11.600  12.514  63.555  0.00  0.00    +0.001 C 
ENDBRANCH  30  32
ENDBRANCH  29  30
ENDBRANCH  19  29
ENDBRANCH  18  20
ENDBRANCH   1  18
TORSDOF 10
ENDMDL
MODEL 4
REMARK VINA RESULT:      -6.7      5.045      8.225
REMARK  Name = 
REMARK  10 active torsions:
REMARK  status: ('A' for Active; 'I' for Inactive)
REMARK    1  A    between atoms: C_2  and  C_3
REMARK    2  A    between atoms: C_3  and  C_4
REMARK    3  A    between atoms: C_4  and  C_5
REMARK    4  A    between atoms: N_7  and  C_8
REMARK    5  A    between atoms: N_7  and  C_26
REMARK    6  A    between atoms: C_8  and  C_9
REMARK    7  A    between atoms: C_12  and  C_13
REMARK    8  A    between atoms: C_18  and  C_19
REMARK    9  A    between atoms: C_26  and  C_27
REMARK   10  A    between atoms: C_26  and  C_30
REMARK                            x       y       z     vdW  Elec       q    Type
REMARK                         _______ _______ _______ _____ _____    ______ ____
ROOT
ATOM      1  C   UNL     1     -11.388  11.922  68.568  0.00  0.00    -0.002 A 
ATOM      2  C   UNL     1     -10.577  10.934  68.075  0.00  0.00    -0.003 A 
ATOM      3  C   UNL     1     -10.264   9.843  68.841  0.00  0.00    -0.000 A 
ATOM      4  C   UNL     1     -10.899   9.649  70.056  0.00  0.00    -0.001 A 
ATOM      5  C   UNL     1     -11.479  10.756  70.643  0.00  0.00    -0.000 A 
ATOM      6  C   UNL     1     -11.685  11.912  69.914  0.00  0.00    -0.003 A 
ENDROOT
BRANCH   4   7
ATOM      7  C   UNL     1     -10.434   8.606  70.966  0.00  0.00    -0.006 A 
ATOM      8  C   UNL     1     -11.276   8.278  72.014  0.00  0.00    -0.015 A 
ATOM      9  C   UNL     1     -10.761   7.651  73.142  0.00  0.00    -0.007 A 
ATOM     10  C   UNL     1      -9.404   7.764  73.406  0.00  0.00    -0.001 A 
ATOM     11  C   UNL     1      -8.584   7.933  72.307  0.00  0.00    -0.000 A 
ATOM     12  C   UNL     1      -9.104   8.223  71.051  0.00  0.00    -0.001 A 
BRANCH   8  13
ATOM     13  C   UNL     1     -12.717   8.242  71.804  0.00  0.00    +0.044 A 
ATOM     14  N   UNL     1     -13.393   7.231  71.205  0.00  0.00    -0.289 NA
ATOM     15  N   UNL     1     -14.650   7.300  71.573  0.00  0.00    -0.218 NA
ATOM     16  N   UNL     1     -14.853   8.478  72.116  0.00  0.00    -0.218 NA
ATOM     17  N   UNL     1     -13.663   8.910  72.495  0.00  0.00    -0.289 NA
ENDBRANCH   8  13
ENDBRANCH   4   7
BRANCH   1  18
ATOM     18  C   UNL     1     -12.080  12.890  67.675  0.00  0.00    +0.121 C 
BRANCH  18  20
ATOM     19  C   UNL     1     -11.053  14.885  68.606  0.00  0.00    +0.226 C 
ATOM     20  N   UNL     1     -11.232  14.071  67.504  0.00  0.00    -0.267 N 
ATOM     21  O   UNL     1     -10.057  14.997  69.340  0.00  0.00    -0.275 OA
BRANCH  20  22
ATOM     22  C   UNL     1     -10.017  13.667  66.591  0.00  0.00    +0.179 C 
BRANCH  22  23
ATOM     23  C   UNL     1     -10.864  14.010  65.218  0.00  0.00    +0.029 C 
ATOM     24  C   UNL     1     -12.302  14.134  65.606  0.00  0.00    +0.002 C 
ATOM     25  C   UNL     1     -10.589  12.881  64.271  0.00  0.00    +0.002 C 
ENDBRANCH  22  23
BRANCH  22  26
ATOM     26  C   UNL     1      -9.283  15.106  66.671  0.00  0.00    +0.382 C 
ATOM     27  O   UNL     1      -7.927  14.791  66.905  0.00  0.00    -0.244 OA
ATOM     28  O   UNL     1      -9.329  15.811  65.617  0.00  0.00    -0.244 OA
ENDBRANCH  22  26
ENDBRANCH  20  22
BRANCH  19  29
ATOM     29  C   UNL     1     -12.344  15.357  69.205  0.00  0.00    +0.085 C 
BRANCH  29  30
ATOM     30  C   UNL     1     -12.205  15.545  70.689  0.00  0.00    +0.010 C 
BRANCH  30  32
ATOM     31  C   UNL     1     -13.277  14.195  72.394  0.00  0.00    +0.000 C 
ATOM     32  C   UNL     1     -13.554  15.255  71.336  0.00  0.00    +0.001 C 
ENDBRANCH  30  32
ENDBRANCH  29  30
ENDBRANCH  19  29
ENDBRANCH  18  20
ENDBRANCH   1  18
TORSDOF 10
ENDMDL
MODEL 5
REMARK VINA RESULT:      -6.7      3.857      8.184
REMARK  Name = 
REMARK  10 active torsions:
REMARK  status: ('A' for Active; 'I' for Inactive)
REMARK    1  A    between atoms: C_2  and  C_3
REMARK    2  A    between atoms: C_3  and  C_4
REMARK    3  A    between atoms: C_4  and  C_5
REMARK    4  A    between atoms: N_7  and  C_8
REMARK    5  A    between atoms: N_7  and  C_26
REMARK    6  A    between atoms: C_8  and  C_9
REMARK    7  A    between atoms: C_12  and  C_13
REMARK    8  A    between atoms: C_18  and  C_19
REMARK    9  A    between atoms: C_26  and  C_27
REMARK   10  A    between atoms: C_26  and  C_30
REMARK                            x       y       z     vdW  Elec       q    Type
REMARK                         _______ _______ _______ _____ _____    ______ ____
ROOT
ATOM      1  C   UNL     1     -11.695  13.409  68.220  0.00  0.00    -0.002 A 
ATOM      2  C   UNL     1     -11.591  12.139  67.716  0.00  0.00    -0.003 A 
ATOM      3  C   UNL     1     -11.734  11.051  68.535  0.00  0.00    -0.000 A 
ATOM      4  C   UNL     1     -12.150  11.224  69.844  0.00  0.00    -0.001 A 
ATOM      5  C   UNL     1     -11.983  12.479  70.393  0.00  0.00    -0.000 A 
ATOM      6  C   UNL     1     -11.710  13.568  69.589  0.00  0.00    -0.003 A 
ENDROOT
BRANCH   4   7
ATOM      7  C   UNL     1     -12.116  10.101  70.778  0.00  0.00    -0.006 A 
ATOM      8  C   UNL     1     -11.271   9.054  70.457  0.00  0.00    -0.015 A 
ATOM      9  C   UNL     1     -11.486   7.799  71.012  0.00  0.00    -0.007 A 
ATOM     10  C   UNL     1     -12.749   7.493  71.497  0.00  0.00    -0.001 A 
ATOM     11  C   UNL     1     -13.498   8.559  71.954  0.00  0.00    -0.000 A 
ATOM     12  C   UNL     1     -13.114   9.873  71.713  0.00  0.00    -0.001 A 
BRANCH   8  13
ATOM     13  C   UNL     1      -9.972   9.327  69.855  0.00  0.00    +0.044 A 
ATOM     14  N   UNL     1      -8.892   9.808  70.517  0.00  0.00    -0.289 NA
ATOM     15  N   UNL     1      -7.818   9.515  69.822  0.00  0.00    -0.218 NA
ATOM     16  N   UNL     1      -8.196   9.157  68.617  0.00  0.00    -0.218 NA
ATOM     17  N   UNL     1      -9.460   8.786  68.732  0.00  0.00    -0.289 NA
ENDBRANCH   8  13
ENDBRANCH   4   7
BRANCH   1  18
ATOM     18  C   UNL     1     -11.957  14.583  67.345  0.00  0.00    +0.121 C 
BRANCH  18  20
ATOM     19  C   UNL     1     -10.827  15.108  65.260  0.00  0.00    +0.226 C 
ATOM     20  N   UNL     1     -10.728  14.925  66.625  0.00  0.00    -0.267 N 
ATOM     21  O   UNL     1     -10.809  16.168  64.611  0.00  0.00    -0.275 OA
BRANCH  20  22
ATOM     22  C   UNL     1      -9.905  15.923  67.518  0.00  0.00    +0.179 C 
BRANCH  22  23
ATOM     23  C   UNL     1      -8.485  15.475  66.808  0.00  0.00    +0.029 C 
ATOM     24  C   UNL     1      -8.329  14.005  67.025  0.00  0.00    +0.002 C 
ATOM     25  C   UNL     1      -7.419  16.300  67.463  0.00  0.00    +0.002 C 
ENDBRANCH  22  23
BRANCH  22  26
ATOM     26  C   UNL     1     -10.143  17.209  66.567  0.00  0.00    +0.382 C 
ATOM     27  O   UNL     1     -10.915  18.087  67.357  0.00  0.00    -0.244 OA
ATOM     28  O   UNL     1      -9.100  17.839  66.215  0.00  0.00    -0.244 OA
ENDBRANCH  22  26
ENDBRANCH  20  22
BRANCH  19  29
ATOM     29  C   UNL     1     -11.438  13.937  64.551  0.00  0.00    +0.085 C 
BRANCH  29  30
ATOM     30  C   UNL     1     -10.404  12.884  64.271  0.00  0.00    +0.010 C 
BRANCH  30  32
ATOM     31  C   UNL     1     -12.568  12.078  63.532  0.00  0.00    +0.000 C 
ATOM     32  C   UNL     1     -11.099  11.689  63.631  0.00  0.00    +0.001 C 
ENDBRANCH  30  32
ENDBRANCH  29  30
ENDBRANCH  19  29
ENDBRANCH  18  20
ENDBRANCH   1  18
TORSDOF 10
ENDMDL
MODEL 6
REMARK VINA RESULT:      -6.7      3.424      4.655
REMARK  Name = 
REMARK  10 active torsions:
REMARK  status: ('A' for Active; 'I' for Inactive)
REMARK    1  A    between atoms: C_2  and  C_3
REMARK    2  A    between atoms: C_3  and  C_4
REMARK    3  A    between atoms: C_4  and  C_5
REMARK    4  A    between atoms: N_7  and  C_8
REMARK    5  A    between atoms: N_7  and  C_26
REMARK    6  A    between atoms: C_8  and  C_9
REMARK    7  A    between atoms: C_12  and  C_13
REMARK    8  A    between atoms: C_18  and  C_19
REMARK    9  A    between atoms: C_26  and  C_27
REMARK   10  A    between atoms: C_26  and  C_30
REMARK                            x       y       z     vdW  Elec       q    Type
REMARK                         _______ _______ _______ _____ _____    ______ ____
ROOT
ATOM      1  C   UNL     1     -11.408  13.862  66.271  0.00  0.00    -0.002 A 
ATOM      2  C   UNL     1     -11.004  14.452  65.103  0.00  0.00    -0.003 A 
ATOM      3  C   UNL     1     -10.416  15.689  65.115  0.00  0.00    -0.000 A 
ATOM      4  C   UNL     1     -10.076  16.279  66.320  0.00  0.00    -0.001 A 
ATOM      5  C   UNL     1     -10.722  15.815  67.448  0.00  0.00    -0.000 A 
ATOM      6  C   UNL     1     -11.428  14.628  67.417  0.00  0.00    -0.003 A 
ENDROOT
BRANCH   4   7
ATOM      7  C   UNL     1      -9.635  17.671  66.355  0.00  0.00    -0.006 A 
ATOM      8  C   UNL     1      -8.440  17.926  67.005  0.00  0.00    -0.015 A 
ATOM      9  C   UNL     1      -8.167  19.207  67.467  0.00  0.00    -0.007 A 
ATOM     10  C   UNL     1      -9.225  20.077  67.682  0.00  0.00    -0.001 A 
ATOM     11  C   UNL     1     -10.343  19.880  66.896  0.00  0.00    -0.000 A 
ATOM     12  C   UNL     1     -10.493  18.735  66.121  0.00  0.00    -0.001 A 
BRANCH   8  13
ATOM     13  C   UNL     1      -7.333  16.987  66.884  0.00  0.00    +0.044 A 
ATOM     14  N   UNL     1      -6.224  17.182  66.130  0.00  0.00    -0.289 NA
ATOM     15  N   UNL     1      -5.274  16.399  66.584  0.00  0.00    -0.218 NA
ATOM     16  N   UNL     1      -5.822  15.506  67.374  0.00  0.00    -0.218 NA
ATOM     17  N   UNL     1      -6.975  16.025  67.758  0.00  0.00    -0.289 NA
ENDBRANCH   8  13
ENDBRANCH   4   7
BRANCH   1  18
ATOM     18  C   UNL     1     -11.661  12.399  66.367  0.00  0.00    +0.121 C 
BRANCH  18  20
ATOM     19  C   UNL     1     -10.901  10.781  68.011  0.00  0.00    +0.226 C 
ATOM     20  N   UNL     1     -10.566  11.774  67.111  0.00  0.00    -0.267 N 
ATOM     21  O   UNL     1     -10.755   9.552  67.908  0.00  0.00    -0.275 OA
BRANCH  20  22
ATOM     22  C   UNL     1      -9.350  11.600  66.129  0.00  0.00    +0.179 C 
BRANCH  22  23
ATOM     23  C   UNL     1      -8.282  11.493  67.381  0.00  0.00    +0.029 C 
ATOM     24  C   UNL     1      -8.463  12.716  68.220  0.00  0.00    +0.002 C 
ATOM     25  C   UNL     1      -6.924  11.382  66.756  0.00  0.00    +0.002 C 
ENDBRANCH  22  23
BRANCH  22  26
ATOM     26  C   UNL     1      -9.527  10.002  65.952  0.00  0.00    +0.382 C 
ATOM     27  O   UNL     1     -10.148   9.858  64.692  0.00  0.00    -0.244 OA
ATOM     28  O   UNL     1      -8.454   9.326  65.922  0.00  0.00    -0.244 OA
ENDBRANCH  22  26
ENDBRANCH  20  22
BRANCH  19  29
ATOM     29  C   UNL     1     -11.920  11.220  69.020  0.00  0.00    +0.085 C 
BRANCH  29  30
ATOM     30  C   UNL     1     -11.656  10.585  70.355  0.00  0.00    +0.010 C 
BRANCH  30  32
ATOM     31  C   UNL     1     -13.159   9.522  71.932  0.00  0.00    +0.000 C 
ATOM     32  C   UNL     1     -12.855  10.852  71.257  0.00  0.00    +0.001 C 
ENDBRANCH  30  32
ENDBRANCH  29  30
ENDBRANCH  19  29
ENDBRANCH  18  20
ENDBRANCH   1  18
TORSDOF 10
ENDMDL
MODEL 7
REMARK VINA RESULT:      -6.6      3.846      6.471
REMARK  Name = 
REMARK  10 active torsions:
REMARK  status: ('A' for Active; 'I' for Inactive)
REMARK    1  A    between atoms: C_2  and  C_3
REMARK    2  A    between atoms: C_3  and  C_4
REMARK    3  A    between atoms: C_4  and  C_5
REMARK    4  A    between atoms: N_7  and  C_8
REMARK    5  A    between atoms: N_7  and  C_26
REMARK    6  A    between atoms: C_8  and  C_9
REMARK    7  A    between atoms: C_12  and  C_13
REMARK    8  A    between atoms: C_18  and  C_19
REMARK    9  A    between atoms: C_26  and  C_27
REMARK   10  A    between atoms: C_26  and  C_30
REMARK                            x       y       z     vdW  Elec       q    Type
REMARK                         _______ _______ _______ _____ _____    ______ ____
ROOT
ATOM      1  C   UNL     1     -11.577  11.088  68.109  0.00  0.00    -0.002 A 
ATOM      2  C   UNL     1     -11.761  12.346  67.600  0.00  0.00    -0.003 A 
ATOM      3  C   UNL     1     -12.038  13.400  68.431  0.00  0.00    -0.000 A 
ATOM      4  C   UNL     1     -11.969  13.232  69.803  0.00  0.00    -0.001 A 
ATOM      5  C   UNL     1     -12.057  11.940  70.281  0.00  0.00    -0.000 A 
ATOM      6  C   UNL     1     -11.907  10.863  69.428  0.00  0.00    -0.003 A 
ENDROOT
BRANCH   4   7
ATOM      7  C   UNL     1     -12.452  14.283  70.694  0.00  0.00    -0.006 A 
ATOM      8  C   UNL     1     -11.619  15.372  70.875  0.00  0.00    -0.015 A 
ATOM      9  C   UNL     1     -11.771  16.178  71.997  0.00  0.00    -0.007 A 
ATOM     10  C   UNL     1     -12.413  15.655  73.110  0.00  0.00    -0.001 A 
ATOM     11  C   UNL     1     -13.354  14.676  72.863  0.00  0.00    -0.000 A 
ATOM     12  C   UNL     1     -13.470  14.078  71.614  0.00  0.00    -0.001 A 
BRANCH   8  13
ATOM     13  C   UNL     1     -10.851  15.894  69.753  0.00  0.00    +0.044 A 
ATOM     14  N   UNL     1     -11.253  16.892  68.929  0.00  0.00    -0.289 NA
ATOM     15  N   UNL     1     -10.192  17.400  68.348  0.00  0.00    -0.218 NA
ATOM     16  N   UNL     1      -9.191  16.570  68.526  0.00  0.00    -0.218 NA
ATOM     17  N   UNL     1      -9.516  15.836  69.576  0.00  0.00    -0.289 NA
ENDBRANCH   8  13
ENDBRANCH   4   7
BRANCH   1  18
ATOM     18  C   UNL     1     -10.887  10.020  67.337  0.00  0.00    +0.121 C 
BRANCH  18  20
ATOM     19  C   UNL     1      -9.288  11.195  65.937  0.00  0.00    +0.226 C 
ATOM     20  N   UNL     1      -9.509  10.439  67.071  0.00  0.00    -0.267 N 
ATOM     21  O   UNL     1      -9.058  12.413  65.842  0.00  0.00    -0.275 OA
BRANCH  20  22
ATOM     22  C   UNL     1      -8.847  10.826  68.444  0.00  0.00    +0.179 C 
BRANCH  22  23
ATOM     23  C   UNL     1      -8.299   9.288  68.677  0.00  0.00    +0.029 C 
ATOM     24  C   UNL     1      -8.951   8.427  67.643  0.00  0.00    +0.002 C 
ATOM     25  C   UNL     1      -8.668   8.928  70.084  0.00  0.00    +0.002 C 
ENDBRANCH  22  23
BRANCH  22  26
ATOM     26  C   UNL     1      -7.469  11.374  67.797  0.00  0.00    +0.382 C 
ATOM     27  O   UNL     1      -7.198  12.561  68.511  0.00  0.00    -0.244 OA
ATOM     28  O   UNL     1      -6.458  10.618  67.926  0.00  0.00    -0.244 OA
ENDBRANCH  22  26
ENDBRANCH  20  22
BRANCH  19  29
ATOM     29  C   UNL     1      -9.796  10.543  64.685  0.00  0.00    +0.085 C 
BRANCH  29  30
ATOM     30  C   UNL     1     -10.175  11.575  63.662  0.00  0.00    +0.010 C 
BRANCH  30  32
ATOM     31  C   UNL     1     -12.008  13.135  63.955  0.00  0.00    +0.000 C 
ATOM     32  C   UNL     1     -11.695  11.681  63.629  0.00  0.00    +0.001 C 
ENDBRANCH  30  32
ENDBRANCH  29  30
ENDBRANCH  19  29
ENDBRANCH  18  20
ENDBRANCH   1  18
TORSDOF 10
ENDMDL
MODEL 8
REMARK VINA RESULT:      -6.6      3.170      7.517
REMARK  Name = 
REMARK  10 active torsions:
REMARK  status: ('A' for Active; 'I' for Inactive)
REMARK    1  A    between atoms: C_2  and  C_3
REMARK    2  A    between atoms: C_3  and  C_4
REMARK    3  A    between atoms: C_4  and  C_5
REMARK    4  A    between atoms: N_7  and  C_8
REMARK    5  A    between atoms: N_7  and  C_26
REMARK    6  A    between atoms: C_8  and  C_9
REMARK    7  A    between atoms: C_12  and  C_13
REMARK    8  A    between atoms: C_18  and  C_19
REMARK    9  A    between atoms: C_26  and  C_27
REMARK   10  A    between atoms: C_26  and  C_30
REMARK                            x       y       z     vdW  Elec       q    Type
REMARK                         _______ _______ _______ _____ _____    ______ ____
ROOT
ATOM      1  C   UNL     1      -8.877  16.295  67.925  0.00  0.00    -0.002 A 
ATOM      2  C   UNL     1     -10.174  16.137  68.339  0.00  0.00    -0.003 A 
ATOM      3  C   UNL     1     -11.025  15.306  67.660  0.00  0.00    -0.000 A 
ATOM      4  C   UNL     1     -10.536  14.493  66.652  0.00  0.00    -0.001 A 
ATOM      5  C   UNL     1      -9.333  14.857  66.081  0.00  0.00    -0.000 A 
ATOM      6  C   UNL     1      -8.520  15.793  66.692  0.00  0.00    -0.003 A 
ENDROOT
BRANCH   4   7
ATOM      7  C   UNL     1     -11.460  13.755  65.794  0.00  0.00    -0.006 A 
ATOM      8  C   UNL     1     -11.354  12.376  65.811  0.00  0.00    -0.015 A 
ATOM      9  C   UNL     1     -11.852  11.633  64.749  0.00  0.00    -0.007 A 
ATOM     10  C   UNL     1     -12.028  12.258  63.523  0.00  0.00    -0.001 A 
ATOM     11  C   UNL     1     -12.289  13.614  63.566  0.00  0.00    -0.000 A 
ATOM     12  C   UNL     1     -12.136  14.346  64.737  0.00  0.00    -0.001 A 
BRANCH   8  13
ATOM     13  C   UNL     1     -11.073  11.685  67.063  0.00  0.00    +0.044 A 
ATOM     14  N   UNL     1     -11.992  11.393  68.016  0.00  0.00    -0.289 NA
ATOM     15  N   UNL     1     -11.523  10.416  68.755  0.00  0.00    -0.218 NA
ATOM     16  N   UNL     1     -10.239  10.297  68.510  0.00  0.00    -0.218 NA
ATOM     17  N   UNL     1     -10.046  10.853  67.326  0.00  0.00    -0.289 NA
ENDBRANCH   8  13
ENDBRANCH   4   7
BRANCH   1  18
ATOM     18  C   UNL     1      -7.824  16.835  68.826  0.00  0.00    +0.121 C 
BRANCH  18  20
ATOM     19  C   UNL     1      -7.451  19.231  68.704  0.00  0.00    +0.226 C 
ATOM     20  N   UNL     1      -7.185  17.982  68.178  0.00  0.00    -0.267 N 
ATOM     21  O   UNL     1      -6.720  19.958  69.397  0.00  0.00    -0.275 OA
BRANCH  20  22
ATOM     22  C   UNL     1      -5.721  17.564  67.786  0.00  0.00    +0.179 C 
BRANCH  22  23
ATOM     23  C   UNL     1      -5.614  18.775  66.672  0.00  0.00    +0.029 C 
ATOM     24  C   UNL     1      -6.755  18.603  65.723  0.00  0.00    +0.002 C 
ATOM     25  C   UNL     1      -4.266  18.628  66.032  0.00  0.00    +0.002 C 
ENDBRANCH  22  23
BRANCH  22  26
ATOM     26  C   UNL     1      -5.003  18.394  68.973  0.00  0.00    +0.382 C 
ATOM     27  O   UNL     1      -4.727  17.423  69.960  0.00  0.00    -0.244 OA
ATOM     28  O   UNL     1      -3.902  18.949  68.674  0.00  0.00    -0.244 OA
ENDBRANCH  22  26
ENDBRANCH  20  22
BRANCH  19  29
ATOM     29  C   UNL     1      -8.917  19.536  68.786  0.00  0.00    +0.085 C 
BRANCH  29  30
ATOM     30  C   UNL     1      -9.400  20.179  67.518  0.00  0.00    +0.010 C 
BRANCH  30  32
ATOM     31  C   UNL     1     -10.522  18.853  65.827  0.00  0.00    +0.000 C 
ATOM     32  C   UNL     1     -10.746  19.567  67.153  0.00  0.00    +0.001 C 
ENDBRANCH  30  32
ENDBRANCH  29  30
ENDBRANCH  19  29
ENDBRANCH  18  20
ENDBRANCH   1  18
TORSDOF 10
ENDMDL
MODEL 9
REMARK VINA RESULT:      -6.6      2.259      3.015
REMARK  Name = 
REMARK  10 active torsions:
REMARK  status: ('A' for Active; 'I' for Inactive)
REMARK    1  A    between atoms: C_2  and  C_3
REMARK    2  A    between atoms: C_3  and  C_4
REMARK    3  A    between atoms: C_4  and  C_5
REMARK    4  A    between atoms: N_7  and  C_8
REMARK    5  A    between atoms: N_7  and  C_26
REMARK    6  A    between atoms: C_8  and  C_9
REMARK    7  A    between atoms: C_12  and  C_13
REMARK    8  A    between atoms: C_18  and  C_19
REMARK    9  A    between atoms: C_26  and  C_27
REMARK   10  A    between atoms: C_26  and  C_30
REMARK                            x       y       z     vdW  Elec       q    Type
REMARK                         _______ _______ _______ _____ _____    ______ ____
ROOT
ATOM      1  C   UNL     1     -10.040  16.277  65.868  0.00  0.00    -0.002 A 
ATOM      2  C   UNL     1     -10.423  17.506  66.334  0.00  0.00    -0.003 A 
ATOM      3  C   UNL     1      -9.488  18.413  66.756  0.00  0.00    -0.000 A 
ATOM      4  C   UNL     1      -8.142  18.158  66.559  0.00  0.00    -0.001 A 
ATOM      5  C   UNL     1      -7.778  16.842  66.354  0.00  0.00    -0.000 A 
ATOM      6  C   UNL     1      -8.730  15.888  66.052  0.00  0.00    -0.003 A 
ENDROOT
BRANCH   4   7
ATOM      7  C   UNL     1      -7.136  19.017  67.178  0.00  0.00    -0.006 A 
ATOM      8  C   UNL     1      -6.017  19.307  66.417  0.00  0.00    -0.015 A 
ATOM      9  C   UNL     1      -4.848  19.723  67.042  0.00  0.00    -0.007 A 
ATOM     10  C   UNL     1      -4.664  19.418  68.382  0.00  0.00    -0.001 A 
ATOM     11  C   UNL     1      -5.813  19.292  69.139  0.00  0.00    -0.000 A 
ATOM     12  C   UNL     1      -7.069  19.227  68.547  0.00  0.00    -0.001 A 
BRANCH   8  13
ATOM     13  C   UNL     1      -6.153  19.540  64.986  0.00  0.00    +0.044 A 
ATOM     14  N   UNL     1      -6.421  20.738  64.412  0.00  0.00    -0.289 NA
ATOM     15  N   UNL     1      -6.038  20.689  63.158  0.00  0.00    -0.218 NA
ATOM     16  N   UNL     1      -5.836  19.432  62.840  0.00  0.00    -0.218 NA
ATOM     17  N   UNL     1      -5.638  18.799  63.983  0.00  0.00    -0.289 NA
ENDBRANCH   8  13
ENDBRANCH   4   7
BRANCH   1  18
ATOM     18  C   UNL     1     -10.940  15.435  65.034  0.00  0.00    +0.121 C 
BRANCH  18  20
ATOM     19  C   UNL     1     -11.861  13.686  66.445  0.00  0.00    +0.226 C 
ATOM     20  N   UNL     1     -10.897  14.058  65.528  0.00  0.00    -0.267 N 
ATOM     21  O   UNL     1     -12.867  12.976  66.276  0.00  0.00    -0.275 OA
BRANCH  20  22
ATOM     22  C   UNL     1     -10.525  13.122  64.320  0.00  0.00    +0.179 C 
BRANCH  22  23
ATOM     23  C   UNL     1     -10.255  11.841  65.324  0.00  0.00    +0.029 C 
ATOM     24  C   UNL     1      -9.175  12.247  66.274  0.00  0.00    +0.002 C 
ATOM     25  C   UNL     1      -9.879  10.694  64.436  0.00  0.00    +0.002 C 
ENDBRANCH  22  23
BRANCH  22  26
ATOM     26  C   UNL     1     -12.051  12.712  63.971  0.00  0.00    +0.382 C 
ATOM     27  O   UNL     1     -12.508  13.753  63.135  0.00  0.00    -0.244 OA
ATOM     28  O   UNL     1     -12.200  11.625  63.334  0.00  0.00    -0.244 OA
ENDBRANCH  22  26
ENDBRANCH  20  22
BRANCH  19  29
ATOM     29  C   UNL     1     -11.906  14.580  67.648  0.00  0.00    +0.085 C 
BRANCH  29  30
ATOM     30  C   UNL     1     -11.144  13.974  68.791  0.00  0.00    +0.010 C 
BRANCH  30  32
ATOM     31  C   UNL     1      -9.441  15.543  69.508  0.00  0.00    +0.000 C 
ATOM     32  C   UNL     1     -10.857  15.070  69.810  0.00  0.00    +0.001 C 
ENDBRANCH  30  32
ENDBRANCH  29  30
ENDBRANCH  19  29
ENDBRANCH  18  20
ENDBRANCH   1  18
TORSDOF 10
ENDMDL
