MODEL 1
REMARK VINA RESULT:      -4.4      0.000      0.000
REMARK  Name = 
REMARK  1 active torsions:
REMARK  status: ('A' for Active; 'I' for Inactive)
REMARK    1  A    between atoms: C_2  and  C_4
REMARK                            x       y       z     vdW  Elec       q    Type
REMARK                         _______ _______ _______ _____ _____    ______ ____
ROOT
ATOM      1  C   UNL     1     -12.381  15.283  70.835  0.00  0.00    +0.080 A 
ATOM      2  C   UNL     1     -13.089  14.167  71.258  0.00  0.00    +0.007 A 
ATOM      3  C   UNL     1     -13.503  14.129  72.582  0.00  0.00    +0.000 A 
ATOM      4  C   UNL     1     -12.756  14.860  73.498  0.00  0.00    +0.000 A 
ATOM      5  C   UNL     1     -12.307  16.096  73.048  0.00  0.00    +0.000 A 
ATOM      6  C   UNL     1     -11.842  16.177  71.744  0.00  0.00    +0.007 A 
ENDROOT
BRANCH   1   8
ATOM      7  O   UNL     1     -12.077  14.252  68.759  0.00  0.00    -0.241 OA
ATOM      8  C   UNL     1     -11.906  15.299  69.451  0.00  0.00    +0.388 C 
ATOM      9  O   UNL     1     -11.710  16.524  68.807  0.00  0.00    -0.241 OA
ENDBRANCH   1   8
TORSDOF 1
ENDMDL
MODEL 2
REMARK VINA RESULT:      -4.3      5.163      6.170
REMARK  Name = 
REMARK  1 active torsions:
REMARK  status: ('A' for Active; 'I' for Inactive)
REMARK    1  A    between atoms: C_2  and  C_4
REMARK                            x       y       z     vdW  Elec       q    Type
REMARK                         _______ _______ _______ _____ _____    ______ ____
ROOT
ATOM      1  C   UNL     1     -11.474  14.766  65.478  0.00  0.00    +0.080 A 
ATOM      2  C   UNL     1     -11.976  13.900  64.517  0.00  0.00    +0.007 A 
ATOM      3  C   UNL     1     -12.383  12.640  64.934  0.00  0.00    +0.000 A 
ATOM      4  C   UNL     1     -11.780  12.128  66.076  0.00  0.00    +0.000 A 
ATOM      5  C   UNL     1     -11.554  13.049  67.093  0.00  0.00    +0.000 A 
ATOM      6  C   UNL     1     -11.105  14.310  66.732  0.00  0.00    +0.007 A 
ENDROOT
BRANCH   1   8
ATOM      7  O   UNL     1      -9.855  16.451  65.410  0.00  0.00    -0.241 OA
ATOM      8  C   UNL     1     -11.004  16.076  65.028  0.00  0.00    +0.388 C 
ATOM      9  O   UNL     1     -11.574  16.658  63.892  0.00  0.00    -0.241 OA
ENDBRANCH   1   8
TORSDOF 1
ENDMDL
MODEL 3
REMARK VINA RESULT:      -4.3      6.025      6.529
REMARK  Name = 
REMARK  1 active torsions:
REMARK  status: ('A' for Active; 'I' for Inactive)
REMARK    1  A    between atoms: C_2  and  C_4
REMARK                            x       y       z     vdW  Elec       q    Type
REMARK                         _______ _______ _______ _____ _____    ______ ____
ROOT
ATOM      1  C   UNL     1     -11.020  14.603  65.167  0.00  0.00    +0.080 A 
ATOM      2  C   UNL     1     -10.145  13.989  66.051  0.00  0.00    +0.007 A 
ATOM      3  C   UNL     1     -10.309  12.629  66.282  0.00  0.00    +0.000 A 
ATOM      4  C   UNL     1     -11.585  12.109  66.100  0.00  0.00    +0.000 A 
ATOM      5  C   UNL     1     -12.286  12.619  65.013  0.00  0.00    +0.000 A 
ATOM      6  C   UNL     1     -12.189  13.980  64.765  0.00  0.00    +0.007 A 
ENDROOT
BRANCH   1   8
ATOM      7  O   UNL     1      -9.831  16.600  65.421  0.00  0.00    -0.241 OA
ATOM      8  C   UNL     1     -10.873  16.044  64.961  0.00  0.00    +0.388 C 
ATOM      9  O   UNL     1     -11.589  16.668  63.935  0.00  0.00    -0.241 OA
ENDBRANCH   1   8
TORSDOF 1
ENDMDL
MODEL 4
REMARK VINA RESULT:      -4.3      0.714      1.967
REMARK  Name = 
REMARK  1 active torsions:
REMARK  status: ('A' for Active; 'I' for Inactive)
REMARK    1  A    between atoms: C_2  and  C_4
REMARK                            x       y       z     vdW  Elec       q    Type
REMARK                         _______ _______ _______ _____ _____    ______ ____
ROOT
ATOM      1  C   UNL     1     -12.472  15.486  70.654  0.00  0.00    +0.080 A 
ATOM      2  C   UNL     1     -11.694  16.138  71.598  0.00  0.00    +0.007 A 
ATOM      3  C   UNL     1     -12.095  16.066  72.926  0.00  0.00    +0.000 A 
ATOM      4  C   UNL     1     -13.449  15.867  73.165  0.00  0.00    +0.000 A 
ATOM      5  C   UNL     1     -14.081  14.980  72.301  0.00  0.00    +0.000 A 
ATOM      6  C   UNL     1     -13.747  15.041  70.957  0.00  0.00    +0.007 A 
ENDROOT
BRANCH   1   8
ATOM      7  O   UNL     1     -11.482  16.665  68.894  0.00  0.00    -0.241 OA
ATOM      8  C   UNL     1     -12.072  15.602  69.251  0.00  0.00    +0.388 C 
ATOM      9  O   UNL     1     -11.931  14.445  68.478  0.00  0.00    -0.241 OA
ENDBRANCH   1   8
TORSDOF 1
ENDMDL
MODEL 5
REMARK VINA RESULT:      -4.2      5.095      6.078
REMARK  Name = 
REMARK  1 active torsions:
REMARK  status: ('A' for Active; 'I' for Inactive)
REMARK    1  A    between atoms: C_2  and  C_4
REMARK                            x       y       z     vdW  Elec       q    Type
REMARK                         _______ _______ _______ _____ _____    ______ ____
ROOT
ATOM      1  C   UNL     1     -10.230  17.735  66.426  0.00  0.00    +0.080 A 
ATOM      2  C   UNL     1     -10.467  19.027  65.979  0.00  0.00    +0.007 A 
ATOM      3  C   UNL     1     -10.118  20.075  66.820  0.00  0.00    +0.000 A 
ATOM      4  C   UNL     1     -10.099  19.809  68.184  0.00  0.00    +0.000 A 
ATOM      5  C   UNL     1      -9.594  18.563  68.540  0.00  0.00    +0.000 A 
ATOM      6  C   UNL     1      -9.949  17.476  67.756  0.00  0.00    +0.007 A 
ENDROOT
BRANCH   1   8
ATOM      7  O   UNL     1     -10.842  15.503  66.094  0.00  0.00    -0.241 OA
ATOM      8  C   UNL     1     -10.642  16.633  65.556  0.00  0.00    +0.388 C 
ATOM      9  O   UNL     1     -11.223  16.916  64.316  0.00  0.00    -0.241 OA
ENDBRANCH   1   8
TORSDOF 1
ENDMDL
MODEL 6
REMARK VINA RESULT:      -4.1      2.709      3.549
REMARK  Name = 
REMARK  1 active torsions:
REMARK  status: ('A' for Active; 'I' for Inactive)
REMARK    1  A    between atoms: C_2  and  C_4
REMARK                            x       y       z     vdW  Elec       q    Type
REMARK                         _______ _______ _______ _____ _____    ______ ____
ROOT
ATOM      1  C   UNL     1     -12.376  15.198  72.109  0.00  0.00    +0.080 A 
ATOM      2  C   UNL     1     -12.867  13.954  71.742  0.00  0.00    +0.007 A 
ATOM      3  C   UNL     1     -12.326  13.354  70.612  0.00  0.00    +0.000 A 
ATOM      4  C   UNL     1     -11.792  14.197  69.646  0.00  0.00    +0.000 A 
ATOM      5  C   UNL     1     -11.089  15.292  70.135  0.00  0.00    +0.000 A 
ATOM      6  C   UNL     1     -11.610  15.953  71.237  0.00  0.00    +0.007 A 
ENDROOT
BRANCH   1   8
ATOM      7  O   UNL     1     -14.153  16.308  73.146  0.00  0.00    -0.241 OA
ATOM      8  C   UNL     1     -12.979  15.847  73.273  0.00  0.00    +0.388 C 
ATOM      9  O   UNL     1     -12.487  15.562  74.550  0.00  0.00    -0.241 OA
ENDBRANCH   1   8
TORSDOF 1
ENDMDL
MODEL 7
REMARK VINA RESULT:      -4.0      4.552      5.635
REMARK  Name = 
REMARK  1 active torsions:
REMARK  status: ('A' for Active; 'I' for Inactive)
REMARK    1  A    between atoms: C_2  and  C_4
REMARK                            x       y       z     vdW  Elec       q    Type
REMARK                         _______ _______ _______ _____ _____    ______ ____
ROOT
ATOM      1  C   UNL     1     -12.117  13.047  65.796  0.00  0.00    +0.080 A 
ATOM      2  C   UNL     1     -11.483  11.874  66.177  0.00  0.00    +0.007 A 
ATOM      3  C   UNL     1     -11.172  11.717  67.522  0.00  0.00    +0.000 A 
ATOM      4  C   UNL     1     -10.986  12.876  68.266  0.00  0.00    +0.000 A 
ATOM      5  C   UNL     1     -11.860  13.917  67.972  0.00  0.00    +0.000 A 
ATOM      6  C   UNL     1     -12.169  14.143  66.640  0.00  0.00    +0.007 A 
ENDROOT
BRANCH   1   8
ATOM      7  O   UNL     1     -12.896  12.248  63.741  0.00  0.00    -0.241 OA
ATOM      8  C   UNL     1     -12.402  13.229  64.372  0.00  0.00    +0.388 C 
ATOM      9  O   UNL     1     -12.557  14.523  63.863  0.00  0.00    -0.241 OA
ENDBRANCH   1   8
TORSDOF 1
ENDMDL
MODEL 8
REMARK VINA RESULT:      -4.0      2.391      3.831
REMARK  Name = 
REMARK  1 active torsions:
REMARK  status: ('A' for Active; 'I' for Inactive)
REMARK    1  A    between atoms: C_2  and  C_4
REMARK                            x       y       z     vdW  Elec       q    Type
REMARK                         _______ _______ _______ _____ _____    ______ ____
ROOT
ATOM      1  C   UNL     1     -12.762  14.948  71.073  0.00  0.00    +0.080 A 
ATOM      2  C   UNL     1     -11.948  16.069  71.011  0.00  0.00    +0.007 A 
ATOM      3  C   UNL     1     -11.019  16.136  69.981  0.00  0.00    +0.000 A 
ATOM      4  C   UNL     1     -10.574  14.929  69.454  0.00  0.00    +0.000 A 
ATOM      5  C   UNL     1     -11.547  13.945  69.319  0.00  0.00    +0.000 A 
ATOM      6  C   UNL     1     -12.472  13.809  70.342  0.00  0.00    +0.007 A 
ENDROOT
BRANCH   1   8
ATOM      7  O   UNL     1     -14.378  15.896  72.472  0.00  0.00    -0.241 OA
ATOM      8  C   UNL     1     -13.707  14.860  72.187  0.00  0.00    +0.388 C 
ATOM      9  O   UNL     1     -14.174  13.605  72.594  0.00  0.00    -0.241 OA
ENDBRANCH   1   8
TORSDOF 1
ENDMDL
MODEL 9
REMARK VINA RESULT:      -4.0      4.244      5.429
REMARK  Name = 
REMARK  1 active torsions:
REMARK  status: ('A' for Active; 'I' for Inactive)
REMARK    1  A    between atoms: C_2  and  C_4
REMARK                            x       y       z     vdW  Elec       q    Type
REMARK                         _______ _______ _______ _____ _____    ______ ____
ROOT
ATOM      1  C   UNL     1     -11.957  13.183  66.080  0.00  0.00    +0.080 A 
ATOM      2  C   UNL     1     -12.113  14.314  66.868  0.00  0.00    +0.007 A 
ATOM      3  C   UNL     1     -11.644  14.261  68.173  0.00  0.00    +0.000 A 
ATOM      4  C   UNL     1     -11.581  13.008  68.770  0.00  0.00    +0.000 A 
ATOM      5  C   UNL     1     -11.157  11.975  67.941  0.00  0.00    +0.000 A 
ATOM      6  C   UNL     1     -11.633  11.959  66.639  0.00  0.00    +0.007 A 
ENDROOT
BRANCH   1   8
ATOM      7  O   UNL     1     -13.243  12.273  64.353  0.00  0.00    -0.241 OA
ATOM      8  C   UNL     1     -12.493  13.227  64.719  0.00  0.00    +0.388 C 
ATOM      9  O   UNL     1     -12.558  14.450  64.045  0.00  0.00    -0.241 OA
ENDBRANCH   1   8
TORSDOF 1
ENDMDL
