MODEL 1
REMARK VINA RESULT:      -6.5      0.000      0.000
REMARK  Name = 
REMARK  2 active torsions:
REMARK  status: ('A' for Active; 'I' for Inactive)
REMARK    1  A    between atoms: C_2  and  C_3
REMARK    2  A    between atoms: C_10  and  C_11
REMARK                            x       y       z     vdW  Elec       q    Type
REMARK                         _______ _______ _______ _____ _____    ______ ____
ROOT
ATOM      1  C   UNL     1     -11.472  13.629  66.516  0.00  0.00    +0.065 A 
ATOM      2  C   UNL     1     -11.256  14.908  66.019  0.00  0.00    +0.049 A 
ATOM      3  C   UNL     1     -11.652  15.227  64.726  0.00  0.00    +0.174 A 
ATOM      4  N   UNL     1     -11.313  16.528  64.256  0.00  0.00    -0.107 NA
ATOM      5  N   UNL     1     -12.438  14.378  64.047  0.00  0.00    -0.193 NA
ATOM      6  C   UNL     1     -12.398  13.083  64.403  0.00  0.00    +0.258 A 
ATOM      7  N   UNL     1     -12.979  12.148  63.489  0.00  0.00    -0.086 NA
ATOM      8  N   UNL     1     -11.993  12.730  65.643  0.00  0.00    -0.215 NA
ENDROOT
BRANCH   2   9
ATOM      9  C   UNL     1     -10.324  15.756  66.773  0.00  0.00    +0.004 A 
ATOM     10  C   UNL     1      -8.976  15.789  66.434  0.00  0.00    +0.001 A 
ATOM     11  C   UNL     1      -8.229  16.960  66.485  0.00  0.00    +0.011 A 
ATOM     12  C   UNL     1      -8.852  18.140  66.860  0.00  0.00    +0.058 A 
ATOM     13 CL   UNL     1      -8.448  19.688  66.125  0.00  0.00    -0.082 Cl
ATOM     14  C   UNL     1      -9.997  17.974  67.632  0.00  0.00    +0.011 A 
ATOM     15  C   UNL     1     -10.793  16.840  67.507  0.00  0.00    +0.001 A 
ENDBRANCH   2   9
BRANCH   1  17
ATOM     16  C   UNL     1     -11.686  12.080  68.449  0.00  0.00    +0.007 C 
ATOM     17  C   UNL     1     -11.688  13.509  67.991  0.00  0.00    +0.046 C 
ENDBRANCH   1  17
TORSDOF 2
ENDMDL
MODEL 2
REMARK VINA RESULT:      -6.2      1.575      1.967
REMARK  Name = 
REMARK  2 active torsions:
REMARK  status: ('A' for Active; 'I' for Inactive)
REMARK    1  A    between atoms: C_2  and  C_3
REMARK    2  A    between atoms: C_10  and  C_11
REMARK                            x       y       z     vdW  Elec       q    Type
REMARK                         _______ _______ _______ _____ _____    ______ ____
ROOT
ATOM      1  C   UNL     1     -10.984  13.722  66.216  0.00  0.00    +0.065 A 
ATOM      2  C   UNL     1     -11.022  15.021  65.724  0.00  0.00    +0.049 A 
ATOM      3  C   UNL     1     -11.701  15.297  64.543  0.00  0.00    +0.174 A 
ATOM      4  N   UNL     1     -11.616  16.632  64.055  0.00  0.00    -0.107 NA
ATOM      5  N   UNL     1     -12.500  14.364  64.007  0.00  0.00    -0.193 NA
ATOM      6  C   UNL     1     -12.240  13.081  64.309  0.00  0.00    +0.258 A 
ATOM      7  N   UNL     1     -12.875  12.088  63.500  0.00  0.00    -0.086 NA
ATOM      8  N   UNL     1     -11.559  12.772  65.435  0.00  0.00    -0.215 NA
ENDROOT
BRANCH   2   9
ATOM      9  C   UNL     1     -10.066  15.972  66.306  0.00  0.00    +0.004 A 
ATOM     10  C   UNL     1     -10.381  16.657  67.473  0.00  0.00    +0.001 A 
ATOM     11  C   UNL     1      -9.434  16.920  68.455  0.00  0.00    +0.011 A 
ATOM     12  C   UNL     1      -8.137  16.463  68.279  0.00  0.00    +0.058 A 
ATOM     13 CL   UNL     1      -7.166  15.860  69.619  0.00  0.00    -0.082 Cl
ATOM     14  C   UNL     1      -7.771  16.245  66.955  0.00  0.00    +0.011 A 
ATOM     15  C   UNL     1      -8.713  15.889  65.996  0.00  0.00    +0.001 A 
ENDBRANCH   2   9
BRANCH   1  17
ATOM     16  C   UNL     1      -9.648  12.833  68.115  0.00  0.00    +0.007 C 
ATOM     17  C   UNL     1     -10.889  13.569  67.700  0.00  0.00    +0.046 C 
ENDBRANCH   1  17
TORSDOF 2
ENDMDL
MODEL 3
REMARK VINA RESULT:      -6.1      3.272      5.171
REMARK  Name = 
REMARK  2 active torsions:
REMARK  status: ('A' for Active; 'I' for Inactive)
REMARK    1  A    between atoms: C_2  and  C_3
REMARK    2  A    between atoms: C_10  and  C_11
REMARK                            x       y       z     vdW  Elec       q    Type
REMARK                         _______ _______ _______ _____ _____    ______ ____
ROOT
ATOM      1  C   UNL     1     -10.184  13.960  66.453  0.00  0.00    +0.065 A 
ATOM      2  C   UNL     1     -11.164  13.073  66.028  0.00  0.00    +0.049 A 
ATOM      3  C   UNL     1     -12.080  13.463  65.058  0.00  0.00    +0.174 A 
ATOM      4  N   UNL     1     -13.111  12.533  64.742  0.00  0.00    -0.107 NA
ATOM      5  N   UNL     1     -11.879  14.601  64.378  0.00  0.00    -0.193 NA
ATOM      6  C   UNL     1     -11.131  15.548  64.969  0.00  0.00    +0.258 A 
ATOM      7  N   UNL     1     -11.183  16.858  64.396  0.00  0.00    -0.086 NA
ATOM      8  N   UNL     1     -10.248  15.213  65.936  0.00  0.00    -0.215 NA
ENDROOT
BRANCH   2   9
ATOM      9  C   UNL     1     -11.383  11.885  66.864  0.00  0.00    +0.004 A 
ATOM     10  C   UNL     1     -10.774  10.679  66.539  0.00  0.00    +0.001 A 
ATOM     11  C   UNL     1     -10.278   9.815  67.509  0.00  0.00    +0.011 A 
ATOM     12  C   UNL     1     -10.369  10.180  68.843  0.00  0.00    +0.058 A 
ATOM     13 CL   UNL     1      -9.099   9.807  70.004  0.00  0.00    -0.082 Cl
ATOM     14  C   UNL     1     -11.377  11.094  69.130  0.00  0.00    +0.011 A 
ATOM     15  C   UNL     1     -11.803  12.019  68.183  0.00  0.00    +0.001 A 
ENDBRANCH   2   9
BRANCH   1  17
ATOM     16  C   UNL     1      -8.535  13.785  68.306  0.00  0.00    +0.007 C 
ATOM     17  C   UNL     1      -8.891  13.364  66.910  0.00  0.00    +0.046 C 
ENDBRANCH   1  17
TORSDOF 2
ENDMDL
MODEL 4
REMARK VINA RESULT:      -5.9      4.003      5.265
REMARK  Name = 
REMARK  2 active torsions:
REMARK  status: ('A' for Active; 'I' for Inactive)
REMARK    1  A    between atoms: C_2  and  C_3
REMARK    2  A    between atoms: C_10  and  C_11
REMARK                            x       y       z     vdW  Elec       q    Type
REMARK                         _______ _______ _______ _____ _____    ______ ____
ROOT
ATOM      1  C   UNL     1     -12.229  13.681  69.528  0.00  0.00    +0.065 A 
ATOM      2  C   UNL     1     -11.615  14.686  68.792  0.00  0.00    +0.049 A 
ATOM      3  C   UNL     1     -11.650  16.000  69.245  0.00  0.00    +0.174 A 
ATOM      4  N   UNL     1     -11.081  16.986  68.390  0.00  0.00    -0.107 NA
ATOM      5  N   UNL     1     -12.074  16.258  70.491  0.00  0.00    -0.193 NA
ATOM      6  C   UNL     1     -12.900  15.363  71.058  0.00  0.00    +0.258 A 
ATOM      7  N   UNL     1     -13.594  15.786  72.236  0.00  0.00    -0.086 NA
ATOM      8  N   UNL     1     -12.915  14.082  70.628  0.00  0.00    -0.215 NA
ENDROOT
BRANCH   2   9
ATOM      9  C   UNL     1     -11.246  14.356  67.409  0.00  0.00    +0.004 A 
ATOM     10  C   UNL     1      -9.931  14.037  67.092  0.00  0.00    +0.001 A 
ATOM     11  C   UNL     1      -9.611  13.054  66.163  0.00  0.00    +0.011 A 
ATOM     12  C   UNL     1     -10.636  12.350  65.550  0.00  0.00    +0.058 A 
ATOM     13 CL   UNL     1     -10.499  10.635  65.175  0.00  0.00    -0.082 Cl
ATOM     14  C   UNL     1     -11.860  13.010  65.518  0.00  0.00    +0.011 A 
ATOM     15  C   UNL     1     -12.211  13.923  66.506  0.00  0.00    +0.001 A 
ENDBRANCH   2   9
BRANCH   1  17
ATOM     16  C   UNL     1     -12.161  11.386  70.482  0.00  0.00    +0.007 C 
ATOM     17  C   UNL     1     -11.629  12.315  69.430  0.00  0.00    +0.046 C 
ENDBRANCH   1  17
TORSDOF 2
ENDMDL
MODEL 5
REMARK VINA RESULT:      -5.9      3.055      5.265
REMARK  Name = 
REMARK  2 active torsions:
REMARK  status: ('A' for Active; 'I' for Inactive)
REMARK    1  A    between atoms: C_2  and  C_3
REMARK    2  A    between atoms: C_10  and  C_11
REMARK                            x       y       z     vdW  Elec       q    Type
REMARK                         _______ _______ _______ _____ _____    ______ ____
ROOT
ATOM      1  C   UNL     1      -9.966  16.615  68.127  0.00  0.00    +0.065 A 
ATOM      2  C   UNL     1     -10.259  16.162  66.847  0.00  0.00    +0.049 A 
ATOM      3  C   UNL     1     -10.473  17.073  65.820  0.00  0.00    +0.174 A 
ATOM      4  N   UNL     1     -10.861  16.535  64.560  0.00  0.00    -0.107 NA
ATOM      5  N   UNL     1     -10.176  18.367  66.011  0.00  0.00    -0.193 NA
ATOM      6  C   UNL     1     -10.175  18.818  67.277  0.00  0.00    +0.258 A 
ATOM      7  N   UNL     1     -10.175  20.238  67.453  0.00  0.00    -0.086 NA
ATOM      8  N   UNL     1      -9.996  17.959  68.305  0.00  0.00    -0.215 NA
ENDROOT
BRANCH   2   9
ATOM      9  C   UNL     1     -10.651  14.752  66.723  0.00  0.00    +0.004 A 
ATOM     10  C   UNL     1     -11.990  14.387  66.809  0.00  0.00    +0.001 A 
ATOM     11  C   UNL     1     -12.535  13.382  66.018  0.00  0.00    +0.011 A 
ATOM     12  C   UNL     1     -11.725  12.740  65.094  0.00  0.00    +0.058 A 
ATOM     13 CL   UNL     1     -12.321  12.238  63.515  0.00  0.00    -0.082 Cl
ATOM     14  C   UNL     1     -10.365  12.780  65.383  0.00  0.00    +0.011 A 
ATOM     15  C   UNL     1      -9.811  13.839  66.095  0.00  0.00    +0.001 A 
ENDBRANCH   2   9
BRANCH   1  17
ATOM     16  C   UNL     1      -7.646  15.916  68.688  0.00  0.00    +0.007 C 
ATOM     17  C   UNL     1      -9.108  15.728  68.973  0.00  0.00    +0.046 C 
ENDBRANCH   1  17
TORSDOF 2
ENDMDL
MODEL 6
REMARK VINA RESULT:      -5.9      1.611      2.348
REMARK  Name = 
REMARK  2 active torsions:
REMARK  status: ('A' for Active; 'I' for Inactive)
REMARK    1  A    between atoms: C_2  and  C_3
REMARK    2  A    between atoms: C_10  and  C_11
REMARK                            x       y       z     vdW  Elec       q    Type
REMARK                         _______ _______ _______ _____ _____    ______ ____
ROOT
ATOM      1  C   UNL     1     -10.390  15.175  67.343  0.00  0.00    +0.065 A 
ATOM      2  C   UNL     1     -10.566  16.014  66.249  0.00  0.00    +0.049 A 
ATOM      3  C   UNL     1     -11.258  15.563  65.132  0.00  0.00    +0.174 A 
ATOM      4  N   UNL     1     -11.315  16.446  64.016  0.00  0.00    -0.107 NA
ATOM      5  N   UNL     1     -11.944  14.413  65.199  0.00  0.00    -0.193 NA
ATOM      6  C   UNL     1     -11.548  13.511  66.113  0.00  0.00    +0.258 A 
ATOM      7  N   UNL     1     -12.063  12.184  65.971  0.00  0.00    -0.086 NA
ATOM      8  N   UNL     1     -10.849  13.906  67.200  0.00  0.00    -0.215 NA
ENDROOT
BRANCH   2   9
ATOM      9  C   UNL     1      -9.725  17.217  66.204  0.00  0.00    +0.004 A 
ATOM     10  C   UNL     1     -10.217  18.433  66.664  0.00  0.00    +0.001 A 
ATOM     11  C   UNL     1      -9.422  19.339  67.354  0.00  0.00    +0.011 A 
ATOM     12  C   UNL     1      -8.101  19.011  67.618  0.00  0.00    +0.058 A 
ATOM     13 CL   UNL     1      -7.307  19.457  69.125  0.00  0.00    -0.082 Cl
ATOM     14  C   UNL     1      -7.550  18.073  66.751  0.00  0.00    +0.011 A 
ATOM     15  C   UNL     1      -8.340  17.108  66.136  0.00  0.00    +0.001 A 
ENDBRANCH   2   9
BRANCH   1  17
ATOM     16  C   UNL     1     -11.630  15.930  69.362  0.00  0.00    +0.007 C 
ATOM     17  C   UNL     1     -10.295  15.830  68.683  0.00  0.00    +0.046 C 
ENDBRANCH   1  17
TORSDOF 2
ENDMDL
MODEL 7
REMARK VINA RESULT:      -5.8      3.313      5.308
REMARK  Name = 
REMARK  2 active torsions:
REMARK  status: ('A' for Active; 'I' for Inactive)
REMARK    1  A    between atoms: C_2  and  C_3
REMARK    2  A    between atoms: C_10  and  C_11
REMARK                            x       y       z     vdW  Elec       q    Type
REMARK                         _______ _______ _______ _____ _____    ______ ____
ROOT
ATOM      1  C   UNL     1     -11.578  15.724  68.707  0.00  0.00    +0.065 A 
ATOM      2  C   UNL     1     -10.950  15.122  67.624  0.00  0.00    +0.049 A 
ATOM      3  C   UNL     1      -9.964  15.807  66.923  0.00  0.00    +0.174 A 
ATOM      4  N   UNL     1      -9.435  15.160  65.770  0.00  0.00    -0.107 NA
ATOM      5  N   UNL     1      -9.467  16.946  67.426  0.00  0.00    -0.193 NA
ATOM      6  C   UNL     1     -10.246  17.637  68.275  0.00  0.00    +0.258 A 
ATOM      7  N   UNL     1      -9.854  18.985  68.553  0.00  0.00    -0.086 NA
ATOM      8  N   UNL     1     -11.232  17.013  68.955  0.00  0.00    -0.215 NA
ENDROOT
BRANCH   2   9
ATOM      9  C   UNL     1     -11.593  13.920  67.077  0.00  0.00    +0.004 A 
ATOM     10  C   UNL     1     -12.505  14.028  66.034  0.00  0.00    +0.001 A 
ATOM     11  C   UNL     1     -12.571  13.091  65.009  0.00  0.00    +0.011 A 
ATOM     12  C   UNL     1     -11.681  12.028  65.012  0.00  0.00    +0.058 A 
ATOM     13 CL   UNL     1     -10.986  11.386  63.527  0.00  0.00    -0.082 Cl
ATOM     14  C   UNL     1     -11.164  11.704  66.261  0.00  0.00    +0.011 A 
ATOM     15  C   UNL     1     -11.013  12.668  67.252  0.00  0.00    +0.001 A 
ENDBRANCH   2   9
BRANCH   1  17
ATOM     16  C   UNL     1     -12.775  15.566  70.880  0.00  0.00    +0.007 C 
ATOM     17  C   UNL     1     -12.062  14.817  69.793  0.00  0.00    +0.046 C 
ENDBRANCH   1  17
TORSDOF 2
ENDMDL
MODEL 8
REMARK VINA RESULT:      -5.8      1.928      3.200
REMARK  Name = 
REMARK  2 active torsions:
REMARK  status: ('A' for Active; 'I' for Inactive)
REMARK    1  A    between atoms: C_2  and  C_3
REMARK    2  A    between atoms: C_10  and  C_11
REMARK                            x       y       z     vdW  Elec       q    Type
REMARK                         _______ _______ _______ _____ _____    ______ ____
ROOT
ATOM      1  C   UNL     1     -10.044  15.667  66.482  0.00  0.00    +0.065 A 
ATOM      2  C   UNL     1     -10.583  16.200  67.646  0.00  0.00    +0.049 A 
ATOM      3  C   UNL     1     -11.570  15.505  68.336  0.00  0.00    +0.174 A 
ATOM      4  N   UNL     1     -12.138  16.158  69.467  0.00  0.00    -0.107 NA
ATOM      5  N   UNL     1     -11.835  14.233  68.007  0.00  0.00    -0.193 NA
ATOM      6  C   UNL     1     -11.536  13.845  66.756  0.00  0.00    +0.258 A 
ATOM      7  N   UNL     1     -12.103  12.608  66.314  0.00  0.00    -0.086 NA
ATOM      8  N   UNL     1     -10.601  14.510  66.042  0.00  0.00    -0.215 NA
ENDROOT
BRANCH   2   9
ATOM      9  C   UNL     1     -10.314  17.621  67.904  0.00  0.00    +0.004 A 
ATOM     10  C   UNL     1      -9.347  17.994  68.830  0.00  0.00    +0.001 A 
ATOM     11  C   UNL     1      -8.515  19.089  68.630  0.00  0.00    +0.011 A 
ATOM     12  C   UNL     1      -8.634  19.819  67.458  0.00  0.00    +0.058 A 
ATOM     13 CL   UNL     1      -7.236  20.503  66.635  0.00  0.00    -0.082 Cl
ATOM     14  C   UNL     1      -9.875  19.725  66.837  0.00  0.00    +0.011 A 
ATOM     15  C   UNL     1     -10.662  18.586  66.965  0.00  0.00    +0.001 A 
ENDBRANCH   2   9
BRANCH   1  17
ATOM     16  C   UNL     1      -7.653  15.274  67.037  0.00  0.00    +0.007 C 
ATOM     17  C   UNL     1      -8.625  16.024  66.174  0.00  0.00    +0.046 C 
ENDBRANCH   1  17
TORSDOF 2
ENDMDL
MODEL 9
REMARK VINA RESULT:      -5.7      3.384      5.324
REMARK  Name = 
REMARK  2 active torsions:
REMARK  status: ('A' for Active; 'I' for Inactive)
REMARK    1  A    between atoms: C_2  and  C_3
REMARK    2  A    between atoms: C_10  and  C_11
REMARK                            x       y       z     vdW  Elec       q    Type
REMARK                         _______ _______ _______ _____ _____    ______ ____
ROOT
ATOM      1  C   UNL     1     -10.195  15.807  66.077  0.00  0.00    +0.065 A 
ATOM      2  C   UNL     1     -10.697  15.647  67.363  0.00  0.00    +0.049 A 
ATOM      3  C   UNL     1     -10.954  16.761  68.152  0.00  0.00    +0.174 A 
ATOM      4  N   UNL     1     -11.377  16.513  69.489  0.00  0.00    -0.107 NA
ATOM      5  N   UNL     1     -10.933  17.982  67.598  0.00  0.00    -0.193 NA
ATOM      6  C   UNL     1     -10.196  18.142  66.487  0.00  0.00    +0.258 A 
ATOM      7  N   UNL     1      -9.919  19.488  66.087  0.00  0.00    -0.086 NA
ATOM      8  N   UNL     1      -9.902  17.079  65.706  0.00  0.00    -0.215 NA
ENDROOT
BRANCH   2   9
ATOM      9  C   UNL     1     -10.617  14.296  67.935  0.00  0.00    +0.004 A 
ATOM     10  C   UNL     1     -11.742  13.480  67.961  0.00  0.00    +0.001 A 
ATOM     11  C   UNL     1     -11.667  12.110  67.738  0.00  0.00    +0.011 A 
ATOM     12  C   UNL     1     -10.435  11.541  67.454  0.00  0.00    +0.058 A 
ATOM     13 CL   UNL     1     -10.255  10.223  66.301  0.00  0.00    -0.082 Cl
ATOM     14  C   UNL     1      -9.339  12.265  67.914  0.00  0.00    +0.011 A 
ATOM     15  C   UNL     1      -9.392  13.648  68.045  0.00  0.00    +0.001 A 
ENDBRANCH   2   9
BRANCH   1  17
ATOM     16  C   UNL     1     -11.991  14.900  64.616  0.00  0.00    +0.007 C 
ATOM     17  C   UNL     1     -10.568  14.762  65.075  0.00  0.00    +0.046 C 
ENDBRANCH   1  17
TORSDOF 2
ENDMDL
