MODEL 1
REMARK VINA RESULT:      -6.9      0.000      0.000
REMARK  Name = 
REMARK  8 active torsions:
REMARK  status: ('A' for Active; 'I' for Inactive)
REMARK    1  A    between atoms: C_2  and  C_3
REMARK    2  A    between atoms: C_2  and  N_11
REMARK    3  A    between atoms: C_3  and  C_4
REMARK    4  A    between atoms: C_4  and  C_5
REMARK    5  A    between atoms: N_11  and  C_12
REMARK    6  A    between atoms: C_12  and  C_13
REMARK    7  A    between atoms: C_13  and  C_15
REMARK    8  A    between atoms: C_20  and  C_21
REMARK                            x       y       z     vdW  Elec       q    Type
REMARK                         _______ _______ _______ _____ _____    ______ ____
ROOT
ATOM      1  C   UNL     1     -10.007  12.437  67.637  0.00  0.00    +0.126 C 
ENDROOT
BRANCH   1   2
ATOM      2  C   UNL     1      -8.599  13.317  67.718  0.00  0.00    +0.192 C 
ATOM      3  O   UNL     1      -9.237  14.355  68.645  0.00  0.00    -0.217 OA
BRANCH   2   4
ATOM      4  C   UNL     1      -9.000  14.189  66.399  0.00  0.00    +0.009 A 
ATOM      5  C   UNL     1     -10.148  13.669  65.813  0.00  0.00    +0.006 A 
ATOM      6  C   UNL     1     -10.933  14.489  65.043  0.00  0.00    +0.095 A 
ATOM      7  C   UNL     1     -10.744  15.856  65.134  0.00  0.00    +0.200 A 
ATOM      8  O   UNL     1     -11.372  16.723  64.236  0.00  0.00    -0.286 OA
ATOM      9  C   UNL     1      -9.722  16.420  65.883  0.00  0.00    +0.042 A 
ATOM     10  C   UNL     1      -8.983  15.549  66.653  0.00  0.00    +0.001 A 
BRANCH   6  11
ATOM     11  C   UNL     1     -12.264  14.068  64.594  0.00  0.00    +0.287 C 
ATOM     12  O   UNL     1     -13.256  14.128  65.382  0.00  0.00    -0.267 OA
ATOM     13  N   UNL     1     -12.411  13.555  63.265  0.00  0.00    -0.084 NA
ENDBRANCH   6  11
ENDBRANCH   2   4
ENDBRANCH   1   2
BRANCH   1  14
ATOM     14  N   UNL     1      -9.679  11.201  68.343  0.00  0.00    -0.216 NA
BRANCH  14  16
ATOM     15  C   UNL     1     -10.845  10.161  70.066  0.00  0.00    +0.019 C 
ATOM     16  C   UNL     1     -11.120  10.569  68.492  0.00  0.00    +0.073 C 
BRANCH  16  17
ATOM     17  C   UNL     1     -11.841  11.993  68.899  0.00  0.00    +0.022 C 
BRANCH  17  18
ATOM     18  C   UNL     1     -12.184  11.979  70.328  0.00  0.00    +0.028 C 
BRANCH  18  19
ATOM     19  C   UNL     1     -12.507  13.269  70.939  0.00  0.00    -0.022 A 
ATOM     20  C   UNL     1     -13.312  13.281  72.066  0.00  0.00    -0.004 A 
ATOM     21  C   UNL     1     -13.637  14.479  72.691  0.00  0.00    -0.000 A 
ATOM     22  C   UNL     1     -13.187  15.626  72.052  0.00  0.00    -0.000 A 
ATOM     23  C   UNL     1     -12.600  15.612  70.813  0.00  0.00    -0.000 A 
ATOM     24  C   UNL     1     -12.437  14.407  70.146  0.00  0.00    -0.004 A 
ENDBRANCH  18  19
ENDBRANCH  17  18
ENDBRANCH  16  17
ENDBRANCH  14  16
ENDBRANCH   1  14
TORSDOF 8
ENDMDL
MODEL 2
REMARK VINA RESULT:      -6.7      3.266      6.921
REMARK  Name = 
REMARK  8 active torsions:
REMARK  status: ('A' for Active; 'I' for Inactive)
REMARK    1  A    between atoms: C_2  and  C_3
REMARK    2  A    between atoms: C_2  and  N_11
REMARK    3  A    between atoms: C_3  and  C_4
REMARK    4  A    between atoms: C_4  and  C_5
REMARK    5  A    between atoms: N_11  and  C_12
REMARK    6  A    between atoms: C_12  and  C_13
REMARK    7  A    between atoms: C_13  and  C_15
REMARK    8  A    between atoms: C_20  and  C_21
REMARK                            x       y       z     vdW  Elec       q    Type
REMARK                         _______ _______ _______ _____ _____    ______ ____
ROOT
ATOM      1  C   UNL     1     -10.882  15.637  67.772  0.00  0.00    +0.126 C 
ENDROOT
BRANCH   1   2
ATOM      2  C   UNL     1     -10.773  16.716  69.033  0.00  0.00    +0.192 C 
ATOM      3  O   UNL     1      -9.258  16.520  69.141  0.00  0.00    -0.217 OA
BRANCH   2   4
ATOM      4  C   UNL     1     -11.045  15.545  70.135  0.00  0.00    +0.009 A 
ATOM      5  C   UNL     1     -11.601  16.092  71.286  0.00  0.00    +0.006 A 
ATOM      6  C   UNL     1     -12.357  15.292  72.105  0.00  0.00    +0.095 A 
ATOM      7  C   UNL     1     -12.805  14.080  71.612  0.00  0.00    +0.200 A 
ATOM      8  O   UNL     1     -13.405  13.145  72.458  0.00  0.00    -0.286 OA
ATOM      9  C   UNL     1     -12.427  13.596  70.368  0.00  0.00    +0.042 A 
ATOM     10  C   UNL     1     -11.689  14.453  69.582  0.00  0.00    +0.001 A 
BRANCH   6  11
ATOM     11  C   UNL     1     -13.154  15.858  73.198  0.00  0.00    +0.287 C 
ATOM     12  O   UNL     1     -14.325  16.294  72.979  0.00  0.00    -0.267 OA
ATOM     13  N   UNL     1     -12.571  15.942  74.504  0.00  0.00    -0.084 NA
ENDBRANCH   6  11
ENDBRANCH   2   4
ENDBRANCH   1   2
BRANCH   1  14
ATOM     14  N   UNL     1     -10.637  16.464  66.593  0.00  0.00    -0.216 NA
BRANCH  14  16
ATOM     15  C   UNL     1      -9.242  14.623  66.326  0.00  0.00    +0.019 C 
ATOM     16  C   UNL     1     -10.468  15.342  65.492  0.00  0.00    +0.073 C 
BRANCH  16  17
ATOM     17  C   UNL     1     -11.608  14.350  66.146  0.00  0.00    +0.022 C 
BRANCH  17  18
ATOM     18  C   UNL     1     -12.134  13.453  65.108  0.00  0.00    +0.028 C 
BRANCH  18  19
ATOM     19  C   UNL     1     -11.353  12.248  64.822  0.00  0.00    -0.022 A 
ATOM     20  C   UNL     1     -10.880  11.501  65.888  0.00  0.00    -0.004 A 
ATOM     21  C   UNL     1     -10.146  10.342  65.669  0.00  0.00    -0.000 A 
ATOM     22  C   UNL     1      -9.851  10.065  64.341  0.00  0.00    -0.000 A 
ATOM     23  C   UNL     1     -10.118  10.937  63.317  0.00  0.00    -0.000 A 
ATOM     24  C   UNL     1     -10.709  12.160  63.594  0.00  0.00    -0.004 A 
ENDBRANCH  18  19
ENDBRANCH  17  18
ENDBRANCH  16  17
ENDBRANCH  14  16
ENDBRANCH   1  14
TORSDOF 8
ENDMDL
MODEL 3
REMARK VINA RESULT:      -6.7      2.117      4.015
REMARK  Name = 
REMARK  8 active torsions:
REMARK  status: ('A' for Active; 'I' for Inactive)
REMARK    1  A    between atoms: C_2  and  C_3
REMARK    2  A    between atoms: C_2  and  N_11
REMARK    3  A    between atoms: C_3  and  C_4
REMARK    4  A    between atoms: C_4  and  C_5
REMARK    5  A    between atoms: N_11  and  C_12
REMARK    6  A    between atoms: C_12  and  C_13
REMARK    7  A    between atoms: C_13  and  C_15
REMARK    8  A    between atoms: C_20  and  C_21
REMARK                            x       y       z     vdW  Elec       q    Type
REMARK                         _______ _______ _______ _____ _____    ______ ____
ROOT
ATOM      1  C   UNL     1     -10.650  15.699  70.361  0.00  0.00    +0.126 C 
ENDROOT
BRANCH   1   2
ATOM      2  C   UNL     1     -10.777  16.256  68.799  0.00  0.00    +0.192 C 
ATOM      3  O   UNL     1     -12.307  16.266  68.869  0.00  0.00    -0.217 OA
BRANCH   2   4
ATOM      4  C   UNL     1     -10.774  14.739  68.197  0.00  0.00    +0.009 A 
ATOM      5  C   UNL     1     -11.754  14.612  67.219  0.00  0.00    +0.006 A 
ATOM      6  C   UNL     1     -11.612  13.646  66.256  0.00  0.00    +0.095 A 
ATOM      7  C   UNL     1     -10.372  13.055  66.094  0.00  0.00    +0.200 A 
ATOM      8  O   UNL     1     -10.219  11.936  65.272  0.00  0.00    -0.286 OA
ATOM      9  C   UNL     1      -9.304  13.319  66.938  0.00  0.00    +0.042 A 
ATOM     10  C   UNL     1      -9.499  14.316  67.870  0.00  0.00    +0.001 A 
BRANCH   6  11
ATOM     11  C   UNL     1     -12.482  13.612  65.076  0.00  0.00    +0.287 C 
ATOM     12  O   UNL     1     -13.203  12.597  64.840  0.00  0.00    -0.267 OA
ATOM     13  N   UNL     1     -12.470  14.731  64.181  0.00  0.00    -0.084 NA
ENDBRANCH   6  11
ENDBRANCH   2   4
ENDBRANCH   1   2
BRANCH   1  14
ATOM     14  N   UNL     1     -12.030  15.716  70.842  0.00  0.00    -0.216 NA
BRANCH  14  16
ATOM     15  C   UNL     1     -12.845  15.958  73.007  0.00  0.00    +0.019 C 
ATOM     16  C   UNL     1     -11.868  14.909  72.192  0.00  0.00    +0.073 C 
BRANCH  16  17
ATOM     17  C   UNL     1     -13.107  13.873  71.871  0.00  0.00    +0.022 C 
BRANCH  17  18
ATOM     18  C   UNL     1     -12.873  13.212  70.579  0.00  0.00    +0.028 C 
BRANCH  18  19
ATOM     19  C   UNL     1     -12.280  11.875  70.622  0.00  0.00    -0.022 A 
ATOM     20  C   UNL     1     -11.506  11.462  69.550  0.00  0.00    -0.004 A 
ATOM     21  C   UNL     1     -10.910  10.207  69.550  0.00  0.00    -0.000 A 
ATOM     22  C   UNL     1     -11.232   9.393  70.628  0.00  0.00    -0.000 A 
ATOM     23  C   UNL     1     -12.186   9.723  71.556  0.00  0.00    -0.000 A 
ATOM     24  C   UNL     1     -12.877  10.919  71.434  0.00  0.00    -0.004 A 
ENDBRANCH  18  19
ENDBRANCH  17  18
ENDBRANCH  16  17
ENDBRANCH  14  16
ENDBRANCH   1  14
TORSDOF 8
ENDMDL
MODEL 4
REMARK VINA RESULT:      -6.6      3.217      6.161
REMARK  Name = 
REMARK  8 active torsions:
REMARK  status: ('A' for Active; 'I' for Inactive)
REMARK    1  A    between atoms: C_2  and  C_3
REMARK    2  A    between atoms: C_2  and  N_11
REMARK    3  A    between atoms: C_3  and  C_4
REMARK    4  A    between atoms: C_4  and  C_5
REMARK    5  A    between atoms: N_11  and  C_12
REMARK    6  A    between atoms: C_12  and  C_13
REMARK    7  A    between atoms: C_13  and  C_15
REMARK    8  A    between atoms: C_20  and  C_21
REMARK                            x       y       z     vdW  Elec       q    Type
REMARK                         _______ _______ _______ _____ _____    ______ ____
ROOT
ATOM      1  C   UNL     1     -10.984  12.223  67.917  0.00  0.00    +0.126 C 
ENDROOT
BRANCH   1   2
ATOM      2  C   UNL     1     -10.104  11.199  68.888  0.00  0.00    +0.192 C 
ATOM      3  O   UNL     1     -10.078  10.111  67.810  0.00  0.00    -0.217 OA
BRANCH   2   4
ATOM      4  C   UNL     1     -11.456  10.569  69.548  0.00  0.00    +0.009 A 
ATOM      5  C   UNL     1     -11.186   9.315  70.085  0.00  0.00    +0.006 A 
ATOM      6  C   UNL     1     -11.984   8.837  71.094  0.00  0.00    +0.095 A 
ATOM      7  C   UNL     1     -12.811   9.725  71.756  0.00  0.00    +0.200 A 
ATOM      8  O   UNL     1     -13.780   9.264  72.650  0.00  0.00    -0.286 OA
ATOM      9  C   UNL     1     -12.947  11.050  71.368  0.00  0.00    +0.042 A 
ATOM     10  C   UNL     1     -12.104  11.477  70.366  0.00  0.00    +0.001 A 
BRANCH   6  11
ATOM     11  C   UNL     1     -11.616   7.637  71.852  0.00  0.00    +0.287 C 
ATOM     12  O   UNL     1     -12.101   6.507  71.540  0.00  0.00    -0.267 OA
ATOM     13  N   UNL     1     -10.730   7.774  72.970  0.00  0.00    -0.084 NA
ENDBRANCH   6  11
ENDBRANCH   2   4
ENDBRANCH   1   2
BRANCH   1  14
ATOM     14  N   UNL     1     -10.096  13.369  67.736  0.00  0.00    -0.216 NA
BRANCH  14  16
ATOM     15  C   UNL     1     -12.020  13.280  66.435  0.00  0.00    +0.019 C 
ATOM     16  C   UNL     1     -11.124  14.439  67.190  0.00  0.00    +0.073 C 
BRANCH  16  17
ATOM     17  C   UNL     1     -12.068  14.408  68.539  0.00  0.00    +0.022 C 
BRANCH  17  18
ATOM     18  C   UNL     1     -11.815  15.611  69.344  0.00  0.00    +0.028 C 
BRANCH  18  19
ATOM     19  C   UNL     1     -12.439  15.661  70.667  0.00  0.00    -0.022 A 
ATOM     20  C   UNL     1     -11.688  16.129  71.733  0.00  0.00    -0.004 A 
ATOM     21  C   UNL     1     -12.238  16.208  73.005  0.00  0.00    -0.000 A 
ATOM     22  C   UNL     1     -13.524  15.699  73.133  0.00  0.00    -0.000 A 
ATOM     23  C   UNL     1     -14.163  15.021  72.126  0.00  0.00    -0.000 A 
ATOM     24  C   UNL     1     -13.517  14.821  70.916  0.00  0.00    -0.004 A 
ENDBRANCH  18  19
ENDBRANCH  17  18
ENDBRANCH  16  17
ENDBRANCH  14  16
ENDBRANCH   1  14
TORSDOF 8
ENDMDL
MODEL 5
REMARK VINA RESULT:      -6.5      2.325      4.419
REMARK  Name = 
REMARK  8 active torsions:
REMARK  status: ('A' for Active; 'I' for Inactive)
REMARK    1  A    between atoms: C_2  and  C_3
REMARK    2  A    between atoms: C_2  and  N_11
REMARK    3  A    between atoms: C_3  and  C_4
REMARK    4  A    between atoms: C_4  and  C_5
REMARK    5  A    between atoms: N_11  and  C_12
REMARK    6  A    between atoms: C_12  and  C_13
REMARK    7  A    between atoms: C_13  and  C_15
REMARK    8  A    between atoms: C_20  and  C_21
REMARK                            x       y       z     vdW  Elec       q    Type
REMARK                         _______ _______ _______ _____ _____    ______ ____
ROOT
ATOM      1  C   UNL     1     -12.420  15.414  70.926  0.00  0.00    +0.126 C 
ENDROOT
BRANCH   1   2
ATOM      2  C   UNL     1     -10.907  15.458  70.239  0.00  0.00    +0.192 C 
ATOM      3  O   UNL     1     -11.073  16.924  69.832  0.00  0.00    -0.217 OA
BRANCH   2   4
ATOM      4  C   UNL     1     -11.483  14.951  68.798  0.00  0.00    +0.009 A 
ATOM      5  C   UNL     1     -11.097  15.831  67.793  0.00  0.00    +0.006 A 
ATOM      6  C   UNL     1     -11.019  15.374  66.502  0.00  0.00    +0.095 A 
ATOM      7  C   UNL     1     -11.010  14.008  66.287  0.00  0.00    +0.200 A 
ATOM      8  O   UNL     1     -11.131  13.491  64.995  0.00  0.00    -0.286 OA
ATOM      9  C   UNL     1     -11.189  13.090  67.310  0.00  0.00    +0.042 A 
ATOM     10  C   UNL     1     -11.237  13.607  68.587  0.00  0.00    +0.001 A 
BRANCH   6  11
ATOM     11  C   UNL     1     -10.402  16.180  65.445  0.00  0.00    +0.287 C 
ATOM     12  O   UNL     1      -9.153  16.402  65.453  0.00  0.00    -0.267 OA
ATOM     13  N   UNL     1     -11.241  16.742  64.428  0.00  0.00    -0.084 NA
ENDBRANCH   6  11
ENDBRANCH   2   4
ENDBRANCH   1   2
BRANCH   1  14
ATOM     14  N   UNL     1     -12.148  15.135  72.334  0.00  0.00    -0.216 NA
BRANCH  14  16
ATOM     15  C   UNL     1     -14.328  14.907  71.560  0.00  0.00    +0.019 C 
ATOM     16  C   UNL     1     -13.355  14.171  72.669  0.00  0.00    +0.073 C 
BRANCH  16  17
ATOM     17  C   UNL     1     -12.885  13.004  71.607  0.00  0.00    +0.022 C 
BRANCH  17  18
ATOM     18  C   UNL     1     -13.527  11.731  71.959  0.00  0.00    +0.028 C 
BRANCH  18  19
ATOM     19  C   UNL     1     -12.857  10.509  71.508  0.00  0.00    -0.022 A 
ATOM     20  C   UNL     1     -13.035   9.350  72.245  0.00  0.00    -0.004 A 
ATOM     21  C   UNL     1     -12.432   8.163  71.851  0.00  0.00    -0.000 A 
ATOM     22  C   UNL     1     -11.584   8.258  70.755  0.00  0.00    -0.000 A 
ATOM     23  C   UNL     1     -11.231   9.454  70.185  0.00  0.00    -0.000 A 
ATOM     24  C   UNL     1     -11.729  10.637  70.708  0.00  0.00    -0.004 A 
ENDBRANCH  18  19
ENDBRANCH  17  18
ENDBRANCH  16  17
ENDBRANCH  14  16
ENDBRANCH   1  14
TORSDOF 8
ENDMDL
MODEL 6
REMARK VINA RESULT:      -6.4      3.606      6.426
REMARK  Name = 
REMARK  8 active torsions:
REMARK  status: ('A' for Active; 'I' for Inactive)
REMARK    1  A    between atoms: C_2  and  C_3
REMARK    2  A    between atoms: C_2  and  N_11
REMARK    3  A    between atoms: C_3  and  C_4
REMARK    4  A    between atoms: C_4  and  C_5
REMARK    5  A    between atoms: N_11  and  C_12
REMARK    6  A    between atoms: C_12  and  C_13
REMARK    7  A    between atoms: C_13  and  C_15
REMARK    8  A    between atoms: C_20  and  C_21
REMARK                            x       y       z     vdW  Elec       q    Type
REMARK                         _______ _______ _______ _____ _____    ______ ____
ROOT
ATOM      1  C   UNL     1     -10.173  16.765  68.386  0.00  0.00    +0.126 C 
ENDROOT
BRANCH   1   2
ATOM      2  C   UNL     1     -11.474  15.999  69.083  0.00  0.00    +0.192 C 
ATOM      3  O   UNL     1     -10.642  15.572  70.295  0.00  0.00    -0.217 OA
BRANCH   2   4
ATOM      4  C   UNL     1     -11.139  14.601  68.310  0.00  0.00    +0.009 A 
ATOM      5  C   UNL     1     -12.054  14.392  67.284  0.00  0.00    +0.006 A 
ATOM      6  C   UNL     1     -11.694  13.601  66.222  0.00  0.00    +0.095 A 
ATOM      7  C   UNL     1     -10.354  13.307  66.045  0.00  0.00    +0.200 A 
ATOM      8  O   UNL     1      -9.953  12.354  65.106  0.00  0.00    -0.286 OA
ATOM      9  C   UNL     1      -9.380  13.684  66.957  0.00  0.00    +0.042 A 
ATOM     10  C   UNL     1      -9.798  14.497  67.988  0.00  0.00    +0.001 A 
BRANCH   6  11
ATOM     11  C   UNL     1     -12.518  13.530  65.012  0.00  0.00    +0.287 C 
ATOM     12  O   UNL     1     -13.190  12.486  64.753  0.00  0.00    -0.267 OA
ATOM     13  N   UNL     1     -12.517  14.646  64.113  0.00  0.00    -0.084 NA
ENDBRANCH   6  11
ENDBRANCH   2   4
ENDBRANCH   1   2
BRANCH   1  14
ATOM     14  N   UNL     1     -10.743  18.010  67.876  0.00  0.00    -0.216 NA
BRANCH  14  16
ATOM     15  C   UNL     1     -10.474  19.490  66.103  0.00  0.00    +0.019 C 
ATOM     16  C   UNL     1     -10.421  17.859  66.336  0.00  0.00    +0.073 C 
BRANCH  16  17
ATOM     17  C   UNL     1      -8.788  17.858  66.548  0.00  0.00    +0.022 C 
BRANCH  17  18
ATOM     18  C   UNL     1      -8.261  19.210  66.320  0.00  0.00    +0.028 C 
BRANCH  18  19
ATOM     19  C   UNL     1      -7.374  19.753  67.349  0.00  0.00    -0.022 A 
ATOM     20  C   UNL     1      -6.475  20.743  66.989  0.00  0.00    -0.004 A 
ATOM     21  C   UNL     1      -5.620  21.300  67.933  0.00  0.00    -0.000 A 
ATOM     22  C   UNL     1      -5.672  20.727  69.196  0.00  0.00    -0.000 A 
ATOM     23  C   UNL     1      -6.390  19.593  69.475  0.00  0.00    -0.000 A 
ATOM     24  C   UNL     1      -7.107  18.970  68.465  0.00  0.00    -0.004 A 
ENDBRANCH  18  19
ENDBRANCH  17  18
ENDBRANCH  16  17
ENDBRANCH  14  16
ENDBRANCH   1  14
TORSDOF 8
ENDMDL
MODEL 7
REMARK VINA RESULT:      -6.4      3.540      5.108
REMARK  Name = 
REMARK  8 active torsions:
REMARK  status: ('A' for Active; 'I' for Inactive)
REMARK    1  A    between atoms: C_2  and  C_3
REMARK    2  A    between atoms: C_2  and  N_11
REMARK    3  A    between atoms: C_3  and  C_4
REMARK    4  A    between atoms: C_4  and  C_5
REMARK    5  A    between atoms: N_11  and  C_12
REMARK    6  A    between atoms: C_12  and  C_13
REMARK    7  A    between atoms: C_13  and  C_15
REMARK    8  A    between atoms: C_20  and  C_21
REMARK                            x       y       z     vdW  Elec       q    Type
REMARK                         _______ _______ _______ _____ _____    ______ ____
ROOT
ATOM      1  C   UNL     1      -7.206  14.299  67.779  0.00  0.00    +0.126 C 
ENDROOT
BRANCH   1   2
ATOM      2  C   UNL     1      -8.742  13.662  67.807  0.00  0.00    +0.192 C 
ATOM      3  O   UNL     1      -8.297  12.413  67.041  0.00  0.00    -0.217 OA
BRANCH   2   4
ATOM      4  C   UNL     1      -9.145  14.420  66.419  0.00  0.00    +0.009 A 
ATOM      5  C   UNL     1     -10.230  13.784  65.826  0.00  0.00    +0.006 A 
ATOM      6  C   UNL     1     -11.035  14.498  64.975  0.00  0.00    +0.095 A 
ATOM      7  C   UNL     1     -10.943  15.877  64.983  0.00  0.00    +0.200 A 
ATOM      8  O   UNL     1     -11.589  16.640  64.007  0.00  0.00    -0.286 OA
ATOM      9  C   UNL     1      -9.993  16.558  65.732  0.00  0.00    +0.042 A 
ATOM     10  C   UNL     1      -9.231  15.790  66.585  0.00  0.00    +0.001 A 
BRANCH   6  11
ATOM     11  C   UNL     1     -12.314  13.957  64.504  0.00  0.00    +0.287 C 
ATOM     12  O   UNL     1     -13.329  13.956  65.265  0.00  0.00    -0.267 OA
ATOM     13  N   UNL     1     -12.382  13.399  63.187  0.00  0.00    -0.084 NA
ENDBRANCH   6  11
ENDBRANCH   2   4
ENDBRANCH   1   2
BRANCH   1  14
ATOM     14  N   UNL     1      -6.756  14.167  69.163  0.00  0.00    -0.216 NA
BRANCH  14  16
ATOM     15  C   UNL     1      -5.669  15.530  67.625  0.00  0.00    +0.019 C 
ATOM     16  C   UNL     1      -5.790  15.414  69.266  0.00  0.00    +0.073 C 
BRANCH  16  17
ATOM     17  C   UNL     1      -7.012  16.515  69.337  0.00  0.00    +0.022 C 
BRANCH  17  18
ATOM     18  C   UNL     1      -6.532  17.815  68.848  0.00  0.00    +0.028 C 
BRANCH  18  19
ATOM     19  C   UNL     1      -7.513  18.668  68.175  0.00  0.00    -0.022 A 
ATOM     20  C   UNL     1      -8.777  18.782  68.728  0.00  0.00    -0.004 A 
ATOM     21  C   UNL     1      -9.738  19.590  68.134  0.00  0.00    -0.000 A 
ATOM     22  C   UNL     1      -9.370  20.168  66.927  0.00  0.00    -0.000 A 
ATOM     23  C   UNL     1      -8.207  19.854  66.272  0.00  0.00    -0.000 A 
ATOM     24  C   UNL     1      -7.341  18.920  66.819  0.00  0.00    -0.004 A 
ENDBRANCH  18  19
ENDBRANCH  17  18
ENDBRANCH  16  17
ENDBRANCH  14  16
ENDBRANCH   1  14
TORSDOF 8
ENDMDL
MODEL 8
REMARK VINA RESULT:      -6.4      2.925      5.907
REMARK  Name = 
REMARK  8 active torsions:
REMARK  status: ('A' for Active; 'I' for Inactive)
REMARK    1  A    between atoms: C_2  and  C_3
REMARK    2  A    between atoms: C_2  and  N_11
REMARK    3  A    between atoms: C_3  and  C_4
REMARK    4  A    between atoms: C_4  and  C_5
REMARK    5  A    between atoms: N_11  and  C_12
REMARK    6  A    between atoms: C_12  and  C_13
REMARK    7  A    between atoms: C_13  and  C_15
REMARK    8  A    between atoms: C_20  and  C_21
REMARK                            x       y       z     vdW  Elec       q    Type
REMARK                         _______ _______ _______ _____ _____    ______ ____
ROOT
ATOM      1  C   UNL     1     -11.315  12.879  66.630  0.00  0.00    +0.126 C 
ENDROOT
BRANCH   1   2
ATOM      2  C   UNL     1     -10.779  12.452  68.145  0.00  0.00    +0.192 C 
ATOM      3  O   UNL     1     -12.094  11.737  68.468  0.00  0.00    -0.217 OA
BRANCH   2   4
ATOM      4  C   UNL     1     -11.329  13.844  68.795  0.00  0.00    +0.009 A 
ATOM      5  C   UNL     1     -12.405  13.585  69.637  0.00  0.00    +0.006 A 
ATOM      6  C   UNL     1     -12.690  14.472  70.644  0.00  0.00    +0.095 A 
ATOM      7  C   UNL     1     -11.731  15.406  70.990  0.00  0.00    +0.200 A 
ATOM      8  O   UNL     1     -12.038  16.451  71.864  0.00  0.00    -0.286 OA
ATOM      9  C   UNL     1     -10.544  15.552  70.288  0.00  0.00    +0.042 A 
ATOM     10  C   UNL     1     -10.303  14.618  69.305  0.00  0.00    +0.001 A 
BRANCH   6  11
ATOM     11  C   UNL     1     -13.656  14.144  71.697  0.00  0.00    +0.287 C 
ATOM     12  O   UNL     1     -13.386  13.255  72.561  0.00  0.00    -0.267 OA
ATOM     13  N   UNL     1     -14.919  14.819  71.708  0.00  0.00    -0.084 NA
ENDBRANCH   6  11
ENDBRANCH   2   4
ENDBRANCH   1   2
BRANCH   1  14
ATOM     14  N   UNL     1     -10.114  13.398  65.977  0.00  0.00    -0.216 NA
BRANCH  14  16
ATOM     15  C   UNL     1     -12.283  13.691  65.192  0.00  0.00    +0.019 C 
ATOM     16  C   UNL     1     -10.766  14.180  64.768  0.00  0.00    +0.073 C 
BRANCH  16  17
ATOM     17  C   UNL     1     -10.901  15.599  65.592  0.00  0.00    +0.022 C 
BRANCH  17  18
ATOM     18  C   UNL     1      -9.563  16.100  65.931  0.00  0.00    +0.028 C 
BRANCH  18  19
ATOM     19  C   UNL     1      -9.489  17.448  66.498  0.00  0.00    -0.022 A 
ATOM     20  C   UNL     1      -8.836  17.620  67.707  0.00  0.00    -0.004 A 
ATOM     21  C   UNL     1      -8.727  18.881  68.279  0.00  0.00    -0.000 A 
ATOM     22  C   UNL     1      -9.395  19.899  67.612  0.00  0.00    -0.000 A 
ATOM     23  C   UNL     1     -10.235  19.673  66.552  0.00  0.00    -0.000 A 
ATOM     24  C   UNL     1     -10.445  18.377  66.106  0.00  0.00    -0.004 A 
ENDBRANCH  18  19
ENDBRANCH  17  18
ENDBRANCH  16  17
ENDBRANCH  14  16
ENDBRANCH   1  14
TORSDOF 8
ENDMDL
MODEL 9
REMARK VINA RESULT:      -6.4      3.921      6.463
REMARK  Name = 
REMARK  8 active torsions:
REMARK  status: ('A' for Active; 'I' for Inactive)
REMARK    1  A    between atoms: C_2  and  C_3
REMARK    2  A    between atoms: C_2  and  N_11
REMARK    3  A    between atoms: C_3  and  C_4
REMARK    4  A    between atoms: C_4  and  C_5
REMARK    5  A    between atoms: N_11  and  C_12
REMARK    6  A    between atoms: C_12  and  C_13
REMARK    7  A    between atoms: C_13  and  C_15
REMARK    8  A    between atoms: C_20  and  C_21
REMARK                            x       y       z     vdW  Elec       q    Type
REMARK                         _______ _______ _______ _____ _____    ______ ____
ROOT
ATOM      1  C   UNL     1      -5.492  16.560  68.746  0.00  0.00    +0.126 C 
ENDROOT
BRANCH   1   2
ATOM      2  C   UNL     1      -6.039  15.595  67.507  0.00  0.00    +0.192 C 
ATOM      3  O   UNL     1      -5.733  16.670  66.461  0.00  0.00    -0.217 OA
BRANCH   2   4
ATOM      4  C   UNL     1      -7.567  16.140  67.679  0.00  0.00    +0.009 A 
ATOM      5  C   UNL     1      -8.243  16.058  66.467  0.00  0.00    +0.006 A 
ATOM      6  C   UNL     1      -9.612  15.972  66.472  0.00  0.00    +0.095 A 
ATOM      7  C   UNL     1     -10.247  15.648  67.658  0.00  0.00    +0.200 A 
ATOM      8  O   UNL     1     -11.636  15.739  67.769  0.00  0.00    -0.286 OA
ATOM      9  C   UNL     1      -9.564  15.519  68.858  0.00  0.00    +0.042 A 
ATOM     10  C   UNL     1      -8.190  15.592  68.786  0.00  0.00    +0.001 A 
BRANCH   6  11
ATOM     11  C   UNL     1     -10.360  15.653  65.253  0.00  0.00    +0.287 C 
ATOM     12  O   UNL     1     -10.907  16.575  64.576  0.00  0.00    -0.267 OA
ATOM     13  N   UNL     1     -10.490  14.280  64.864  0.00  0.00    -0.084 NA
ENDBRANCH   6  11
ENDBRANCH   2   4
ENDBRANCH   1   2
BRANCH   1  14
ATOM     14  N   UNL     1      -5.071  17.783  68.065  0.00  0.00    -0.216 NA
BRANCH  14  16
ATOM     15  C   UNL     1      -4.189  19.916  68.341  0.00  0.00    +0.019 C 
ATOM     16  C   UNL     1      -4.711  18.688  69.310  0.00  0.00    +0.073 C 
BRANCH  16  17
ATOM     17  C   UNL     1      -6.224  19.325  69.444  0.00  0.00    +0.022 C 
BRANCH  17  18
ATOM     18  C   UNL     1      -6.610  19.950  68.172  0.00  0.00    +0.028 C 
BRANCH  18  19
ATOM     19  C   UNL     1      -8.010  19.810  67.768  0.00  0.00    -0.022 A 
ATOM     20  C   UNL     1      -8.920  19.335  68.698  0.00  0.00    -0.004 A 
ATOM     21  C   UNL     1     -10.262  19.197  68.367  0.00  0.00    -0.000 A 
ATOM     22  C   UNL     1     -10.581  19.467  67.043  0.00  0.00    -0.000 A 
ATOM     23  C   UNL     1      -9.636  19.702  66.078  0.00  0.00    -0.000 A 
ATOM     24  C   UNL     1      -8.291  19.674  66.414  0.00  0.00    -0.004 A 
ENDBRANCH  18  19
ENDBRANCH  17  18
ENDBRANCH  16  17
ENDBRANCH  14  16
ENDBRANCH   1  14
TORSDOF 8
ENDMDL
