MODEL 1
REMARK VINA RESULT:      -6.0      0.000      0.000
REMARK  Name = 
REMARK  3 active torsions:
REMARK  status: ('A' for Active; 'I' for Inactive)
REMARK    1  A    between atoms: C_2  and  C_3
REMARK    2  A    between atoms: C_2  and  N_18
REMARK    3  A    between atoms: C_3  and  N_4
REMARK                            x       y       z     vdW  Elec       q    Type
REMARK                         _______ _______ _______ _____ _____    ______ ____
ROOT
ATOM      1  N   UNL     1     -11.915  12.183  69.570  0.00  0.00    -0.285 N 
ATOM      2  C   UNL     1     -11.555  12.630  68.272  0.00  0.00    +0.058 A 
ATOM      3  C   UNL     1     -11.287  13.960  67.973  0.00  0.00    +0.043 A 
ATOM      4  C   UNL     1     -11.825  14.535  66.828  0.00  0.00    +0.008 A 
ATOM      5  C   UNL     1     -12.038  13.667  65.764  0.00  0.00    +0.001 A 
ATOM      6  C   UNL     1     -11.745  12.314  65.894  0.00  0.00    +0.001 A 
ATOM      7  S   UNL     1     -10.813  14.990  69.368  0.00  0.00    -0.084 S 
ATOM      8  C   UNL     1     -11.780  14.355  70.742  0.00  0.00    +0.043 A 
ATOM      9  C   UNL     1     -12.497  15.316  71.446  0.00  0.00    +0.008 A 
ATOM     10  C   UNL     1     -13.620  14.982  72.192  0.00  0.00    +0.001 A 
ATOM     11  C   UNL     1     -13.790  13.629  72.428  0.00  0.00    +0.001 A 
ATOM     12  C   UNL     1     -13.197  12.706  71.603  0.00  0.00    +0.015 A 
ATOM     13  C   UNL     1     -11.725  11.811  67.165  0.00  0.00    +0.015 A 
ATOM     14  C   UNL     1     -12.340  13.095  70.581  0.00  0.00    +0.058 A 
ENDROOT
BRANCH   1  15
ATOM     15  C   UNL     1     -12.096  10.765  69.830  0.00  0.00    +0.111 C 
BRANCH  15  17
ATOM     16  C   UNL     1     -11.232   9.313  71.499  0.00  0.00    +0.019 C 
ATOM     17  C   UNL     1     -10.618  10.197  70.258  0.00  0.00    +0.078 C 
BRANCH  17  18
ATOM     18  N   UNL     1     -10.678   8.966  69.290  0.00  0.00    -0.270 NA
ATOM     19  C   UNL     1      -9.649   9.014  68.357  0.00  0.00    +0.090 C 
ATOM     20  C   UNL     1     -10.893   7.799  70.045  0.00  0.00    +0.090 C 
ENDBRANCH  17  18
ENDBRANCH  15  17
ENDBRANCH   1  15
TORSDOF 3
ENDMDL
MODEL 2
REMARK VINA RESULT:      -5.9      3.127      6.816
REMARK  Name = 
REMARK  3 active torsions:
REMARK  status: ('A' for Active; 'I' for Inactive)
REMARK    1  A    between atoms: C_2  and  C_3
REMARK    2  A    between atoms: C_2  and  N_18
REMARK    3  A    between atoms: C_3  and  N_4
REMARK                            x       y       z     vdW  Elec       q    Type
REMARK                         _______ _______ _______ _____ _____    ______ ____
ROOT
ATOM      1  N   UNL     1     -10.916  15.592  67.968  0.00  0.00    -0.285 N 
ATOM      2  C   UNL     1     -11.185  15.247  69.318  0.00  0.00    +0.058 A 
ATOM      3  C   UNL     1     -11.480  13.953  69.728  0.00  0.00    +0.043 A 
ATOM      4  C   UNL     1     -12.531  13.728  70.608  0.00  0.00    +0.008 A 
ATOM      5  C   UNL     1     -12.802  14.760  71.496  0.00  0.00    +0.001 A 
ATOM      6  C   UNL     1     -12.062  15.937  71.450  0.00  0.00    +0.001 A 
ATOM      7  S   UNL     1     -10.918  12.644  68.632  0.00  0.00    -0.084 S 
ATOM      8  C   UNL     1     -11.098  13.333  66.983  0.00  0.00    +0.043 A 
ATOM      9  C   UNL     1     -11.800  12.533  66.088  0.00  0.00    +0.008 A 
ATOM     10  C   UNL     1     -12.429  13.071  64.973  0.00  0.00    +0.001 A 
ATOM     11  C   UNL     1     -12.062  14.368  64.657  0.00  0.00    +0.001 A 
ATOM     12  C   UNL     1     -11.522  15.185  65.619  0.00  0.00    +0.015 A 
ATOM     13  C   UNL     1     -11.449  16.228  70.263  0.00  0.00    +0.015 A 
ATOM     14  C   UNL     1     -11.240  14.711  66.895  0.00  0.00    +0.058 A 
ENDROOT
BRANCH   1  15
ATOM     15  C   UNL     1     -10.529  16.950  67.624  0.00  0.00    +0.111 C 
BRANCH  15  17
ATOM     16  C   UNL     1      -8.515  17.511  66.496  0.00  0.00    +0.019 C 
ATOM     17  C   UNL     1      -8.943  17.078  68.022  0.00  0.00    +0.078 C 
BRANCH  17  18
ATOM     18  N   UNL     1      -9.051  18.576  68.467  0.00  0.00    -0.270 NA
ATOM     19  C   UNL     1      -7.818  19.213  68.380  0.00  0.00    +0.090 C 
ATOM     20  C   UNL     1     -10.187  19.151  67.871  0.00  0.00    +0.090 C 
ENDBRANCH  17  18
ENDBRANCH  15  17
ENDBRANCH   1  15
TORSDOF 3
ENDMDL
MODEL 3
REMARK VINA RESULT:      -5.8      3.087      5.280
REMARK  Name = 
REMARK  3 active torsions:
REMARK  status: ('A' for Active; 'I' for Inactive)
REMARK    1  A    between atoms: C_2  and  C_3
REMARK    2  A    between atoms: C_2  and  N_18
REMARK    3  A    between atoms: C_3  and  N_4
REMARK                            x       y       z     vdW  Elec       q    Type
REMARK                         _______ _______ _______ _____ _____    ______ ____
ROOT
ATOM      1  N   UNL     1     -10.827  15.820  68.308  0.00  0.00    -0.285 N 
ATOM      2  C   UNL     1     -10.907  14.824  67.299  0.00  0.00    +0.058 A 
ATOM      3  C   UNL     1      -9.900  14.600  66.369  0.00  0.00    +0.043 A 
ATOM      4  C   UNL     1     -10.221  14.427  65.028  0.00  0.00    +0.008 A 
ATOM      5  C   UNL     1     -11.464  13.863  64.777  0.00  0.00    +0.001 A 
ATOM      6  C   UNL     1     -12.312  13.535  65.830  0.00  0.00    +0.001 A 
ATOM      7  S   UNL     1      -8.263  15.173  66.844  0.00  0.00    -0.084 S 
ATOM      8  C   UNL     1      -8.569  16.675  67.781  0.00  0.00    +0.043 A 
ATOM      9  C   UNL     1      -7.838  17.782  67.365  0.00  0.00    +0.008 A 
ATOM     10  C   UNL     1      -8.267  19.076  67.631  0.00  0.00    +0.001 A 
ATOM     11  C   UNL     1      -9.277  19.181  68.572  0.00  0.00    +0.001 A 
ATOM     12  C   UNL     1     -10.088  18.106  68.834  0.00  0.00    +0.015 A 
ATOM     13  C   UNL     1     -12.114  14.205  67.006  0.00  0.00    +0.015 A 
ATOM     14  C   UNL     1      -9.863  16.869  68.244  0.00  0.00    +0.058 A 
ENDROOT
BRANCH   1  15
ATOM     15  C   UNL     1     -11.880  15.940  69.301  0.00  0.00    +0.111 C 
BRANCH  15  17
ATOM     16  C   UNL     1     -11.828  16.130  71.668  0.00  0.00    +0.019 C 
ATOM     17  C   UNL     1     -11.421  14.990  70.557  0.00  0.00    +0.078 C 
BRANCH  17  18
ATOM     18  N   UNL     1     -12.816  14.290  70.695  0.00  0.00    -0.270 NA
ATOM     19  C   UNL     1     -12.676  12.981  71.143  0.00  0.00    +0.090 C 
ATOM     20  C   UNL     1     -13.706  15.165  71.342  0.00  0.00    +0.090 C 
ENDBRANCH  17  18
ENDBRANCH  15  17
ENDBRANCH   1  15
TORSDOF 3
ENDMDL
MODEL 4
REMARK VINA RESULT:      -5.8      2.245      5.267
REMARK  Name = 
REMARK  3 active torsions:
REMARK  status: ('A' for Active; 'I' for Inactive)
REMARK    1  A    between atoms: C_2  and  C_3
REMARK    2  A    between atoms: C_2  and  N_18
REMARK    3  A    between atoms: C_3  and  N_4
REMARK                            x       y       z     vdW  Elec       q    Type
REMARK                         _______ _______ _______ _____ _____    ______ ____
ROOT
ATOM      1  N   UNL     1     -11.440  14.469  68.971  0.00  0.00    -0.285 N 
ATOM      2  C   UNL     1     -11.046  15.587  68.190  0.00  0.00    +0.058 A 
ATOM      3  C   UNL     1     -10.929  15.544  66.806  0.00  0.00    +0.043 A 
ATOM      4  C   UNL     1      -9.819  16.108  66.188  0.00  0.00    +0.008 A 
ATOM      5  C   UNL     1      -9.248  17.188  66.848  0.00  0.00    +0.001 A 
ATOM      6  C   UNL     1      -9.769  17.622  68.062  0.00  0.00    +0.001 A 
ATOM      7  S   UNL     1     -11.861  14.244  65.986  0.00  0.00    -0.084 S 
ATOM      8  C   UNL     1     -11.798  12.859  67.130  0.00  0.00    +0.043 A 
ATOM      9  C   UNL     1     -11.380  11.657  66.570  0.00  0.00    +0.008 A 
ATOM     10  C   UNL     1     -10.832  10.647  67.348  0.00  0.00    +0.001 A 
ATOM     11  C   UNL     1     -11.006  10.792  68.714  0.00  0.00    +0.001 A 
ATOM     12  C   UNL     1     -11.253  12.032  69.248  0.00  0.00    +0.015 A 
ATOM     13  C   UNL     1     -10.484  16.707  68.784  0.00  0.00    +0.015 A 
ATOM     14  C   UNL     1     -11.431  13.147  68.437  0.00  0.00    +0.058 A 
ENDROOT
BRANCH   1  15
ATOM     15  C   UNL     1     -11.627  14.609  70.405  0.00  0.00    +0.111 C 
BRANCH  15  17
ATOM     16  C   UNL     1     -13.267  13.578  71.780  0.00  0.00    +0.019 C 
ATOM     17  C   UNL     1     -13.245  14.754  70.633  0.00  0.00    +0.078 C 
BRANCH  17  18
ATOM     18  N   UNL     1     -13.114  15.876  71.718  0.00  0.00    -0.270 NA
ATOM     19  C   UNL     1     -14.126  15.775  72.666  0.00  0.00    +0.090 C 
ATOM     20  C   UNL     1     -11.772  15.965  72.126  0.00  0.00    +0.090 C 
ENDBRANCH  17  18
ENDBRANCH  15  17
ENDBRANCH   1  15
TORSDOF 3
ENDMDL
MODEL 5
REMARK VINA RESULT:      -5.8      2.479      6.559
REMARK  Name = 
REMARK  3 active torsions:
REMARK  status: ('A' for Active; 'I' for Inactive)
REMARK    1  A    between atoms: C_2  and  C_3
REMARK    2  A    between atoms: C_2  and  N_18
REMARK    3  A    between atoms: C_3  and  N_4
REMARK                            x       y       z     vdW  Elec       q    Type
REMARK                         _______ _______ _______ _____ _____    ______ ____
ROOT
ATOM      1  N   UNL     1     -11.267  13.598  67.084  0.00  0.00    -0.285 N 
ATOM      2  C   UNL     1     -11.209  12.810  68.264  0.00  0.00    +0.058 A 
ATOM      3  C   UNL     1     -10.793  11.485  68.273  0.00  0.00    +0.043 A 
ATOM      4  C   UNL     1     -11.514  10.537  68.990  0.00  0.00    +0.008 A 
ATOM      5  C   UNL     1     -12.175  11.011  70.115  0.00  0.00    +0.001 A 
ATOM      6  C   UNL     1     -12.115  12.361  70.448  0.00  0.00    +0.001 A 
ATOM      7  S   UNL     1      -9.764  10.983  66.888  0.00  0.00    -0.084 S 
ATOM      8  C   UNL     1     -10.406  11.914  65.492  0.00  0.00    +0.043 A 
ATOM      9  C   UNL     1     -10.705  11.152  64.368  0.00  0.00    +0.008 A 
ATOM     10  C   UNL     1     -11.614  11.590  63.415  0.00  0.00    +0.001 A 
ATOM     11  C   UNL     1     -11.961  12.928  63.501  0.00  0.00    +0.001 A 
ATOM     12  C   UNL     1     -11.805  13.605  64.684  0.00  0.00    +0.015 A 
ATOM     13  C   UNL     1     -11.833  13.229  69.430  0.00  0.00    +0.015 A 
ATOM     14  C   UNL     1     -11.213  13.004  65.789  0.00  0.00    +0.058 A 
ENDROOT
BRANCH   1  15
ATOM     15  C   UNL     1     -11.628  15.003  67.161  0.00  0.00    +0.111 C 
BRANCH  15  17
ATOM     16  C   UNL     1     -10.410  16.683  66.005  0.00  0.00    +0.019 C 
ATOM     17  C   UNL     1     -10.221  15.815  67.387  0.00  0.00    +0.078 C 
BRANCH  17  18
ATOM     18  N   UNL     1     -10.874  16.951  68.246  0.00  0.00    -0.270 NA
ATOM     19  C   UNL     1     -10.817  16.648  69.601  0.00  0.00    +0.090 C 
ATOM     20  C   UNL     1     -10.418  18.197  67.781  0.00  0.00    +0.090 C 
ENDBRANCH  17  18
ENDBRANCH  15  17
ENDBRANCH   1  15
TORSDOF 3
ENDMDL
MODEL 6
REMARK VINA RESULT:      -5.6      1.140      1.360
REMARK  Name = 
REMARK  3 active torsions:
REMARK  status: ('A' for Active; 'I' for Inactive)
REMARK    1  A    between atoms: C_2  and  C_3
REMARK    2  A    between atoms: C_2  and  N_18
REMARK    3  A    between atoms: C_3  and  N_4
REMARK                            x       y       z     vdW  Elec       q    Type
REMARK                         _______ _______ _______ _____ _____    ______ ____
ROOT
ATOM      1  N   UNL     1     -11.491  12.612  68.427  0.00  0.00    -0.285 N 
ATOM      2  C   UNL     1     -11.297  12.943  67.060  0.00  0.00    +0.058 A 
ATOM      3  C   UNL     1     -10.933  14.213  66.630  0.00  0.00    +0.043 A 
ATOM      4  C   UNL     1     -11.580  14.788  65.543  0.00  0.00    +0.008 A 
ATOM      5  C   UNL     1     -12.059  13.899  64.590  0.00  0.00    +0.001 A 
ATOM      6  C   UNL     1     -11.903  12.529  64.768  0.00  0.00    +0.001 A 
ATOM      7  S   UNL     1     -10.127  15.249  67.858  0.00  0.00    -0.084 S 
ATOM      8  C   UNL     1     -10.925  14.809  69.407  0.00  0.00    +0.043 A 
ATOM      9  C   UNL     1     -11.406  15.887  70.143  0.00  0.00    +0.008 A 
ATOM     10  C   UNL     1     -12.424  15.732  71.074  0.00  0.00    +0.001 A 
ATOM     11  C   UNL     1     -12.706  14.424  71.430  0.00  0.00    +0.001 A 
ATOM     12  C   UNL     1     -12.361  13.393  70.591  0.00  0.00    +0.015 A 
ATOM     13  C   UNL     1     -11.735  12.094  66.054  0.00  0.00    +0.015 A 
ATOM     14  C   UNL     1     -11.642  13.621  69.424  0.00  0.00    +0.058 A 
ENDROOT
BRANCH   1  15
ATOM     15  C   UNL     1     -11.786  11.243  68.812  0.00  0.00    +0.111 C 
BRANCH  15  17
ATOM     16  C   UNL     1     -10.970   9.911  70.602  0.00  0.00    +0.019 C 
ATOM     17  C   UNL     1     -10.348  10.577  69.235  0.00  0.00    +0.078 C 
BRANCH  17  18
ATOM     18  N   UNL     1     -10.584   9.256  68.427  0.00  0.00    -0.270 NA
ATOM     19  C   UNL     1      -9.809   9.230  67.273  0.00  0.00    +0.090 C 
ATOM     20  C   UNL     1     -10.565   8.165  69.314  0.00  0.00    +0.090 C 
ENDBRANCH  17  18
ENDBRANCH  15  17
ENDBRANCH   1  15
TORSDOF 3
ENDMDL
MODEL 7
REMARK VINA RESULT:      -5.6      1.826      4.480
REMARK  Name = 
REMARK  3 active torsions:
REMARK  status: ('A' for Active; 'I' for Inactive)
REMARK    1  A    between atoms: C_2  and  C_3
REMARK    2  A    between atoms: C_2  and  N_18
REMARK    3  A    between atoms: C_3  and  N_4
REMARK                            x       y       z     vdW  Elec       q    Type
REMARK                         _______ _______ _______ _____ _____    ______ ____
ROOT
ATOM      1  N   UNL     1     -11.240  12.017  69.325  0.00  0.00    -0.285 N 
ATOM      2  C   UNL     1     -10.749  10.711  69.589  0.00  0.00    +0.058 A 
ATOM      3  C   UNL     1     -11.251   9.899  70.597  0.00  0.00    +0.043 A 
ATOM      4  C   UNL     1     -10.379   9.208  71.429  0.00  0.00    +0.008 A 
ATOM      5  C   UNL     1      -9.165   8.848  70.859  0.00  0.00    +0.001 A 
ATOM      6  C   UNL     1      -8.874   9.204  69.547  0.00  0.00    +0.001 A 
ATOM      7  S   UNL     1     -12.916  10.288  71.152  0.00  0.00    -0.084 S 
ATOM      8  C   UNL     1     -13.018  12.079  71.041  0.00  0.00    +0.043 A 
ATOM      9  C   UNL     1     -13.466  12.711  72.195  0.00  0.00    +0.008 A 
ATOM     10  C   UNL     1     -13.166  14.042  72.455  0.00  0.00    +0.001 A 
ATOM     11  C   UNL     1     -12.670  14.757  71.378  0.00  0.00    +0.001 A 
ATOM     12  C   UNL     1     -12.081  14.099  70.328  0.00  0.00    +0.015 A 
ATOM     13  C   UNL     1      -9.551  10.277  69.039  0.00  0.00    +0.015 A 
ATOM     14  C   UNL     1     -12.054  12.711  70.268  0.00  0.00    +0.058 A 
ENDROOT
BRANCH   1  15
ATOM     15  C   UNL     1     -10.728  12.776  68.197  0.00  0.00    +0.111 C 
BRANCH  15  17
ATOM     16  C   UNL     1     -11.978  14.009  66.598  0.00  0.00    +0.019 C 
ATOM     17  C   UNL     1     -11.713  12.423  66.935  0.00  0.00    +0.078 C 
BRANCH  17  18
ATOM     18  N   UNL     1     -10.548  12.347  65.890  0.00  0.00    -0.270 NA
ATOM     19  C   UNL     1     -10.357  11.043  65.448  0.00  0.00    +0.090 C 
ATOM     20  C   UNL     1     -10.696  13.392  64.961  0.00  0.00    +0.090 C 
ENDBRANCH  17  18
ENDBRANCH  15  17
ENDBRANCH   1  15
TORSDOF 3
ENDMDL
MODEL 8
REMARK VINA RESULT:      -5.4      2.270      5.283
REMARK  Name = 
REMARK  3 active torsions:
REMARK  status: ('A' for Active; 'I' for Inactive)
REMARK    1  A    between atoms: C_2  and  C_3
REMARK    2  A    between atoms: C_2  and  N_18
REMARK    3  A    between atoms: C_3  and  N_4
REMARK                            x       y       z     vdW  Elec       q    Type
REMARK                         _______ _______ _______ _____ _____    ______ ____
ROOT
ATOM      1  N   UNL     1     -10.794  12.812  67.046  0.00  0.00    -0.285 N 
ATOM      2  C   UNL     1     -10.888  14.226  66.959  0.00  0.00    +0.058 A 
ATOM      3  C   UNL     1     -11.210  14.897  65.786  0.00  0.00    +0.043 A 
ATOM      4  C   UNL     1     -10.482  16.018  65.407  0.00  0.00    +0.008 A 
ATOM      5  C   UNL     1      -9.945  16.765  66.447  0.00  0.00    +0.001 A 
ATOM      6  C   UNL     1     -10.125  16.361  67.766  0.00  0.00    +0.001 A 
ATOM      7  S   UNL     1     -12.091  13.929  64.554  0.00  0.00    -0.084 S 
ATOM      8  C   UNL     1     -11.409  12.274  64.713  0.00  0.00    +0.043 A 
ATOM      9  C   UNL     1     -10.972  11.706  63.522  0.00  0.00    +0.008 A 
ATOM     10  C   UNL     1     -10.024  10.691  63.507  0.00  0.00    +0.001 A 
ATOM     11  C   UNL     1      -9.779  10.094  64.732  0.00  0.00    +0.001 A 
ATOM     12  C   UNL     1     -10.073  10.762  65.895  0.00  0.00    +0.015 A 
ATOM     13  C   UNL     1     -10.388  15.035  67.969  0.00  0.00    +0.015 A 
ATOM     14  C   UNL     1     -10.706  11.999  65.877  0.00  0.00    +0.058 A 
ENDROOT
BRANCH   1  15
ATOM     15  C   UNL     1     -10.539  12.174  68.325  0.00  0.00    +0.111 C 
BRANCH  15  17
ATOM     16  C   UNL     1     -11.220  10.047  69.133  0.00  0.00    +0.019 C 
ATOM     17  C   UNL     1     -11.954  11.470  68.764  0.00  0.00    +0.078 C 
BRANCH  17  18
ATOM     18  N   UNL     1     -11.872  11.952  70.253  0.00  0.00    -0.270 NA
ATOM     19  C   UNL     1     -12.270  13.279  70.371  0.00  0.00    +0.090 C 
ATOM     20  C   UNL     1     -12.435  10.969  71.085  0.00  0.00    +0.090 C 
ENDBRANCH  17  18
ENDBRANCH  15  17
ENDBRANCH   1  15
TORSDOF 3
ENDMDL
MODEL 9
REMARK VINA RESULT:      -5.3      1.328      1.779
REMARK  Name = 
REMARK  3 active torsions:
REMARK  status: ('A' for Active; 'I' for Inactive)
REMARK    1  A    between atoms: C_2  and  C_3
REMARK    2  A    between atoms: C_2  and  N_18
REMARK    3  A    between atoms: C_3  and  N_4
REMARK                            x       y       z     vdW  Elec       q    Type
REMARK                         _______ _______ _______ _____ _____    ______ ____
ROOT
ATOM      1  N   UNL     1     -11.341  11.436  68.473  0.00  0.00    -0.285 N 
ATOM      2  C   UNL     1     -11.346  12.247  67.307  0.00  0.00    +0.058 A 
ATOM      3  C   UNL     1     -11.547  13.621  67.338  0.00  0.00    +0.043 A 
ATOM      4  C   UNL     1     -12.409  14.216  66.425  0.00  0.00    +0.008 A 
ATOM      5  C   UNL     1     -12.514  13.579  65.196  0.00  0.00    +0.001 A 
ATOM      6  C   UNL     1     -11.806  12.407  64.951  0.00  0.00    +0.001 A 
ATOM      7  S   UNL     1     -11.194  14.424  68.908  0.00  0.00    -0.084 S 
ATOM      8  C   UNL     1     -11.690  13.221  70.147  0.00  0.00    +0.043 A 
ATOM      9  C   UNL     1     -12.544  13.711  71.128  0.00  0.00    +0.008 A 
ATOM     10  C   UNL     1     -13.377  12.868  71.851  0.00  0.00    +0.001 A 
ATOM     11  C   UNL     1     -13.087  11.518  71.746  0.00  0.00    +0.001 A 
ATOM     12  C   UNL     1     -12.380  11.048  70.668  0.00  0.00    +0.015 A 
ATOM     13  C   UNL     1     -11.432  11.678  66.045  0.00  0.00    +0.015 A 
ATOM     14  C   UNL     1     -11.857  11.913  69.714  0.00  0.00    +0.058 A 
ENDROOT
BRANCH   1  15
ATOM     15  C   UNL     1     -11.037  10.019  68.375  0.00  0.00    +0.111 C 
BRANCH  15  17
ATOM     16  C   UNL     1      -9.546   8.616  69.579  0.00  0.00    +0.019 C 
ATOM     17  C   UNL     1      -9.412   9.896  68.558  0.00  0.00    +0.078 C 
BRANCH  17  18
ATOM     18  N   UNL     1      -9.223   8.950  67.323  0.00  0.00    -0.270 NA
ATOM     19  C   UNL     1      -7.990   8.310  67.368  0.00  0.00    +0.090 C 
ATOM     20  C   UNL     1     -10.399   8.204  67.133  0.00  0.00    +0.090 C 
ENDBRANCH  17  18
ENDBRANCH  15  17
ENDBRANCH   1  15
TORSDOF 3
ENDMDL
