MODEL 1
REMARK VINA RESULT:      -7.7      0.000      0.000
REMARK  Name = 
REMARK  7 active torsions:
REMARK  status: ('A' for Active; 'I' for Inactive)
REMARK    1  A    between atoms: C_2  and  C_3
REMARK    2  A    between atoms: C_3  and  C_6
REMARK    3  A    between atoms: C_6  and  O_8
REMARK    4  A    between atoms: O_8  and  C_9
REMARK    5  A    between atoms: C_19  and  C_20
REMARK    6  A    between atoms: C_20  and  C_21
REMARK    7  A    between atoms: C_21  and  C_22
REMARK                            x       y       z     vdW  Elec       q    Type
REMARK                         _______ _______ _______ _____ _____    ______ ____
ROOT
ATOM      1  C   UNL     1      -8.927  16.513  67.799  0.00  0.00    +0.173 C 
ATOM      2  C   UNL     1     -10.511  15.899  67.734  0.00  0.00    +0.062 C 
ATOM      3  C   UNL     1      -9.926  15.297  66.369  0.00  0.00    -0.024 C 
ATOM      4  C   UNL     1     -11.202  14.808  65.790  0.00  0.00    -0.009 C 
ATOM      5  C   UNL     1     -12.003  14.208  66.715  0.00  0.00    -0.027 C 
ATOM      6  C   UNL     1     -10.742  13.391  67.301  0.00  0.00    +0.022 C 
ATOM      7  C   UNL     1     -11.587  12.250  68.069  0.00  0.00    +0.005 C 
ATOM      8  C   UNL     1      -8.815  14.635  66.374  0.00  0.00    -0.030 C 
ATOM      9  C   UNL     1      -7.543  15.008  67.263  0.00  0.00    +0.025 C 
ATOM     10  C   UNL     1      -7.215  13.459  67.670  0.00  0.00    +0.005 C 
ATOM     11  C   UNL     1     -10.392  14.453  68.587  0.00  0.00    +0.012 C 
ATOM     12  C   UNL     1      -8.291  15.314  68.715  0.00  0.00    +0.048 C 
ENDROOT
BRANCH   1  13
ATOM     13  O   UNL     1      -9.150  17.617  68.857  0.00  0.00    -0.452 OA
BRANCH  13  14
ATOM     14  C   UNL     1      -8.206  18.580  68.433  0.00  0.00    +0.316 C 
ATOM     15  O   UNL     1      -7.005  18.476  68.863  0.00  0.00    -0.250 OA
BRANCH  14  16
ATOM     16  C   UNL     1      -8.255  19.554  67.314  0.00  0.00    +0.090 C 
ATOM     17  C   UNL     1      -7.377  20.751  67.418  0.00  0.00    +0.011 C 
ATOM     18  C   UNL     1      -7.772  18.818  66.054  0.00  0.00    +0.011 C 
BRANCH  16  20
ATOM     19  C   UNL     1     -10.217  19.795  66.259  0.00  0.00    +0.001 C 
ATOM     20  C   UNL     1      -9.631  19.904  66.839  0.00  0.00    +0.011 C 
ENDBRANCH  16  20
ENDBRANCH  14  16
ENDBRANCH  13  14
ENDBRANCH   1  13
BRANCH  11  21
ATOM     21  C   UNL     1     -11.897  14.557  69.122  0.00  0.00    +0.004 C 
BRANCH  21  22
ATOM     22  C   UNL     1     -12.075  15.906  69.857  0.00  0.00    +0.044 C 
BRANCH  22  23
ATOM     23  C   UNL     1     -11.445  15.286  71.276  0.00  0.00    +0.171 C 
ATOM     24  O   UNL     1     -12.062  16.393  72.160  0.00  0.00    -0.452 OA
ATOM     25  C   UNL     1     -12.135  16.036  73.515  0.00  0.00    +0.319 C 
ATOM     26  O   UNL     1     -12.512  16.919  74.360  0.00  0.00    -0.250 OA
ATOM     27  C   UNL     1     -12.745  14.659  73.620  0.00  0.00    +0.142 C 
ATOM     28  C   UNL     1     -13.768  14.828  72.333  0.00  0.00    +0.167 C 
ATOM     29  O   UNL     1     -14.391  13.468  72.581  0.00  0.00    -0.222 OA
ATOM     30  C   UNL     1     -12.671  14.194  71.304  0.00  0.00    +0.077 C 
ENDBRANCH  22  23
ENDBRANCH  21  22
ENDBRANCH  11  21
TORSDOF 7
ENDMDL
MODEL 2
REMARK VINA RESULT:      -7.6      3.207      6.189
REMARK  Name = 
REMARK  7 active torsions:
REMARK  status: ('A' for Active; 'I' for Inactive)
REMARK    1  A    between atoms: C_2  and  C_3
REMARK    2  A    between atoms: C_3  and  C_6
REMARK    3  A    between atoms: C_6  and  O_8
REMARK    4  A    between atoms: O_8  and  C_9
REMARK    5  A    between atoms: C_19  and  C_20
REMARK    6  A    between atoms: C_20  and  C_21
REMARK    7  A    between atoms: C_21  and  C_22
REMARK                            x       y       z     vdW  Elec       q    Type
REMARK                         _______ _______ _______ _____ _____    ______ ____
ROOT
ATOM      1  C   UNL     1     -11.378  14.496  68.799  0.00  0.00    +0.173 C 
ATOM      2  C   UNL     1     -11.895  13.249  67.767  0.00  0.00    +0.062 C 
ATOM      3  C   UNL     1     -11.919  14.481  66.744  0.00  0.00    -0.024 C 
ATOM      4  C   UNL     1     -12.621  13.810  65.621  0.00  0.00    -0.009 C 
ATOM      5  C   UNL     1     -12.186  12.535  65.415  0.00  0.00    -0.027 C 
ATOM      6  C   UNL     1     -10.653  13.021  65.545  0.00  0.00    +0.022 C 
ATOM      7  C   UNL     1      -9.980  11.743  64.826  0.00  0.00    +0.005 C 
ATOM      8  C   UNL     1     -10.881  15.240  66.616  0.00  0.00    -0.030 C 
ATOM      9  C   UNL     1      -9.939  15.697  67.822  0.00  0.00    +0.025 C 
ATOM     10  C   UNL     1      -8.551  15.490  66.984  0.00  0.00    +0.005 C 
ATOM     11  C   UNL     1     -10.449  12.612  67.187  0.00  0.00    +0.012 C 
ATOM     12  C   UNL     1      -9.770  14.247  68.616  0.00  0.00    +0.048 C 
ENDROOT
BRANCH   1  13
ATOM     13  O   UNL     1     -11.639  13.799  70.154  0.00  0.00    -0.452 OA
BRANCH  13  14
ATOM     14  C   UNL     1     -12.424  14.778  70.805  0.00  0.00    +0.316 C 
ATOM     15  O   UNL     1     -12.559  15.917  70.236  0.00  0.00    -0.250 OA
BRANCH  14  16
ATOM     16  C   UNL     1     -13.403  14.652  71.913  0.00  0.00    +0.090 C 
ATOM     17  C   UNL     1     -14.779  15.162  71.663  0.00  0.00    +0.011 C 
ATOM     18  C   UNL     1     -13.582  13.151  72.189  0.00  0.00    +0.011 C 
BRANCH  16  20
ATOM     19  C   UNL     1     -12.622  15.672  73.749  0.00  0.00    +0.001 C 
ATOM     20  C   UNL     1     -12.888  15.054  73.261  0.00  0.00    +0.011 C 
ENDBRANCH  16  20
ENDBRANCH  14  16
ENDBRANCH  13  14
ENDBRANCH   1  13
BRANCH  11  21
ATOM     21  C   UNL     1     -11.060  11.138  67.062  0.00  0.00    +0.004 C 
BRANCH  21  22
ATOM     22  C   UNL     1     -11.545  10.677  68.455  0.00  0.00    +0.044 C 
BRANCH  22  23
ATOM     23  C   UNL     1      -9.991  10.294  68.937  0.00  0.00    +0.171 C 
ATOM     24  O   UNL     1     -10.425   9.835  70.347  0.00  0.00    -0.452 OA
ATOM     25  C   UNL     1      -9.471   9.023  70.978  0.00  0.00    +0.319 C 
ATOM     26  O   UNL     1      -9.665   8.686  72.197  0.00  0.00    -0.250 OA
ATOM     27  C   UNL     1      -9.039   7.946  70.013  0.00  0.00    +0.142 C 
ATOM     28  C   UNL     1     -10.509   7.777  69.278  0.00  0.00    +0.167 C 
ATOM     29  O   UNL     1     -10.008   6.631  68.420  0.00  0.00    -0.222 OA
ATOM     30  C   UNL     1     -10.126   8.871  68.129  0.00  0.00    +0.077 C 
ENDBRANCH  22  23
ENDBRANCH  21  22
ENDBRANCH  11  21
TORSDOF 7
ENDMDL
MODEL 3
REMARK VINA RESULT:      -7.5      2.367      5.735
REMARK  Name = 
REMARK  7 active torsions:
REMARK  status: ('A' for Active; 'I' for Inactive)
REMARK    1  A    between atoms: C_2  and  C_3
REMARK    2  A    between atoms: C_3  and  C_6
REMARK    3  A    between atoms: C_6  and  O_8
REMARK    4  A    between atoms: O_8  and  C_9
REMARK    5  A    between atoms: C_19  and  C_20
REMARK    6  A    between atoms: C_20  and  C_21
REMARK    7  A    between atoms: C_21  and  C_22
REMARK                            x       y       z     vdW  Elec       q    Type
REMARK                         _______ _______ _______ _____ _____    ______ ____
ROOT
ATOM      1  C   UNL     1     -11.146  12.547  67.060  0.00  0.00    +0.173 C 
ATOM      2  C   UNL     1     -10.324  13.752  67.933  0.00  0.00    +0.062 C 
ATOM      3  C   UNL     1      -9.481  13.774  66.571  0.00  0.00    -0.024 C 
ATOM      4  C   UNL     1      -8.366  14.640  67.028  0.00  0.00    -0.009 C 
ATOM      5  C   UNL     1      -8.790  15.688  67.788  0.00  0.00    -0.027 C 
ATOM      6  C   UNL     1      -9.981  15.986  66.741  0.00  0.00    +0.022 C 
ATOM      7  C   UNL     1     -10.280  17.501  67.209  0.00  0.00    +0.005 C 
ATOM      8  C   UNL     1     -10.085  13.888  65.434  0.00  0.00    -0.030 C 
ATOM      9  C   UNL     1     -11.473  13.186  65.072  0.00  0.00    +0.025 C 
ATOM     10  C   UNL     1     -12.078  14.494  64.301  0.00  0.00    +0.005 C 
ATOM     11  C   UNL     1     -11.202  15.143  67.578  0.00  0.00    +0.012 C 
ATOM     12  C   UNL     1     -12.326  13.510  66.461  0.00  0.00    +0.048 C 
ENDROOT
BRANCH   1  13
ATOM     13  O   UNL     1     -11.880  11.867  68.239  0.00  0.00    -0.452 OA
BRANCH  13  14
ATOM     14  C   UNL     1     -11.325  10.568  68.179  0.00  0.00    +0.316 C 
ATOM     15  O   UNL     1     -11.039  10.089  67.027  0.00  0.00    -0.250 OA
BRANCH  14  16
ATOM     16  C   UNL     1     -10.709   9.730  69.237  0.00  0.00    +0.090 C 
ATOM     17  C   UNL     1     -10.568   8.276  68.955  0.00  0.00    +0.011 C 
ATOM     18  C   UNL     1      -9.271  10.236  69.432  0.00  0.00    +0.011 C 
BRANCH  16  20
ATOM     19  C   UNL     1     -11.855   9.950  71.150  0.00  0.00    +0.001 C 
ATOM     20  C   UNL     1     -11.213   9.990  70.623  0.00  0.00    +0.011 C 
ENDBRANCH  16  20
ENDBRANCH  14  16
ENDBRANCH  13  14
ENDBRANCH   1  13
BRANCH  11  21
ATOM     21  C   UNL     1     -10.896  15.794  69.007  0.00  0.00    +0.004 C 
BRANCH  21  22
ATOM     22  C   UNL     1     -12.214  15.884  69.810  0.00  0.00    +0.044 C 
BRANCH  22  23
ATOM     23  C   UNL     1     -11.482  15.302  71.195  0.00  0.00    +0.171 C 
ATOM     24  O   UNL     1     -12.134  16.360  72.114  0.00  0.00    -0.452 OA
ATOM     25  C   UNL     1     -12.122  15.993  73.468  0.00  0.00    +0.319 C 
ATOM     26  O   UNL     1     -12.521  16.845  74.335  0.00  0.00    -0.250 OA
ATOM     27  C   UNL     1     -12.630  14.577  73.589  0.00  0.00    +0.142 C 
ATOM     28  C   UNL     1     -13.718  14.681  72.349  0.00  0.00    +0.167 C 
ATOM     29  O   UNL     1     -14.234  13.279  72.615  0.00  0.00    -0.222 OA
ATOM     30  C   UNL     1     -12.626  14.128  71.269  0.00  0.00    +0.077 C 
ENDBRANCH  22  23
ENDBRANCH  21  22
ENDBRANCH  11  21
TORSDOF 7
ENDMDL
MODEL 4
REMARK VINA RESULT:      -7.2      3.358      6.387
REMARK  Name = 
REMARK  7 active torsions:
REMARK  status: ('A' for Active; 'I' for Inactive)
REMARK    1  A    between atoms: C_2  and  C_3
REMARK    2  A    between atoms: C_3  and  C_6
REMARK    3  A    between atoms: C_6  and  O_8
REMARK    4  A    between atoms: O_8  and  C_9
REMARK    5  A    between atoms: C_19  and  C_20
REMARK    6  A    between atoms: C_20  and  C_21
REMARK    7  A    between atoms: C_21  and  C_22
REMARK                            x       y       z     vdW  Elec       q    Type
REMARK                         _______ _______ _______ _____ _____    ______ ____
ROOT
ATOM      1  C   UNL     1     -11.452  14.488  68.737  0.00  0.00    +0.173 C 
ATOM      2  C   UNL     1     -11.892  13.176  67.750  0.00  0.00    +0.062 C 
ATOM      3  C   UNL     1     -11.968  14.365  66.679  0.00  0.00    -0.024 C 
ATOM      4  C   UNL     1     -12.621  13.614  65.577  0.00  0.00    -0.009 C 
ATOM      5  C   UNL     1     -12.118  12.357  65.426  0.00  0.00    -0.027 C 
ATOM      6  C   UNL     1     -10.614  12.928  65.551  0.00  0.00    +0.022 C 
ATOM      7  C   UNL     1      -9.867  11.659  64.890  0.00  0.00    +0.005 C 
ATOM      8  C   UNL     1     -10.969  15.172  66.530  0.00  0.00    -0.030 C 
ATOM      9  C   UNL     1     -10.066  15.724  67.726  0.00  0.00    +0.025 C 
ATOM     10  C   UNL     1      -8.660  15.557  66.910  0.00  0.00    +0.005 C 
ATOM     11  C   UNL     1     -10.408  12.594  67.209  0.00  0.00    +0.012 C 
ATOM     12  C   UNL     1      -9.831  14.317  68.578  0.00  0.00    +0.048 C 
ENDROOT
BRANCH   1  13
ATOM     13  O   UNL     1     -11.692  13.832  70.116  0.00  0.00    -0.452 OA
BRANCH  13  14
ATOM     14  C   UNL     1     -12.468  14.830  70.749  0.00  0.00    +0.316 C 
ATOM     15  O   UNL     1     -12.565  15.971  70.176  0.00  0.00    -0.250 OA
BRANCH  14  16
ATOM     16  C   UNL     1     -13.473  14.728  71.836  0.00  0.00    +0.090 C 
ATOM     17  C   UNL     1     -14.868  15.132  71.510  0.00  0.00    +0.011 C 
ATOM     18  C   UNL     1     -13.571  13.244  72.221  0.00  0.00    +0.011 C 
BRANCH  16  20
ATOM     19  C   UNL     1     -12.464  15.226  73.774  0.00  0.00    +0.001 C 
ATOM     20  C   UNL     1     -13.026  15.261  73.162  0.00  0.00    +0.011 C 
ENDBRANCH  16  20
ENDBRANCH  14  16
ENDBRANCH  13  14
ENDBRANCH   1  13
BRANCH  11  21
ATOM     21  C   UNL     1     -10.940  11.086  67.137  0.00  0.00    +0.004 C 
BRANCH  21  22
ATOM     22  C   UNL     1     -11.374  10.640  68.551  0.00  0.00    +0.044 C 
BRANCH  22  23
ATOM     23  C   UNL     1     -10.629   9.154  68.378  0.00  0.00    +0.171 C 
ATOM     24  O   UNL     1      -9.274   9.762  67.951  0.00  0.00    -0.452 OA
ATOM     25  C   UNL     1      -8.201   8.871  68.101  0.00  0.00    +0.319 C 
ATOM     26  O   UNL     1      -7.051   9.220  67.663  0.00  0.00    -0.250 OA
ATOM     27  C   UNL     1      -8.271   8.258  69.479  0.00  0.00    +0.142 C 
ATOM     28  C   UNL     1      -8.873   9.601  70.231  0.00  0.00    +0.167 C 
ATOM     29  O   UNL     1      -8.810   8.932  71.591  0.00  0.00    -0.222 OA
ATOM     30  C   UNL     1     -10.413   9.109  70.004  0.00  0.00    +0.077 C 
ENDBRANCH  22  23
ENDBRANCH  21  22
ENDBRANCH  11  21
TORSDOF 7
ENDMDL
MODEL 5
REMARK VINA RESULT:      -7.2      2.799      5.758
REMARK  Name = 
REMARK  7 active torsions:
REMARK  status: ('A' for Active; 'I' for Inactive)
REMARK    1  A    between atoms: C_2  and  C_3
REMARK    2  A    between atoms: C_3  and  C_6
REMARK    3  A    between atoms: C_6  and  O_8
REMARK    4  A    between atoms: O_8  and  C_9
REMARK    5  A    between atoms: C_19  and  C_20
REMARK    6  A    between atoms: C_20  and  C_21
REMARK    7  A    between atoms: C_21  and  C_22
REMARK                            x       y       z     vdW  Elec       q    Type
REMARK                         _______ _______ _______ _____ _____    ______ ____
ROOT
ATOM      1  C   UNL     1     -11.239  14.600  68.511  0.00  0.00    +0.173 C 
ATOM      2  C   UNL     1     -11.826  13.328  67.549  0.00  0.00    +0.062 C 
ATOM      3  C   UNL     1     -11.876  14.524  66.485  0.00  0.00    -0.024 C 
ATOM      4  C   UNL     1     -12.641  13.828  65.421  0.00  0.00    -0.009 C 
ATOM      5  C   UNL     1     -12.239  12.539  65.240  0.00  0.00    -0.027 C 
ATOM      6  C   UNL     1     -10.693  12.999  65.282  0.00  0.00    +0.022 C 
ATOM      7  C   UNL     1     -10.077  11.684  64.579  0.00  0.00    +0.005 C 
ATOM      8  C   UNL     1     -10.831  15.258  66.282  0.00  0.00    -0.030 C 
ATOM      9  C   UNL     1      -9.827  15.739  67.427  0.00  0.00    +0.025 C 
ATOM     10  C   UNL     1      -8.483  15.475  66.534  0.00  0.00    +0.005 C 
ATOM     11  C   UNL     1     -10.421  12.644  66.926  0.00  0.00    +0.012 C 
ATOM     12  C   UNL     1      -9.646  14.314  68.263  0.00  0.00    +0.048 C 
ENDROOT
BRANCH   1  13
ATOM     13  O   UNL     1     -11.450  13.957  69.901  0.00  0.00    -0.452 OA
BRANCH  13  14
ATOM     14  C   UNL     1     -12.132  14.997  70.571  0.00  0.00    +0.316 C 
ATOM     15  O   UNL     1     -12.375  16.073  69.922  0.00  0.00    -0.250 OA
BRANCH  14  16
ATOM     16  C   UNL     1     -12.916  14.984  71.832  0.00  0.00    +0.090 C 
ATOM     17  C   UNL     1     -12.491  15.926  72.903  0.00  0.00    +0.011 C 
ATOM     18  C   UNL     1     -14.349  15.409  71.476  0.00  0.00    +0.011 C 
BRANCH  16  20
ATOM     19  C   UNL     1     -13.764  12.986  72.390  0.00  0.00    +0.001 C 
ATOM     20  C   UNL     1     -13.227  13.622  72.369  0.00  0.00    +0.011 C 
ENDBRANCH  16  20
ENDBRANCH  14  16
ENDBRANCH  13  14
ENDBRANCH   1  13
BRANCH  11  21
ATOM     21  C   UNL     1     -11.062  11.179  66.882  0.00  0.00    +0.004 C 
BRANCH  21  22
ATOM     22  C   UNL     1     -10.039  10.166  67.445  0.00  0.00    +0.044 C 
BRANCH  22  23
ATOM     23  C   UNL     1     -10.202  10.770  68.995  0.00  0.00    +0.171 C 
ATOM     24  O   UNL     1     -11.667  10.299  69.140  0.00  0.00    -0.452 OA
ATOM     25  C   UNL     1     -12.091  10.231  70.475  0.00  0.00    +0.319 C 
ATOM     26  O   UNL     1     -13.322   9.974  70.713  0.00  0.00    -0.250 OA
ATOM     27  C   UNL     1     -11.051   9.484  71.275  0.00  0.00    +0.142 C 
ATOM     28  C   UNL     1     -10.620   8.446  70.064  0.00  0.00    +0.167 C 
ATOM     29  O   UNL     1      -9.671   7.692  70.977  0.00  0.00    -0.222 OA
ATOM     30  C   UNL     1      -9.426   9.439  69.561  0.00  0.00    +0.077 C 
ENDBRANCH  22  23
ENDBRANCH  21  22
ENDBRANCH  11  21
TORSDOF 7
ENDMDL
MODEL 6
REMARK VINA RESULT:      -7.0      3.859      8.487
REMARK  Name = 
REMARK  7 active torsions:
REMARK  status: ('A' for Active; 'I' for Inactive)
REMARK    1  A    between atoms: C_2  and  C_3
REMARK    2  A    between atoms: C_3  and  C_6
REMARK    3  A    between atoms: C_6  and  O_8
REMARK    4  A    between atoms: O_8  and  C_9
REMARK    5  A    between atoms: C_19  and  C_20
REMARK    6  A    between atoms: C_20  and  C_21
REMARK    7  A    between atoms: C_21  and  C_22
REMARK                            x       y       z     vdW  Elec       q    Type
REMARK                         _______ _______ _______ _____ _____    ______ ____
ROOT
ATOM      1  C   UNL     1     -10.391  16.594  66.341  0.00  0.00    +0.173 C 
ATOM      2  C   UNL     1      -9.637  18.116  66.281  0.00  0.00    +0.062 C 
ATOM      3  C   UNL     1     -10.506  18.291  67.615  0.00  0.00    -0.024 C 
ATOM      4  C   UNL     1     -10.305  19.749  67.808  0.00  0.00    -0.009 C 
ATOM      5  C   UNL     1      -9.023  20.140  67.565  0.00  0.00    -0.027 C 
ATOM      6  C   UNL     1      -8.463  18.888  68.415  0.00  0.00    +0.022 C 
ATOM      7  C   UNL     1      -6.978  19.468  68.665  0.00  0.00    +0.005 C 
ATOM      8  C   UNL     1     -10.439  17.406  68.556  0.00  0.00    -0.030 C 
ATOM      9  C   UNL     1     -10.333  15.832  68.311  0.00  0.00    +0.025 C 
ATOM     10  C   UNL     1      -9.225  15.595  69.489  0.00  0.00    +0.005 C 
ATOM     11  C   UNL     1      -8.186  17.852  67.091  0.00  0.00    +0.012 C 
ATOM     12  C   UNL     1      -9.182  15.807  67.113  0.00  0.00    +0.048 C 
ENDROOT
BRANCH   1  13
ATOM     13  O   UNL     1     -10.150  16.158  64.877  0.00  0.00    -0.452 OA
BRANCH  13  14
ATOM     14  C   UNL     1     -11.266  15.317  64.667  0.00  0.00    +0.316 C 
ATOM     15  O   UNL     1     -12.247  15.777  63.986  0.00  0.00    -0.250 OA
BRANCH  14  16
ATOM     16  C   UNL     1     -11.414  13.849  64.829  0.00  0.00    +0.090 C 
ATOM     17  C   UNL     1     -10.230  13.099  65.330  0.00  0.00    +0.011 C 
ATOM     18  C   UNL     1     -12.504  13.620  65.887  0.00  0.00    +0.011 C 
BRANCH  16  20
ATOM     19  C   UNL     1     -12.312  12.425  63.350  0.00  0.00    +0.001 C 
ATOM     20  C   UNL     1     -12.081  13.150  63.685  0.00  0.00    +0.011 C 
ENDBRANCH  16  20
ENDBRANCH  14  16
ENDBRANCH  13  14
ENDBRANCH   1  13
BRANCH  11  21
ATOM     21  C   UNL     1      -7.406  18.931  66.204  0.00  0.00    +0.004 C 
BRANCH  21  22
ATOM     22  C   UNL     1      -6.318  18.207  65.377  0.00  0.00    +0.044 C 
BRANCH  22  23
ATOM     23  C   UNL     1      -5.292  19.524  65.461  0.00  0.00    +0.171 C 
ATOM     24  O   UNL     1      -4.379  19.023  64.319  0.00  0.00    -0.452 OA
ATOM     25  C   UNL     1      -3.596  20.042  63.756  0.00  0.00    +0.319 C 
ATOM     26  O   UNL     1      -2.711  19.723  62.888  0.00  0.00    -0.250 OA
ATOM     27  C   UNL     1      -4.484  21.223  63.452  0.00  0.00    +0.142 C 
ATOM     28  C   UNL     1      -5.819  20.333  63.056  0.00  0.00    +0.167 C 
ATOM     29  O   UNL     1      -6.601  21.577  62.676  0.00  0.00    -0.222 OA
ATOM     30  C   UNL     1      -6.381  20.388  64.587  0.00  0.00    +0.077 C 
ENDBRANCH  22  23
ENDBRANCH  21  22
ENDBRANCH  11  21
TORSDOF 7
ENDMDL
MODEL 7
REMARK VINA RESULT:      -6.9      2.372      5.717
REMARK  Name = 
REMARK  7 active torsions:
REMARK  status: ('A' for Active; 'I' for Inactive)
REMARK    1  A    between atoms: C_2  and  C_3
REMARK    2  A    between atoms: C_3  and  C_6
REMARK    3  A    between atoms: C_6  and  O_8
REMARK    4  A    between atoms: O_8  and  C_9
REMARK    5  A    between atoms: C_19  and  C_20
REMARK    6  A    between atoms: C_20  and  C_21
REMARK    7  A    between atoms: C_21  and  C_22
REMARK                            x       y       z     vdW  Elec       q    Type
REMARK                         _______ _______ _______ _____ _____    ______ ____
ROOT
ATOM      1  C   UNL     1     -10.225  13.406  67.082  0.00  0.00    +0.173 C 
ATOM      2  C   UNL     1      -9.651  14.786  67.893  0.00  0.00    +0.062 C 
ATOM      3  C   UNL     1      -9.044  15.050  66.434  0.00  0.00    -0.024 C 
ATOM      4  C   UNL     1      -8.157  16.189  66.779  0.00  0.00    -0.009 C 
ATOM      5  C   UNL     1      -8.742  17.073  67.635  0.00  0.00    -0.027 C 
ATOM      6  C   UNL     1     -10.102  17.035  66.768  0.00  0.00    +0.022 C 
ATOM      7  C   UNL     1     -10.737  18.405  67.339  0.00  0.00    +0.005 C 
ATOM      8  C   UNL     1      -9.809  15.000  65.393  0.00  0.00    -0.030 C 
ATOM      9  C   UNL     1     -10.988  13.943  65.186  0.00  0.00    +0.025 C 
ATOM     10  C   UNL     1     -12.029  15.037  64.561  0.00  0.00    +0.005 C 
ATOM     11  C   UNL     1     -10.917  15.881  67.720  0.00  0.00    +0.012 C 
ATOM     12  C   UNL     1     -11.695  14.008  66.688  0.00  0.00    +0.048 C 
ENDROOT
BRANCH   1  13
ATOM     13  O   UNL     1     -10.573  12.541  68.315  0.00  0.00    -0.452 OA
BRANCH  13  14
ATOM     14  C   UNL     1      -9.962  11.317  67.958  0.00  0.00    +0.316 C 
ATOM     15  O   UNL     1      -8.975  11.352  67.143  0.00  0.00    -0.250 OA
BRANCH  14  16
ATOM     16  C   UNL     1     -10.044   9.975  68.587  0.00  0.00    +0.090 C 
ATOM     17  C   UNL     1      -8.856   9.512  69.352  0.00  0.00    +0.011 C 
ATOM     18  C   UNL     1     -11.183  10.030  69.618  0.00  0.00    +0.011 C 
BRANCH  16  20
ATOM     19  C   UNL     1     -10.447   8.256  67.207  0.00  0.00    +0.001 C 
ATOM     20  C   UNL     1     -10.606   8.900  67.710  0.00  0.00    +0.011 C 
ENDBRANCH  16  20
ENDBRANCH  14  16
ENDBRANCH  13  14
ENDBRANCH   1  13
BRANCH  11  21
ATOM     21  C   UNL     1     -10.605  16.581  69.124  0.00  0.00    +0.004 C 
BRANCH  21  22
ATOM     22  C   UNL     1     -10.488  15.490  70.213  0.00  0.00    +0.044 C 
BRANCH  22  23
ATOM     23  C   UNL     1     -12.146  15.436  70.422  0.00  0.00    +0.171 C 
ATOM     24  O   UNL     1     -12.135  13.999  70.991  0.00  0.00    -0.452 OA
ATOM     25  C   UNL     1     -13.300  13.684  71.706  0.00  0.00    +0.319 C 
ATOM     26  O   UNL     1     -13.459  12.482  72.117  0.00  0.00    -0.250 OA
ATOM     27  C   UNL     1     -13.587  14.801  72.680  0.00  0.00    +0.142 C 
ATOM     28  C   UNL     1     -12.006  15.160  72.996  0.00  0.00    +0.167 C 
ATOM     29  O   UNL     1     -12.394  16.197  74.034  0.00  0.00    -0.222 OA
ATOM     30  C   UNL     1     -11.965  16.286  71.815  0.00  0.00    +0.077 C 
ENDBRANCH  22  23
ENDBRANCH  21  22
ENDBRANCH  11  21
TORSDOF 7
ENDMDL
MODEL 8
REMARK VINA RESULT:      -6.7      3.603      5.630
REMARK  Name = 
REMARK  7 active torsions:
REMARK  status: ('A' for Active; 'I' for Inactive)
REMARK    1  A    between atoms: C_2  and  C_3
REMARK    2  A    between atoms: C_3  and  C_6
REMARK    3  A    between atoms: C_6  and  O_8
REMARK    4  A    between atoms: O_8  and  C_9
REMARK    5  A    between atoms: C_19  and  C_20
REMARK    6  A    between atoms: C_20  and  C_21
REMARK    7  A    between atoms: C_21  and  C_22
REMARK                            x       y       z     vdW  Elec       q    Type
REMARK                         _______ _______ _______ _____ _____    ______ ____
ROOT
ATOM      1  C   UNL     1     -10.776  15.197  65.666  0.00  0.00    +0.173 C 
ATOM      2  C   UNL     1     -10.330  14.331  67.058  0.00  0.00    +0.062 C 
ATOM      3  C   UNL     1     -11.917  14.119  67.099  0.00  0.00    -0.024 C 
ATOM      4  C   UNL     1     -12.016  13.527  68.456  0.00  0.00    -0.009 C 
ATOM      5  C   UNL     1     -11.026  12.626  68.711  0.00  0.00    -0.027 C 
ATOM      6  C   UNL     1     -11.243  11.953  67.262  0.00  0.00    +0.022 C 
ATOM      7  C   UNL     1     -10.509  10.553  67.582  0.00  0.00    +0.005 C 
ATOM      8  C   UNL     1     -12.541  13.680  66.056  0.00  0.00    -0.030 C 
ATOM      9  C   UNL     1     -12.199  14.099  64.553  0.00  0.00    +0.025 C 
ATOM     10  C   UNL     1     -12.370  12.586  63.958  0.00  0.00    +0.005 C 
ATOM     11  C   UNL     1      -9.997  12.794  66.459  0.00  0.00    +0.012 C 
ATOM     12  C   UNL     1     -10.542  13.981  64.596  0.00  0.00    +0.048 C 
ENDROOT
BRANCH   1  13
ATOM     13  O   UNL     1      -9.481  16.019  65.478  0.00  0.00    -0.452 OA
BRANCH  13  14
ATOM     14  C   UNL     1      -9.985  17.334  65.596  0.00  0.00    +0.316 C 
ATOM     15  O   UNL     1     -11.016  17.647  64.904  0.00  0.00    -0.250 OA
BRANCH  14  16
ATOM     16  C   UNL     1      -9.732  18.379  66.619  0.00  0.00    +0.090 C 
ATOM     17  C   UNL     1      -8.356  18.942  66.687  0.00  0.00    +0.011 C 
ATOM     18  C   UNL     1     -10.632  19.576  66.272  0.00  0.00    +0.011 C 
BRANCH  16  20
ATOM     19  C   UNL     1     -10.200  17.667  68.691  0.00  0.00    +0.001 C 
ATOM     20  C   UNL     1     -10.289  18.083  67.976  0.00  0.00    +0.011 C 
ENDBRANCH  16  20
ENDBRANCH  14  16
ENDBRANCH  13  14
ENDBRANCH   1  13
BRANCH  11  21
ATOM     21  C   UNL     1      -8.878  12.520  67.569  0.00  0.00    +0.004 C 
BRANCH  21  22
ATOM     22  C   UNL     1      -7.793  13.616  67.468  0.00  0.00    +0.044 C 
BRANCH  22  23
ATOM     23  C   UNL     1      -6.569  12.482  67.376  0.00  0.00    +0.171 C 
ATOM     24  O   UNL     1      -5.441  13.526  67.539  0.00  0.00    -0.452 OA
ATOM     25  C   UNL     1      -4.222  12.959  67.940  0.00  0.00    +0.319 C 
ATOM     26  O   UNL     1      -3.186  13.709  67.986  0.00  0.00    -0.250 OA
ATOM     27  C   UNL     1      -4.478  12.042  69.111  0.00  0.00    +0.142 C 
ATOM     28  C   UNL     1      -5.694  12.946  69.771  0.00  0.00    +0.167 C 
ATOM     29  O   UNL     1      -5.807  12.018  70.966  0.00  0.00    -0.222 OA
ATOM     30  C   UNL     1      -6.835  12.113  68.953  0.00  0.00    +0.077 C 
ENDBRANCH  22  23
ENDBRANCH  21  22
ENDBRANCH  11  21
TORSDOF 7
ENDMDL
MODEL 9
REMARK VINA RESULT:      -6.6      3.134      6.621
REMARK  Name = 
REMARK  7 active torsions:
REMARK  status: ('A' for Active; 'I' for Inactive)
REMARK    1  A    between atoms: C_2  and  C_3
REMARK    2  A    between atoms: C_3  and  C_6
REMARK    3  A    between atoms: C_6  and  O_8
REMARK    4  A    between atoms: O_8  and  C_9
REMARK    5  A    between atoms: C_19  and  C_20
REMARK    6  A    between atoms: C_20  and  C_21
REMARK    7  A    between atoms: C_21  and  C_22
REMARK                            x       y       z     vdW  Elec       q    Type
REMARK                         _______ _______ _______ _____ _____    ______ ____
ROOT
ATOM      1  C   UNL     1      -9.938  11.115  68.380  0.00  0.00    +0.173 C 
ATOM      2  C   UNL     1      -9.777  12.806  68.437  0.00  0.00    +0.062 C 
ATOM      3  C   UNL     1      -8.628  12.455  67.377  0.00  0.00    -0.024 C 
ATOM      4  C   UNL     1      -7.984  13.791  67.314  0.00  0.00    -0.009 C 
ATOM      5  C   UNL     1      -8.887  14.811  67.289  0.00  0.00    -0.027 C 
ATOM      6  C   UNL     1      -9.768  14.024  66.190  0.00  0.00    +0.022 C 
ATOM      7  C   UNL     1     -10.609  15.297  65.665  0.00  0.00    +0.005 C 
ATOM      8  C   UNL     1      -8.894  11.715  66.351  0.00  0.00    -0.030 C 
ATOM      9  C   UNL     1      -9.862  10.445  66.377  0.00  0.00    +0.025 C 
ATOM     10  C   UNL     1     -10.575  10.801  64.950  0.00  0.00    +0.005 C 
ATOM     11  C   UNL     1     -10.880  13.331  67.280  0.00  0.00    +0.012 C 
ATOM     12  C   UNL     1     -11.127  11.070  67.255  0.00  0.00    +0.048 C 
ENDROOT
BRANCH   1  13
ATOM     13  O   UNL     1     -10.746  10.916  69.683  0.00  0.00    -0.452 OA
BRANCH  13  14
ATOM     14  C   UNL     1     -10.253   9.661  70.107  0.00  0.00    +0.316 C 
ATOM     15  O   UNL     1      -9.001   9.429  69.973  0.00  0.00    -0.250 OA
BRANCH  14  16
ATOM     16  C   UNL     1     -10.862   8.629  70.983  0.00  0.00    +0.090 C 
ATOM     17  C   UNL     1     -10.177   8.343  72.272  0.00  0.00    +0.011 C 
ATOM     18  C   UNL     1     -12.256   9.140  71.380  0.00  0.00    +0.011 C 
BRANCH  16  20
ATOM     19  C   UNL     1     -11.529   6.583  70.355  0.00  0.00    +0.001 C 
ATOM     20  C   UNL     1     -11.290   7.377  70.281  0.00  0.00    +0.011 C 
ENDBRANCH  16  20
ENDBRANCH  14  16
ENDBRANCH  13  14
ENDBRANCH   1  13
BRANCH  11  21
ATOM     21  C   UNL     1     -11.189  14.684  68.076  0.00  0.00    +0.004 C 
BRANCH  21  22
ATOM     22  C   UNL     1     -10.990  14.432  69.588  0.00  0.00    +0.044 C 
BRANCH  22  23
ATOM     23  C   UNL     1     -12.521  15.000  69.946  0.00  0.00    +0.171 C 
ATOM     24  O   UNL     1     -12.832  13.853  70.935  0.00  0.00    -0.452 OA
ATOM     25  C   UNL     1     -13.886  14.155  71.810  0.00  0.00    +0.319 C 
ATOM     26  O   UNL     1     -14.315  13.235  72.589  0.00  0.00    -0.250 OA
ATOM     27  C   UNL     1     -13.644  15.521  72.404  0.00  0.00    +0.142 C 
ATOM     28  C   UNL     1     -11.998  15.395  72.454  0.00  0.00    +0.167 C 
ATOM     29  O   UNL     1     -11.863  16.740  73.144  0.00  0.00    -0.222 OA
ATOM     30  C   UNL     1     -11.843  16.080  70.981  0.00  0.00    +0.077 C 
ENDBRANCH  22  23
ENDBRANCH  21  22
ENDBRANCH  11  21
TORSDOF 7
ENDMDL
