MODEL 1
REMARK VINA RESULT:      -2.7      0.000      0.000
REMARK  Name = 
REMARK  0 active torsions:
REMARK  status: ('A' for Active; 'I' for Inactive)
REMARK                            x       y       z     vdW  Elec       q    Type
REMARK                         _______ _______ _______ _____ _____    ______ ____
ROOT
ATOM      1  C   UNL     1     -12.552  15.352  73.942  0.00  0.00    +0.035 C 
ATOM      2  C   UNL     1     -13.223  15.177  72.590  0.00  0.00    +0.152 C 
ATOM      3  O   UNL     1     -14.326  16.018  72.570  0.00  0.00    -0.223 OA
ATOM      4  C   UNL     1     -13.609  13.730  72.409  0.00  0.00    +0.035 C 
ENDROOT
TORSDOF 0
ENDMDL
MODEL 2
REMARK VINA RESULT:      -2.7      0.957      1.824
REMARK  Name = 
REMARK  0 active torsions:
REMARK  status: ('A' for Active; 'I' for Inactive)
REMARK                            x       y       z     vdW  Elec       q    Type
REMARK                         _______ _______ _______ _____ _____    ______ ____
ROOT
ATOM      1  C   UNL     1     -12.038  15.952  71.871  0.00  0.00    +0.035 C 
ATOM      2  C   UNL     1     -13.034  15.392  72.873  0.00  0.00    +0.152 C 
ATOM      3  O   UNL     1     -14.240  16.042  72.657  0.00  0.00    -0.223 OA
ATOM      4  C   UNL     1     -12.513  15.613  74.271  0.00  0.00    +0.035 C 
ENDROOT
TORSDOF 0
ENDMDL
MODEL 3
REMARK VINA RESULT:      -2.5      1.641      1.747
REMARK  Name = 
REMARK  0 active torsions:
REMARK  status: ('A' for Active; 'I' for Inactive)
REMARK                            x       y       z     vdW  Elec       q    Type
REMARK                         _______ _______ _______ _____ _____    ______ ____
ROOT
ATOM      1  C   UNL     1     -12.048  16.019  72.220  0.00  0.00    +0.035 C 
ATOM      2  C   UNL     1     -13.005  15.325  73.174  0.00  0.00    +0.152 C 
ATOM      3  O   UNL     1     -12.328  15.142  74.370  0.00  0.00    -0.223 OA
ATOM      4  C   UNL     1     -13.451  14.017  72.569  0.00  0.00    +0.035 C 
ENDROOT
TORSDOF 0
ENDMDL
MODEL 4
REMARK VINA RESULT:      -2.4      8.315      8.741
REMARK  Name = 
REMARK  0 active torsions:
REMARK  status: ('A' for Active; 'I' for Inactive)
REMARK                            x       y       z     vdW  Elec       q    Type
REMARK                         _______ _______ _______ _____ _____    ______ ____
ROOT
ATOM      1  C   UNL     1     -12.386  13.367  65.752  0.00  0.00    +0.035 C 
ATOM      2  C   UNL     1     -11.921  13.708  64.347  0.00  0.00    +0.152 C 
ATOM      3  O   UNL     1     -12.639  14.821  63.938  0.00  0.00    -0.223 OA
ATOM      4  C   UNL     1     -12.150  12.521  63.444  0.00  0.00    +0.035 C 
ENDROOT
TORSDOF 0
ENDMDL
MODEL 5
REMARK VINA RESULT:      -2.4      8.009      8.251
REMARK  Name = 
REMARK  0 active torsions:
REMARK  status: ('A' for Active; 'I' for Inactive)
REMARK                            x       y       z     vdW  Elec       q    Type
REMARK                         _______ _______ _______ _____ _____    ______ ____
ROOT
ATOM      1  C   UNL     1     -10.597  15.839  66.210  0.00  0.00    +0.035 C 
ATOM      2  C   UNL     1     -10.968  15.600  64.757  0.00  0.00    +0.152 C 
ATOM      3  O   UNL     1     -11.344  16.824  64.225  0.00  0.00    -0.223 OA
ATOM      4  C   UNL     1     -12.081  14.584  64.687  0.00  0.00    +0.035 C 
ENDROOT
TORSDOF 0
ENDMDL
MODEL 6
REMARK VINA RESULT:      -2.3      7.966      8.458
REMARK  Name = 
REMARK  0 active torsions:
REMARK  status: ('A' for Active; 'I' for Inactive)
REMARK                            x       y       z     vdW  Elec       q    Type
REMARK                         _______ _______ _______ _____ _____    ______ ____
ROOT
ATOM      1  C   UNL     1     -11.706  12.266  65.939  0.00  0.00    +0.035 C 
ATOM      2  C   UNL     1     -12.083  13.106  64.732  0.00  0.00    +0.152 C 
ATOM      3  O   UNL     1     -13.210  13.836  65.078  0.00  0.00    -0.223 OA
ATOM      4  C   UNL     1     -12.334  12.200  63.552  0.00  0.00    +0.035 C 
ENDROOT
TORSDOF 0
ENDMDL
MODEL 7
REMARK VINA RESULT:      -2.3      8.404      8.929
REMARK  Name = 
REMARK  0 active torsions:
REMARK  status: ('A' for Active; 'I' for Inactive)
REMARK                            x       y       z     vdW  Elec       q    Type
REMARK                         _______ _______ _______ _____ _____    ______ ____
ROOT
ATOM      1  C   UNL     1     -12.384  12.116  63.484  0.00  0.00    +0.035 C 
ATOM      2  C   UNL     1     -12.076  12.817  64.796  0.00  0.00    +0.152 C 
ATOM      3  O   UNL     1     -13.123  13.689  65.049  0.00  0.00    -0.223 OA
ATOM      4  C   UNL     1     -10.755  13.536  64.679  0.00  0.00    +0.035 C 
ENDROOT
TORSDOF 0
ENDMDL
MODEL 8
REMARK VINA RESULT:      -2.2      7.552      8.003
REMARK  Name = 
REMARK  0 active torsions:
REMARK  status: ('A' for Active; 'I' for Inactive)
REMARK                            x       y       z     vdW  Elec       q    Type
REMARK                         _______ _______ _______ _____ _____    ______ ____
ROOT
ATOM      1  C   UNL     1     -11.771  12.823  66.485  0.00  0.00    +0.035 C 
ATOM      2  C   UNL     1     -12.666  13.504  65.464  0.00  0.00    +0.152 C 
ATOM      3  O   UNL     1     -13.193  12.509  64.655  0.00  0.00    -0.223 OA
ATOM      4  C   UNL     1     -11.854  14.504  64.678  0.00  0.00    +0.035 C 
ENDROOT
TORSDOF 0
ENDMDL
MODEL 9
REMARK VINA RESULT:      -2.1      1.845      2.314
REMARK  Name = 
REMARK  0 active torsions:
REMARK  status: ('A' for Active; 'I' for Inactive)
REMARK                            x       y       z     vdW  Elec       q    Type
REMARK                         _______ _______ _______ _____ _____    ______ ____
ROOT
ATOM      1  C   UNL     1     -14.085  15.368  72.121  0.00  0.00    +0.035 C 
ATOM      2  C   UNL     1     -12.588  15.395  71.864  0.00  0.00    +0.152 C 
ATOM      3  O   UNL     1     -12.050  16.372  72.688  0.00  0.00    -0.223 OA
ATOM      4  C   UNL     1     -12.339  15.684  70.404  0.00  0.00    +0.035 C 
ENDROOT
TORSDOF 0
ENDMDL
