MODEL 1
REMARK VINA RESULT:      -6.0      0.000      0.000
REMARK  Name = 
REMARK  11 active torsions:
REMARK  status: ('A' for Active; 'I' for Inactive)
REMARK    1  A    between atoms: C_2  and  N_4
REMARK    2  A    between atoms: N_4  and  C_5
REMARK    3  A    between atoms: C_5  and  C_6
REMARK    4  A    between atoms: C_6  and  C_8
REMARK    5  A    between atoms: C_8  and  O_9
REMARK    6  A    between atoms: O_9  and  C_10
REMARK    7  A    between atoms: C_13  and  C_14
REMARK    8  A    between atoms: C_14  and  C_15
REMARK    9  A    between atoms: C_15  and  O_16
REMARK   10  A    between atoms: O_16  and  C_17
REMARK   11  A    between atoms: C_17  and  C_18
REMARK                            x       y       z     vdW  Elec       q    Type
REMARK                         _______ _______ _______ _____ _____    ______ ____
ROOT
ATOM      1  C   UNL     1     -11.686  12.988  67.226  0.00  0.00    +0.139 A 
ATOM      2  C   UNL     1     -11.643  11.655  67.620  0.00  0.00    +0.037 A 
ATOM      3  C   UNL     1     -11.573  11.305  68.963  0.00  0.00    -0.001 A 
ATOM      4  C   UNL     1     -12.006  12.208  69.929  0.00  0.00    -0.019 A 
ATOM      5  C   UNL     1     -12.097  13.529  69.528  0.00  0.00    -0.001 A 
ATOM      6  C   UNL     1     -11.843  13.931  68.226  0.00  0.00    +0.037 A 
ENDROOT
BRANCH   1   7
ATOM      7  O   UNL     1     -11.301  13.335  65.928  0.00  0.00    -0.473 OA
BRANCH   7   8
ATOM      8  C   UNL     1     -11.860  14.480  65.366  0.00  0.00    +0.240 C 
BRANCH   8   9
ATOM      9  C   UNL     1     -10.617  15.350  64.714  0.00  0.00    +0.213 C 
ATOM     10  O   UNL     1     -11.577  16.377  64.129  0.00  0.00    -0.218 OA
BRANCH   9  11
ATOM     11  C   UNL     1     -10.362  16.277  66.060  0.00  0.00    +0.125 C 
BRANCH  11  12
ATOM     12  N   UNL     1     -10.488  17.603  65.470  0.00  0.00    -0.217 NA
BRANCH  12  14
ATOM     13  C   UNL     1     -10.338  19.925  66.038  0.00  0.00    +0.019 C 
ATOM     14  C   UNL     1     -10.355  18.659  66.406  0.00  0.00    +0.073 C 
ATOM     15  C   UNL     1     -10.173  18.262  67.826  0.00  0.00    +0.019 C 
ENDBRANCH  12  14
ENDBRANCH  11  12
ENDBRANCH   9  11
ENDBRANCH   8   9
ENDBRANCH   7   8
ENDBRANCH   1   7
BRANCH   4  16
ATOM     16  C   UNL     1     -12.836  11.644  71.016  0.00  0.00    +0.058 C 
BRANCH  16  17
ATOM     17  C   UNL     1     -13.050  12.437  72.196  0.00  0.00    +0.147 C 
BRANCH  17  18
ATOM     18  O   UNL     1     -14.254  13.017  72.442  0.00  0.00    -0.353 OA
BRANCH  18  19
ATOM     19  C   UNL     1     -14.046  14.395  72.353  0.00  0.00    +0.142 C 
BRANCH  19  20
ATOM     20  C   UNL     1     -12.727  14.768  73.006  0.00  0.00    +0.030 C 
ATOM     21  C   UNL     1     -12.805  16.122  73.706  0.00  0.00    +0.003 C 
ATOM     22  C   UNL     1     -12.029  15.995  72.412  0.00  0.00    +0.003 C 
ENDBRANCH  19  20
ENDBRANCH  18  19
ENDBRANCH  17  18
ENDBRANCH  16  17
ENDBRANCH   4  16
TORSDOF 11
ENDMDL
MODEL 2
REMARK VINA RESULT:      -5.6      3.740      6.311
REMARK  Name = 
REMARK  11 active torsions:
REMARK  status: ('A' for Active; 'I' for Inactive)
REMARK    1  A    between atoms: C_2  and  N_4
REMARK    2  A    between atoms: N_4  and  C_5
REMARK    3  A    between atoms: C_5  and  C_6
REMARK    4  A    between atoms: C_6  and  C_8
REMARK    5  A    between atoms: C_8  and  O_9
REMARK    6  A    between atoms: O_9  and  C_10
REMARK    7  A    between atoms: C_13  and  C_14
REMARK    8  A    between atoms: C_14  and  C_15
REMARK    9  A    between atoms: C_15  and  O_16
REMARK   10  A    between atoms: O_16  and  C_17
REMARK   11  A    between atoms: C_17  and  C_18
REMARK                            x       y       z     vdW  Elec       q    Type
REMARK                         _______ _______ _______ _____ _____    ______ ____
ROOT
ATOM      1  C   UNL     1     -11.825  11.904  69.908  0.00  0.00    +0.139 A 
ATOM      2  C   UNL     1     -11.308  10.624  69.740  0.00  0.00    +0.037 A 
ATOM      3  C   UNL     1     -11.480   9.647  70.712  0.00  0.00    -0.001 A 
ATOM      4  C   UNL     1     -12.528   9.761  71.619  0.00  0.00    -0.019 A 
ATOM      5  C   UNL     1     -13.079  11.022  71.756  0.00  0.00    -0.001 A 
ATOM      6  C   UNL     1     -12.668  12.101  70.988  0.00  0.00    +0.037 A 
ENDROOT
BRANCH   1   7
ATOM      7  O   UNL     1     -11.279  12.968  69.185  0.00  0.00    -0.473 OA
BRANCH   7   8
ATOM      8  C   UNL     1     -11.991  14.164  69.147  0.00  0.00    +0.240 C 
BRANCH   8   9
ATOM      9  C   UNL     1     -10.908  15.376  69.435  0.00  0.00    +0.213 C 
ATOM     10  O   UNL     1     -11.874  16.431  68.914  0.00  0.00    -0.218 OA
BRANCH   9  11
ATOM     11  C   UNL     1     -11.385  15.634  70.997  0.00  0.00    +0.125 C 
BRANCH  11  12
ATOM     12  N   UNL     1     -12.805  15.880  70.782  0.00  0.00    -0.217 NA
BRANCH  12  14
ATOM     13  C   UNL     1     -13.192  15.683  73.137  0.00  0.00    +0.019 C 
ATOM     14  C   UNL     1     -13.617  15.551  71.896  0.00  0.00    +0.073 C 
ATOM     15  C   UNL     1     -14.958  14.988  71.591  0.00  0.00    +0.019 C 
ENDBRANCH  12  14
ENDBRANCH  11  12
ENDBRANCH   9  11
ENDBRANCH   8   9
ENDBRANCH   7   8
ENDBRANCH   1   7
BRANCH   4  16
ATOM     16  C   UNL     1     -13.294   8.522  71.883  0.00  0.00    +0.058 C 
BRANCH  16  17
ATOM     17  C   UNL     1     -12.854   7.301  71.267  0.00  0.00    +0.147 C 
BRANCH  17  18
ATOM     18  O   UNL     1     -12.350   6.282  72.012  0.00  0.00    -0.353 OA
BRANCH  18  19
ATOM     19  C   UNL     1     -11.028   6.113  71.596  0.00  0.00    +0.142 C 
BRANCH  19  20
ATOM     20  C   UNL     1     -10.967   5.992  70.084  0.00  0.00    +0.030 C 
ATOM     21  C   UNL     1     -10.097   4.817  69.644  0.00  0.00    +0.003 C 
ATOM     22  C   UNL     1      -9.588   6.232  69.464  0.00  0.00    +0.003 C 
ENDBRANCH  19  20
ENDBRANCH  18  19
ENDBRANCH  17  18
ENDBRANCH  16  17
ENDBRANCH   4  16
TORSDOF 11
ENDMDL
MODEL 3
REMARK VINA RESULT:      -5.5      3.032      6.699
REMARK  Name = 
REMARK  11 active torsions:
REMARK  status: ('A' for Active; 'I' for Inactive)
REMARK    1  A    between atoms: C_2  and  N_4
REMARK    2  A    between atoms: N_4  and  C_5
REMARK    3  A    between atoms: C_5  and  C_6
REMARK    4  A    between atoms: C_6  and  C_8
REMARK    5  A    between atoms: C_8  and  O_9
REMARK    6  A    between atoms: O_9  and  C_10
REMARK    7  A    between atoms: C_13  and  C_14
REMARK    8  A    between atoms: C_14  and  C_15
REMARK    9  A    between atoms: C_15  and  O_16
REMARK   10  A    between atoms: O_16  and  C_17
REMARK   11  A    between atoms: C_17  and  C_18
REMARK                            x       y       z     vdW  Elec       q    Type
REMARK                         _______ _______ _______ _____ _____    ______ ____
ROOT
ATOM      1  C   UNL     1     -10.894  14.666  66.735  0.00  0.00    +0.139 A 
ATOM      2  C   UNL     1     -12.084  13.951  66.652  0.00  0.00    +0.037 A 
ATOM      3  C   UNL     1     -12.523  13.425  65.443  0.00  0.00    -0.001 A 
ATOM      4  C   UNL     1     -11.604  13.190  64.426  0.00  0.00    -0.019 A 
ATOM      5  C   UNL     1     -10.399  13.862  64.528  0.00  0.00    -0.001 A 
ATOM      6  C   UNL     1     -10.085  14.667  65.613  0.00  0.00    +0.037 A 
ENDROOT
BRANCH   1   7
ATOM      7  O   UNL     1     -10.696  15.552  67.798  0.00  0.00    -0.473 OA
BRANCH   7   8
ATOM      8  C   UNL     1     -10.159  15.045  68.979  0.00  0.00    +0.240 C 
BRANCH   8   9
ATOM      9  C   UNL     1     -10.869  15.869  70.221  0.00  0.00    +0.213 C 
ATOM     10  O   UNL     1     -11.911  16.474  69.290  0.00  0.00    -0.218 OA
BRANCH   9  11
ATOM     11  C   UNL     1     -11.890  14.641  70.651  0.00  0.00    +0.125 C 
BRANCH  11  12
ATOM     12  N   UNL     1     -13.005  15.421  71.171  0.00  0.00    -0.217 NA
BRANCH  12  14
ATOM     13  C   UNL     1     -13.853  13.515  72.348  0.00  0.00    +0.019 C 
ATOM     14  C   UNL     1     -14.067  14.630  71.679  0.00  0.00    +0.073 C 
ATOM     15  C   UNL     1     -15.443  15.094  71.362  0.00  0.00    +0.019 C 
ENDBRANCH  12  14
ENDBRANCH  11  12
ENDBRANCH   9  11
ENDBRANCH   8   9
ENDBRANCH   7   8
ENDBRANCH   1   7
BRANCH   4  16
ATOM     16  C   UNL     1     -11.741  11.900  63.714  0.00  0.00    +0.058 C 
BRANCH  16  17
ATOM     17  C   UNL     1     -10.551  11.147  63.427  0.00  0.00    +0.147 C 
BRANCH  17  18
ATOM     18  O   UNL     1     -10.171  10.109  64.218  0.00  0.00    -0.353 OA
BRANCH  18  19
ATOM     19  C   UNL     1      -9.107  10.578  64.990  0.00  0.00    +0.142 C 
BRANCH  19  20
ATOM     20  C   UNL     1      -9.280  10.148  66.436  0.00  0.00    +0.030 C 
ATOM     21  C   UNL     1     -10.642  10.559  66.990  0.00  0.00    +0.003 C 
ATOM     22  C   UNL     1      -9.398  11.291  67.448  0.00  0.00    +0.003 C 
ENDBRANCH  19  20
ENDBRANCH  18  19
ENDBRANCH  17  18
ENDBRANCH  16  17
ENDBRANCH   4  16
TORSDOF 11
ENDMDL
MODEL 4
REMARK VINA RESULT:      -5.4      2.344      3.825
REMARK  Name = 
REMARK  11 active torsions:
REMARK  status: ('A' for Active; 'I' for Inactive)
REMARK    1  A    between atoms: C_2  and  N_4
REMARK    2  A    between atoms: N_4  and  C_5
REMARK    3  A    between atoms: C_5  and  C_6
REMARK    4  A    between atoms: C_6  and  C_8
REMARK    5  A    between atoms: C_8  and  O_9
REMARK    6  A    between atoms: O_9  and  C_10
REMARK    7  A    between atoms: C_13  and  C_14
REMARK    8  A    between atoms: C_14  and  C_15
REMARK    9  A    between atoms: C_15  and  O_16
REMARK   10  A    between atoms: O_16  and  C_17
REMARK   11  A    between atoms: C_17  and  C_18
REMARK                            x       y       z     vdW  Elec       q    Type
REMARK                         _______ _______ _______ _____ _____    ______ ____
ROOT
ATOM      1  C   UNL     1     -11.686  12.654  66.808  0.00  0.00    +0.139 A 
ATOM      2  C   UNL     1     -11.224  11.346  66.893  0.00  0.00    +0.037 A 
ATOM      3  C   UNL     1     -10.763  10.823  68.095  0.00  0.00    -0.001 A 
ATOM      4  C   UNL     1     -11.174  11.398  69.293  0.00  0.00    -0.019 A 
ATOM      5  C   UNL     1     -11.680  12.683  69.209  0.00  0.00    -0.001 A 
ATOM      6  C   UNL     1     -11.840  13.342  67.999  0.00  0.00    +0.037 A 
ENDROOT
BRANCH   1   7
ATOM      7  O   UNL     1     -11.708  13.298  65.568  0.00  0.00    -0.473 OA
BRANCH   7   8
ATOM      8  C   UNL     1     -11.944  14.670  65.550  0.00  0.00    +0.240 C 
BRANCH   8   9
ATOM      9  C   UNL     1     -10.569  15.385  64.978  0.00  0.00    +0.213 C 
ATOM     10  O   UNL     1     -11.369  16.461  64.256  0.00  0.00    -0.218 OA
BRANCH   9  11
ATOM     11  C   UNL     1     -10.347  16.358  66.296  0.00  0.00    +0.125 C 
BRANCH  11  12
ATOM     12  N   UNL     1     -10.353  17.661  65.642  0.00  0.00    -0.217 NA
BRANCH  12  14
ATOM     13  C   UNL     1      -8.425  18.887  66.359  0.00  0.00    +0.019 C 
ATOM     14  C   UNL     1      -9.727  18.682  66.398  0.00  0.00    +0.073 C 
ATOM     15  C   UNL     1     -10.610  19.477  67.291  0.00  0.00    +0.019 C 
ENDBRANCH  12  14
ENDBRANCH  11  12
ENDBRANCH   9  11
ENDBRANCH   8   9
ENDBRANCH   7   8
ENDBRANCH   1   7
BRANCH   4  16
ATOM     16  C   UNL     1     -11.566  10.454  70.364  0.00  0.00    +0.058 C 
BRANCH  16  17
ATOM     17  C   UNL     1     -12.886  10.560  70.921  0.00  0.00    +0.147 C 
BRANCH  17  18
ATOM     18  O   UNL     1     -13.438   9.532  71.617  0.00  0.00    -0.353 OA
BRANCH  18  19
ATOM     19  C   UNL     1     -12.383   8.687  71.963  0.00  0.00    +0.142 C 
BRANCH  19  20
ATOM     20  C   UNL     1     -12.705   7.257  71.564  0.00  0.00    +0.030 C 
ATOM     21  C   UNL     1     -11.573   6.299  71.926  0.00  0.00    +0.003 C 
ATOM     22  C   UNL     1     -11.806   6.665  70.474  0.00  0.00    +0.003 C 
ENDBRANCH  19  20
ENDBRANCH  18  19
ENDBRANCH  17  18
ENDBRANCH  16  17
ENDBRANCH   4  16
TORSDOF 11
ENDMDL
MODEL 5
REMARK VINA RESULT:      -5.3      3.403      5.848
REMARK  Name = 
REMARK  11 active torsions:
REMARK  status: ('A' for Active; 'I' for Inactive)
REMARK    1  A    between atoms: C_2  and  N_4
REMARK    2  A    between atoms: N_4  and  C_5
REMARK    3  A    between atoms: C_5  and  C_6
REMARK    4  A    between atoms: C_6  and  C_8
REMARK    5  A    between atoms: C_8  and  O_9
REMARK    6  A    between atoms: O_9  and  C_10
REMARK    7  A    between atoms: C_13  and  C_14
REMARK    8  A    between atoms: C_14  and  C_15
REMARK    9  A    between atoms: C_15  and  O_16
REMARK   10  A    between atoms: O_16  and  C_17
REMARK   11  A    between atoms: C_17  and  C_18
REMARK                            x       y       z     vdW  Elec       q    Type
REMARK                         _______ _______ _______ _____ _____    ______ ____
ROOT
ATOM      1  C   UNL     1     -11.764  12.496  68.900  0.00  0.00    +0.139 A 
ATOM      2  C   UNL     1     -11.809  11.852  70.131  0.00  0.00    +0.037 A 
ATOM      3  C   UNL     1     -11.731  10.468  70.221  0.00  0.00    -0.001 A 
ATOM      4  C   UNL     1     -11.151   9.746  69.183  0.00  0.00    -0.019 A 
ATOM      5  C   UNL     1     -11.059  10.399  67.966  0.00  0.00    -0.001 A 
ATOM      6  C   UNL     1     -11.452  11.718  67.798  0.00  0.00    +0.037 A 
ENDROOT
BRANCH   1   7
ATOM      7  O   UNL     1     -12.288  13.785  68.777  0.00  0.00    -0.473 OA
BRANCH   7   8
ATOM      8  C   UNL     1     -11.396  14.835  68.574  0.00  0.00    +0.240 C 
BRANCH   8   9
ATOM      9  C   UNL     1     -10.930  15.364  70.067  0.00  0.00    +0.213 C 
ATOM     10  O   UNL     1     -10.756  16.790  69.563  0.00  0.00    -0.218 OA
BRANCH   9  11
ATOM     11  C   UNL     1     -12.464  15.682  70.598  0.00  0.00    +0.125 C 
BRANCH  11  12
ATOM     12  N   UNL     1     -12.171  16.076  71.970  0.00  0.00    -0.217 NA
BRANCH  12  14
ATOM     13  C   UNL     1     -13.403  14.126  72.614  0.00  0.00    +0.019 C 
ATOM     14  C   UNL     1     -12.695  15.188  72.943  0.00  0.00    +0.073 C 
ATOM     15  C   UNL     1     -12.455  15.552  74.363  0.00  0.00    +0.019 C 
ENDBRANCH  12  14
ENDBRANCH  11  12
ENDBRANCH   9  11
ENDBRANCH   8   9
ENDBRANCH   7   8
ENDBRANCH   1   7
BRANCH   4  16
ATOM     16  C   UNL     1     -10.219   8.669  69.584  0.00  0.00    +0.058 C 
BRANCH  16  17
ATOM     17  C   UNL     1     -10.649   7.727  70.580  0.00  0.00    +0.147 C 
BRANCH  17  18
ATOM     18  O   UNL     1     -11.683   6.878  70.341  0.00  0.00    -0.353 OA
BRANCH  18  19
ATOM     19  C   UNL     1     -12.510   6.948  71.463  0.00  0.00    +0.142 C 
BRANCH  19  20
ATOM     20  C   UNL     1     -13.847   7.562  71.090  0.00  0.00    +0.030 C 
ATOM     21  C   UNL     1     -14.335   8.545  72.151  0.00  0.00    +0.003 C 
ATOM     22  C   UNL     1     -15.014   7.198  72.013  0.00  0.00    +0.003 C 
ENDBRANCH  19  20
ENDBRANCH  18  19
ENDBRANCH  17  18
ENDBRANCH  16  17
ENDBRANCH   4  16
TORSDOF 11
ENDMDL
MODEL 6
REMARK VINA RESULT:      -5.3      4.190      6.363
REMARK  Name = 
REMARK  11 active torsions:
REMARK  status: ('A' for Active; 'I' for Inactive)
REMARK    1  A    between atoms: C_2  and  N_4
REMARK    2  A    between atoms: N_4  and  C_5
REMARK    3  A    between atoms: C_5  and  C_6
REMARK    4  A    between atoms: C_6  and  C_8
REMARK    5  A    between atoms: C_8  and  O_9
REMARK    6  A    between atoms: O_9  and  C_10
REMARK    7  A    between atoms: C_13  and  C_14
REMARK    8  A    between atoms: C_14  and  C_15
REMARK    9  A    between atoms: C_15  and  O_16
REMARK   10  A    between atoms: O_16  and  C_17
REMARK   11  A    between atoms: C_17  and  C_18
REMARK                            x       y       z     vdW  Elec       q    Type
REMARK                         _______ _______ _______ _____ _____    ______ ____
ROOT
ATOM      1  C   UNL     1     -11.714  11.964  69.688  0.00  0.00    +0.139 A 
ATOM      2  C   UNL     1     -11.100  10.727  69.527  0.00  0.00    +0.037 A 
ATOM      3  C   UNL     1     -11.177   9.753  70.513  0.00  0.00    -0.001 A 
ATOM      4  C   UNL     1     -12.216   9.795  71.437  0.00  0.00    -0.019 A 
ATOM      5  C   UNL     1     -12.863  11.011  71.568  0.00  0.00    -0.001 A 
ATOM      6  C   UNL     1     -12.552  12.108  70.780  0.00  0.00    +0.037 A 
ENDROOT
BRANCH   1   7
ATOM      7  O   UNL     1     -11.267  13.058  68.942  0.00  0.00    -0.473 OA
BRANCH   7   8
ATOM      8  C   UNL     1     -11.971  14.255  69.053  0.00  0.00    +0.240 C 
BRANCH   8   9
ATOM      9  C   UNL     1     -10.873  15.422  69.450  0.00  0.00    +0.213 C 
ATOM     10  O   UNL     1     -11.798  16.528  68.961  0.00  0.00    -0.218 OA
BRANCH   9  11
ATOM     11  C   UNL     1     -11.400  15.598  71.008  0.00  0.00    +0.125 C 
BRANCH  11  12
ATOM     12  N   UNL     1     -12.817  15.830  70.762  0.00  0.00    -0.217 NA
BRANCH  12  14
ATOM     13  C   UNL     1     -13.231  15.639  73.113  0.00  0.00    +0.019 C 
ATOM     14  C   UNL     1     -13.647  15.518  71.868  0.00  0.00    +0.073 C 
ATOM     15  C   UNL     1     -14.998  14.987  71.550  0.00  0.00    +0.019 C 
ENDBRANCH  12  14
ENDBRANCH  11  12
ENDBRANCH   9  11
ENDBRANCH   8   9
ENDBRANCH   7   8
ENDBRANCH   1   7
BRANCH   4  16
ATOM     16  C   UNL     1     -12.876   8.504  71.730  0.00  0.00    +0.058 C 
BRANCH  16  17
ATOM     17  C   UNL     1     -12.301   7.303  71.190  0.00  0.00    +0.147 C 
BRANCH  17  18
ATOM     18  O   UNL     1     -12.111   6.204  71.968  0.00  0.00    -0.353 OA
BRANCH  18  19
ATOM     19  C   UNL     1     -11.070   6.522  72.841  0.00  0.00    +0.142 C 
BRANCH  19  20
ATOM     20  C   UNL     1     -10.246   5.283  73.146  0.00  0.00    +0.030 C 
ATOM     21  C   UNL     1     -11.128   4.090  73.503  0.00  0.00    +0.003 C 
ATOM     22  C   UNL     1     -10.331   4.781  74.590  0.00  0.00    +0.003 C 
ENDBRANCH  19  20
ENDBRANCH  18  19
ENDBRANCH  17  18
ENDBRANCH  16  17
ENDBRANCH   4  16
TORSDOF 11
ENDMDL
MODEL 7
REMARK VINA RESULT:      -5.3      3.674      6.529
REMARK  Name = 
REMARK  11 active torsions:
REMARK  status: ('A' for Active; 'I' for Inactive)
REMARK    1  A    between atoms: C_2  and  N_4
REMARK    2  A    between atoms: N_4  and  C_5
REMARK    3  A    between atoms: C_5  and  C_6
REMARK    4  A    between atoms: C_6  and  C_8
REMARK    5  A    between atoms: C_8  and  O_9
REMARK    6  A    between atoms: O_9  and  C_10
REMARK    7  A    between atoms: C_13  and  C_14
REMARK    8  A    between atoms: C_14  and  C_15
REMARK    9  A    between atoms: C_15  and  O_16
REMARK   10  A    between atoms: O_16  and  C_17
REMARK   11  A    between atoms: C_17  and  C_18
REMARK                            x       y       z     vdW  Elec       q    Type
REMARK                         _______ _______ _______ _____ _____    ______ ____
ROOT
ATOM      1  C   UNL     1     -10.445  15.669  66.899  0.00  0.00    +0.139 A 
ATOM      2  C   UNL     1     -10.334  15.774  68.281  0.00  0.00    +0.037 A 
ATOM      3  C   UNL     1      -9.092  15.818  68.901  0.00  0.00    -0.001 A 
ATOM      4  C   UNL     1      -7.978  16.223  68.173  0.00  0.00    -0.019 A 
ATOM      5  C   UNL     1      -8.099  16.167  66.796  0.00  0.00    -0.001 A 
ATOM      6  C   UNL     1      -9.278  15.799  66.167  0.00  0.00    +0.037 A 
ENDROOT
BRANCH   1   7
ATOM      7  O   UNL     1     -11.626  15.176  66.339  0.00  0.00    -0.473 OA
BRANCH   7   8
ATOM      8  C   UNL     1     -11.575  14.684  65.037  0.00  0.00    +0.240 C 
BRANCH   8   9
ATOM      9  C   UNL     1     -12.590  13.384  64.975  0.00  0.00    +0.213 C 
ATOM     10  O   UNL     1     -12.405  13.248  63.470  0.00  0.00    -0.218 OA
BRANCH   9  11
ATOM     11  C   UNL     1     -11.413  12.261  65.275  0.00  0.00    +0.125 C 
BRANCH  11  12
ATOM     12  N   UNL     1     -11.852  11.790  66.582  0.00  0.00    -0.217 NA
BRANCH  12  14
ATOM     13  C   UNL     1     -10.868   9.973  67.792  0.00  0.00    +0.019 C 
ATOM     14  C   UNL     1     -10.815  11.217  67.361  0.00  0.00    +0.073 C 
ATOM     15  C   UNL     1      -9.688  12.116  67.720  0.00  0.00    +0.019 C 
ENDBRANCH  12  14
ENDBRANCH  11  12
ENDBRANCH   9  11
ENDBRANCH   8   9
ENDBRANCH   7   8
ENDBRANCH   1   7
BRANCH   4  16
ATOM     16  C   UNL     1      -7.065  17.166  68.856  0.00  0.00    +0.058 C 
BRANCH  16  17
ATOM     17  C   UNL     1      -6.932  18.495  68.327  0.00  0.00    +0.147 C 
BRANCH  17  18
ATOM     18  O   UNL     1      -7.906  19.424  68.513  0.00  0.00    -0.353 OA
BRANCH  18  19
ATOM     19  C   UNL     1      -8.116  20.021  67.268  0.00  0.00    +0.142 C 
BRANCH  19  20
ATOM     20  C   UNL     1      -9.582  20.381  67.102  0.00  0.00    +0.030 C 
ATOM     21  C   UNL     1     -10.499  19.298  67.664  0.00  0.00    +0.003 C 
ATOM     22  C   UNL     1     -10.377  19.468  66.164  0.00  0.00    +0.003 C 
ENDBRANCH  19  20
ENDBRANCH  18  19
ENDBRANCH  17  18
ENDBRANCH  16  17
ENDBRANCH   4  16
TORSDOF 11
ENDMDL
MODEL 8
REMARK VINA RESULT:      -5.3      2.058      3.012
REMARK  Name = 
REMARK  11 active torsions:
REMARK  status: ('A' for Active; 'I' for Inactive)
REMARK    1  A    between atoms: C_2  and  N_4
REMARK    2  A    between atoms: N_4  and  C_5
REMARK    3  A    between atoms: C_5  and  C_6
REMARK    4  A    between atoms: C_6  and  C_8
REMARK    5  A    between atoms: C_8  and  O_9
REMARK    6  A    between atoms: O_9  and  C_10
REMARK    7  A    between atoms: C_13  and  C_14
REMARK    8  A    between atoms: C_14  and  C_15
REMARK    9  A    between atoms: C_15  and  O_16
REMARK   10  A    between atoms: O_16  and  C_17
REMARK   11  A    between atoms: C_17  and  C_18
REMARK                            x       y       z     vdW  Elec       q    Type
REMARK                         _______ _______ _______ _____ _____    ______ ____
ROOT
ATOM      1  C   UNL     1     -10.876  15.441  66.919  0.00  0.00    +0.139 A 
ATOM      2  C   UNL     1     -10.879  15.715  68.282  0.00  0.00    +0.037 A 
ATOM      3  C   UNL     1     -11.622  14.945  69.168  0.00  0.00    -0.001 A 
ATOM      4  C   UNL     1     -11.984  13.650  68.812  0.00  0.00    -0.019 A 
ATOM      5  C   UNL     1     -11.936  13.356  67.461  0.00  0.00    -0.001 A 
ATOM      6  C   UNL     1     -11.487  14.267  66.516  0.00  0.00    +0.037 A 
ENDROOT
BRANCH   1   7
ATOM      7  O   UNL     1     -10.525  16.447  66.015  0.00  0.00    -0.473 OA
BRANCH   7   8
ATOM      8  C   UNL     1      -9.711  17.481  66.473  0.00  0.00    +0.240 C 
BRANCH   8   9
ATOM      9  C   UNL     1     -10.478  18.895  66.102  0.00  0.00    +0.213 C 
ATOM     10  O   UNL     1     -10.895  19.106  67.551  0.00  0.00    -0.218 OA
BRANCH   9  11
ATOM     11  C   UNL     1      -9.138  19.846  66.293  0.00  0.00    +0.125 C 
BRANCH  11  12
ATOM     12  N   UNL     1      -8.821  19.544  67.683  0.00  0.00    -0.217 NA
BRANCH  12  14
ATOM     13  C   UNL     1      -6.853  19.158  68.992  0.00  0.00    +0.019 C 
ATOM     14  C   UNL     1      -7.474  19.814  68.032  0.00  0.00    +0.073 C 
ATOM     15  C   UNL     1      -6.812  20.923  67.297  0.00  0.00    +0.019 C 
ENDBRANCH  12  14
ENDBRANCH  11  12
ENDBRANCH   9  11
ENDBRANCH   8   9
ENDBRANCH   7   8
ENDBRANCH   1   7
BRANCH   4  16
ATOM     16  C   UNL     1     -11.817  12.619  69.860  0.00  0.00    +0.058 C 
BRANCH  16  17
ATOM     17  C   UNL     1     -12.621  12.714  71.047  0.00  0.00    +0.147 C 
BRANCH  17  18
ATOM     18  O   UNL     1     -13.436  13.780  71.259  0.00  0.00    -0.353 OA
BRANCH  18  19
ATOM     19  C   UNL     1     -13.481  13.967  72.641  0.00  0.00    +0.142 C 
BRANCH  19  20
ATOM     20  C   UNL     1     -13.455  15.449  72.970  0.00  0.00    +0.030 C 
ATOM     21  C   UNL     1     -12.100  16.077  72.653  0.00  0.00    +0.003 C 
ATOM     22  C   UNL     1     -12.500  15.852  74.097  0.00  0.00    +0.003 C 
ENDBRANCH  19  20
ENDBRANCH  18  19
ENDBRANCH  17  18
ENDBRANCH  16  17
ENDBRANCH   4  16
TORSDOF 11
ENDMDL
MODEL 9
REMARK VINA RESULT:      -5.3      2.376      6.716
REMARK  Name = 
REMARK  11 active torsions:
REMARK  status: ('A' for Active; 'I' for Inactive)
REMARK    1  A    between atoms: C_2  and  N_4
REMARK    2  A    between atoms: N_4  and  C_5
REMARK    3  A    between atoms: C_5  and  C_6
REMARK    4  A    between atoms: C_6  and  C_8
REMARK    5  A    between atoms: C_8  and  O_9
REMARK    6  A    between atoms: O_9  and  C_10
REMARK    7  A    between atoms: C_13  and  C_14
REMARK    8  A    between atoms: C_14  and  C_15
REMARK    9  A    between atoms: C_15  and  O_16
REMARK   10  A    between atoms: O_16  and  C_17
REMARK   11  A    between atoms: C_17  and  C_18
REMARK                            x       y       z     vdW  Elec       q    Type
REMARK                         _______ _______ _______ _____ _____    ______ ____
ROOT
ATOM      1  C   UNL     1     -11.739  12.200  67.609  0.00  0.00    +0.139 A 
ATOM      2  C   UNL     1     -11.355  12.117  66.276  0.00  0.00    +0.037 A 
ATOM      3  C   UNL     1     -11.367  13.236  65.454  0.00  0.00    -0.001 A 
ATOM      4  C   UNL     1     -11.303  14.504  66.023  0.00  0.00    -0.019 A 
ATOM      5  C   UNL     1     -11.636  14.585  67.363  0.00  0.00    -0.001 A 
ATOM      6  C   UNL     1     -11.949  13.468  68.122  0.00  0.00    +0.037 A 
ENDROOT
BRANCH   1   7
ATOM      7  O   UNL     1     -12.156  11.046  68.279  0.00  0.00    -0.473 OA
BRANCH   7   8
ATOM      8  C   UNL     1     -11.683  10.835  69.572  0.00  0.00    +0.240 C 
BRANCH   8   9
ATOM      9  C   UNL     1     -12.974  10.998  70.588  0.00  0.00    +0.213 C 
ATOM     10  O   UNL     1     -12.305  10.143  71.656  0.00  0.00    -0.218 OA
BRANCH   9  11
ATOM     11  C   UNL     1     -12.435  12.394  71.292  0.00  0.00    +0.125 C 
BRANCH  11  12
ATOM     12  N   UNL     1     -13.582  12.701  72.136  0.00  0.00    -0.217 NA
BRANCH  12  14
ATOM     13  C   UNL     1     -14.709  14.755  71.639  0.00  0.00    +0.019 C 
ATOM     14  C   UNL     1     -13.800  14.089  72.323  0.00  0.00    +0.073 C 
ATOM     15  C   UNL     1     -12.902  14.772  73.290  0.00  0.00    +0.019 C 
ENDBRANCH  12  14
ENDBRANCH  11  12
ENDBRANCH   9  11
ENDBRANCH   8   9
ENDBRANCH   7   8
ENDBRANCH   1   7
BRANCH   4  16
ATOM     16  C   UNL     1     -10.383  15.462  65.369  0.00  0.00    +0.058 C 
BRANCH  16  17
ATOM     17  C   UNL     1     -10.240  16.772  65.942  0.00  0.00    +0.147 C 
BRANCH  17  18
ATOM     18  O   UNL     1     -10.674  17.877  65.281  0.00  0.00    -0.353 OA
BRANCH  18  19
ATOM     19  C   UNL     1     -10.480  18.951  66.152  0.00  0.00    +0.142 C 
BRANCH  19  20
ATOM     20  C   UNL     1      -9.593  18.532  67.310  0.00  0.00    +0.030 C 
ATOM     21  C   UNL     1      -9.755  19.459  68.512  0.00  0.00    +0.003 C 
ATOM     22  C   UNL     1      -8.490  19.528  67.682  0.00  0.00    +0.003 C 
ENDBRANCH  19  20
ENDBRANCH  18  19
ENDBRANCH  17  18
ENDBRANCH  16  17
ENDBRANCH   4  16
TORSDOF 11
ENDMDL
