MODEL 1
REMARK VINA RESULT:      -5.5      0.000      0.000
REMARK  Name = 
REMARK  2 active torsions:
REMARK  status: ('A' for Active; 'I' for Inactive)
REMARK    1  A    between atoms: C_2  and  N_3
REMARK    2  A    between atoms: C_7  and  C_8
REMARK                            x       y       z     vdW  Elec       q    Type
REMARK                         _______ _______ _______ _____ _____    ______ ____
ROOT
ATOM      1  N   UNL     1     -10.826  14.509  65.202  0.00  0.00    -0.211 N 
ATOM      2  C   UNL     1     -10.875  15.905  65.116  0.00  0.00    +0.257 C 
ATOM      3  O   UNL     1     -11.264  16.740  64.317  0.00  0.00    -0.272 OA
ATOM      4  C   UNL     1     -10.535  16.247  66.671  0.00  0.00    +0.195 C 
ATOM      5  N   UNL     1      -9.159  15.454  66.535  0.00  0.00    -0.176 NA
ATOM      6  C   UNL     1      -9.719  14.222  66.065  0.00  0.00    +0.330 C 
ATOM      7  O   UNL     1      -9.412  13.036  66.370  0.00  0.00    -0.250 OA
ENDROOT
BRANCH   4   8
ATOM      8  C   UNL     1      -9.828  17.677  66.353  0.00  0.00    +0.006 A 
ATOM      9  C   UNL     1      -8.456  17.583  66.287  0.00  0.00    -0.002 A 
ATOM     10  C   UNL     1      -7.703  18.678  66.662  0.00  0.00    -0.000 A 
ATOM     11  C   UNL     1      -8.369  19.868  66.901  0.00  0.00    -0.000 A 
ATOM     12  C   UNL     1      -9.736  19.962  66.663  0.00  0.00    -0.000 A 
ATOM     13  C   UNL     1     -10.511  18.804  66.638  0.00  0.00    -0.002 A 
ENDBRANCH   4   8
BRANCH   1  15
ATOM     14  C   UNL     1     -12.539  12.802  64.969  0.00  0.00    +0.024 C 
ATOM     15  C   UNL     1     -11.577  13.662  64.319  0.00  0.00    +0.103 C 
ENDBRANCH   1  15
TORSDOF 2
ENDMDL
MODEL 2
REMARK VINA RESULT:      -5.4      1.976      2.339
REMARK  Name = 
REMARK  2 active torsions:
REMARK  status: ('A' for Active; 'I' for Inactive)
REMARK    1  A    between atoms: C_2  and  N_3
REMARK    2  A    between atoms: C_7  and  C_8
REMARK                            x       y       z     vdW  Elec       q    Type
REMARK                         _______ _______ _______ _____ _____    ______ ____
ROOT
ATOM      1  N   UNL     1     -11.147  14.510  66.808  0.00  0.00    -0.211 N 
ATOM      2  C   UNL     1     -11.176  15.666  67.598  0.00  0.00    +0.257 C 
ATOM      3  O   UNL     1     -11.848  16.106  68.515  0.00  0.00    -0.272 OA
ATOM      4  C   UNL     1      -9.718  16.264  67.189  0.00  0.00    +0.195 C 
ATOM      5  N   UNL     1     -10.167  16.292  65.660  0.00  0.00    -0.176 NA
ATOM      6  C   UNL     1     -10.547  14.913  65.571  0.00  0.00    +0.330 C 
ATOM      7  O   UNL     1     -10.351  14.089  64.634  0.00  0.00    -0.250 OA
ENDROOT
BRANCH   4   8
ATOM      8  C   UNL     1     -10.133  17.821  67.416  0.00  0.00    +0.006 A 
ATOM      9  C   UNL     1     -10.451  18.458  66.238  0.00  0.00    -0.002 A 
ATOM     10  C   UNL     1     -10.199  19.812  66.134  0.00  0.00    -0.000 A 
ATOM     11  C   UNL     1      -9.819  20.488  67.280  0.00  0.00    -0.000 A 
ATOM     12  C   UNL     1      -9.801  19.829  68.505  0.00  0.00    -0.000 A 
ATOM     13  C   UNL     1      -9.706  18.438  68.536  0.00  0.00    -0.002 A 
ENDBRANCH   4   8
BRANCH   1  15
ATOM     14  C   UNL     1     -11.330  12.577  68.268  0.00  0.00    +0.024 C 
ATOM     15  C   UNL     1     -11.878  13.326  67.159  0.00  0.00    +0.103 C 
ENDBRANCH   1  15
TORSDOF 2
ENDMDL
MODEL 3
REMARK VINA RESULT:      -5.4      2.002      5.390
REMARK  Name = 
REMARK  2 active torsions:
REMARK  status: ('A' for Active; 'I' for Inactive)
REMARK    1  A    between atoms: C_2  and  N_3
REMARK    2  A    between atoms: C_7  and  C_8
REMARK                            x       y       z     vdW  Elec       q    Type
REMARK                         _______ _______ _______ _____ _____    ______ ____
ROOT
ATOM      1  N   UNL     1     -10.489  16.839  67.748  0.00  0.00    -0.211 N 
ATOM      2  C   UNL     1     -10.296  16.213  66.510  0.00  0.00    +0.257 C 
ATOM      3  O   UNL     1      -9.968  16.543  65.382  0.00  0.00    -0.272 OA
ATOM      4  C   UNL     1     -10.299  14.669  67.026  0.00  0.00    +0.195 C 
ATOM      5  N   UNL     1     -11.759  14.883  67.629  0.00  0.00    -0.176 NA
ATOM      6  C   UNL     1     -11.442  16.022  68.438  0.00  0.00    +0.330 C 
ATOM      7  O   UNL     1     -11.822  16.301  69.610  0.00  0.00    -0.250 OA
ENDROOT
BRANCH   4   8
ATOM      8  C   UNL     1     -10.883  14.055  65.636  0.00  0.00    +0.006 A 
ATOM      9  C   UNL     1     -12.252  13.914  65.658  0.00  0.00    -0.002 A 
ATOM     10  C   UNL     1     -12.819  12.892  64.923  0.00  0.00    -0.000 A 
ATOM     11  C   UNL     1     -12.000  12.186  64.059  0.00  0.00    -0.000 A 
ATOM     12  C   UNL     1     -10.679  12.579  63.874  0.00  0.00    -0.000 A 
ATOM     13  C   UNL     1     -10.047  13.347  64.851  0.00  0.00    -0.002 A 
ENDBRANCH   4   8
BRANCH   1  15
ATOM     14  C   UNL     1     -10.734  19.219  67.324  0.00  0.00    +0.024 C 
ATOM     15  C   UNL     1     -10.019  18.169  68.013  0.00  0.00    +0.103 C 
ENDBRANCH   1  15
TORSDOF 2
ENDMDL
MODEL 4
REMARK VINA RESULT:      -5.4      4.214      5.811
REMARK  Name = 
REMARK  2 active torsions:
REMARK  status: ('A' for Active; 'I' for Inactive)
REMARK    1  A    between atoms: C_2  and  N_3
REMARK    2  A    between atoms: C_7  and  C_8
REMARK                            x       y       z     vdW  Elec       q    Type
REMARK                         _______ _______ _______ _____ _____    ______ ____
ROOT
ATOM      1  N   UNL     1     -10.747  15.345  67.307  0.00  0.00    -0.211 N 
ATOM      2  C   UNL     1     -11.421  14.389  68.076  0.00  0.00    +0.257 C 
ATOM      3  O   UNL     1     -11.985  13.324  67.888  0.00  0.00    -0.272 OA
ATOM      4  C   UNL     1     -10.966  14.911  69.550  0.00  0.00    +0.195 C 
ATOM      5  N   UNL     1     -11.615  16.333  69.236  0.00  0.00    -0.176 NA
ATOM      6  C   UNL     1     -10.902  16.578  68.018  0.00  0.00    +0.330 C 
ATOM      7  O   UNL     1     -10.386  17.651  67.596  0.00  0.00    -0.250 OA
ENDROOT
BRANCH   4   8
ATOM      8  C   UNL     1     -12.305  14.384  70.309  0.00  0.00    +0.006 A 
ATOM      9  C   UNL     1     -13.122  15.417  70.712  0.00  0.00    -0.002 A 
ATOM     10  C   UNL     1     -13.888  15.243  71.848  0.00  0.00    -0.000 A 
ATOM     11  C   UNL     1     -13.935  13.979  72.408  0.00  0.00    -0.000 A 
ATOM     12  C   UNL     1     -13.312  12.911  71.772  0.00  0.00    -0.000 A 
ATOM     13  C   UNL     1     -12.282  13.157  70.865  0.00  0.00    -0.002 A 
ENDBRANCH   4   8
BRANCH   1  15
ATOM     14  C   UNL     1     -11.351  15.136  64.963  0.00  0.00    +0.024 C 
ATOM     15  C   UNL     1     -10.312  15.077  65.966  0.00  0.00    +0.103 C 
ENDBRANCH   1  15
TORSDOF 2
ENDMDL
MODEL 5
REMARK VINA RESULT:      -5.3      1.896      5.268
REMARK  Name = 
REMARK  2 active torsions:
REMARK  status: ('A' for Active; 'I' for Inactive)
REMARK    1  A    between atoms: C_2  and  N_3
REMARK    2  A    between atoms: C_7  and  C_8
REMARK                            x       y       z     vdW  Elec       q    Type
REMARK                         _______ _______ _______ _____ _____    ______ ____
ROOT
ATOM      1  N   UNL     1     -10.405  18.012  66.531  0.00  0.00    -0.211 N 
ATOM      2  C   UNL     1     -10.676  17.018  65.583  0.00  0.00    +0.257 C 
ATOM      3  O   UNL     1     -11.170  16.954  64.470  0.00  0.00    -0.272 OA
ATOM      4  C   UNL     1      -9.782  15.823  66.235  0.00  0.00    +0.195 C 
ATOM      5  N   UNL     1     -10.627  15.939  67.582  0.00  0.00    -0.176 NA
ATOM      6  C   UNL     1     -10.413  17.339  67.796  0.00  0.00    +0.330 C 
ATOM      7  O   UNL     1     -10.178  17.957  68.872  0.00  0.00    -0.250 OA
ENDROOT
BRANCH   4   8
ATOM      8  C   UNL     1     -10.716  14.619  65.665  0.00  0.00    +0.006 A 
ATOM      9  C   UNL     1     -11.670  14.218  66.573  0.00  0.00    -0.002 A 
ATOM     10  C   UNL     1     -12.079  12.899  66.558  0.00  0.00    -0.000 A 
ATOM     11  C   UNL     1     -11.649  12.102  65.512  0.00  0.00    -0.000 A 
ATOM     12  C   UNL     1     -10.918  12.657  64.467  0.00  0.00    -0.000 A 
ATOM     13  C   UNL     1     -10.230  13.853  64.668  0.00  0.00    -0.002 A 
ENDBRANCH   4   8
BRANCH   1  15
ATOM     14  C   UNL     1      -9.396  20.206  66.801  0.00  0.00    +0.024 C 
ATOM     15  C   UNL     1     -10.446  19.410  66.206  0.00  0.00    +0.103 C 
ENDBRANCH   1  15
TORSDOF 2
ENDMDL
MODEL 6
REMARK VINA RESULT:      -5.2      3.887      5.449
REMARK  Name = 
REMARK  2 active torsions:
REMARK  status: ('A' for Active; 'I' for Inactive)
REMARK    1  A    between atoms: C_2  and  N_3
REMARK    2  A    between atoms: C_7  and  C_8
REMARK                            x       y       z     vdW  Elec       q    Type
REMARK                         _______ _______ _______ _____ _____    ______ ____
ROOT
ATOM      1  N   UNL     1     -12.046  14.440  70.673  0.00  0.00    -0.211 N 
ATOM      2  C   UNL     1     -11.795  15.210  69.531  0.00  0.00    +0.257 C 
ATOM      3  O   UNL     1     -11.975  16.361  69.171  0.00  0.00    -0.272 OA
ATOM      4  C   UNL     1     -10.782  14.184  68.775  0.00  0.00    +0.195 C 
ATOM      5  N   UNL     1     -11.918  13.066  68.790  0.00  0.00    -0.176 NA
ATOM      6  C   UNL     1     -12.162  13.093  70.201  0.00  0.00    +0.330 C 
ATOM      7  O   UNL     1     -12.371  12.132  70.995  0.00  0.00    -0.250 OA
ENDROOT
BRANCH   4   8
ATOM      8  C   UNL     1     -11.177  14.672  67.274  0.00  0.00    +0.006 A 
ATOM      9  C   UNL     1     -12.271  14.002  66.775  0.00  0.00    -0.002 A 
ATOM     10  C   UNL     1     -12.351  13.799  65.411  0.00  0.00    -0.000 A 
ATOM     11  C   UNL     1     -11.427  14.442  64.607  0.00  0.00    -0.000 A 
ATOM     12  C   UNL     1     -10.524  15.341  65.164  0.00  0.00    -0.000 A 
ATOM     13  C   UNL     1     -10.226  15.262  66.524  0.00  0.00    -0.002 A 
ENDBRANCH   4   8
BRANCH   1  15
ATOM     14  C   UNL     1     -13.809  15.310  72.102  0.00  0.00    +0.024 C 
ATOM     15  C   UNL     1     -12.400  15.033  71.932  0.00  0.00    +0.103 C 
ENDBRANCH   1  15
TORSDOF 2
ENDMDL
MODEL 7
REMARK VINA RESULT:      -5.2      2.750      3.940
REMARK  Name = 
REMARK  2 active torsions:
REMARK  status: ('A' for Active; 'I' for Inactive)
REMARK    1  A    between atoms: C_2  and  N_3
REMARK    2  A    between atoms: C_7  and  C_8
REMARK                            x       y       z     vdW  Elec       q    Type
REMARK                         _______ _______ _______ _____ _____    ______ ____
ROOT
ATOM      1  N   UNL     1     -10.975  12.837  64.887  0.00  0.00    -0.211 N 
ATOM      2  C   UNL     1     -10.312  13.553  65.891  0.00  0.00    +0.257 C 
ATOM      3  O   UNL     1      -9.213  13.544  66.419  0.00  0.00    -0.272 OA
ATOM      4  C   UNL     1     -11.358  14.794  66.024  0.00  0.00    +0.195 C 
ATOM      5  N   UNL     1     -12.523  13.762  66.370  0.00  0.00    -0.176 NA
ATOM      6  C   UNL     1     -12.367  12.936  65.210  0.00  0.00    +0.330 C 
ATOM      7  O   UNL     1     -13.253  12.408  64.479  0.00  0.00    -0.250 OA
ENDROOT
BRANCH   4   8
ATOM      8  C   UNL     1     -11.043  15.079  67.594  0.00  0.00    +0.006 A 
ATOM      9  C   UNL     1     -11.752  14.249  68.432  0.00  0.00    -0.002 A 
ATOM     10  C   UNL     1     -12.111  14.724  69.678  0.00  0.00    -0.000 A 
ATOM     11  C   UNL     1     -11.578  15.933  70.087  0.00  0.00    -0.000 A 
ATOM     12  C   UNL     1     -10.631  16.579  69.299  0.00  0.00    -0.000 A 
ATOM     13  C   UNL     1     -10.556  16.288  67.937  0.00  0.00    -0.002 A 
ENDBRANCH   4   8
BRANCH   1  15
ATOM     14  C   UNL     1     -10.180  10.597  64.389  0.00  0.00    +0.024 C 
ATOM     15  C   UNL     1     -10.278  11.977  63.973  0.00  0.00    +0.103 C 
ENDBRANCH   1  15
TORSDOF 2
ENDMDL
MODEL 8
REMARK VINA RESULT:      -5.2      2.562      3.670
REMARK  Name = 
REMARK  2 active torsions:
REMARK  status: ('A' for Active; 'I' for Inactive)
REMARK    1  A    between atoms: C_2  and  N_3
REMARK    2  A    between atoms: C_7  and  C_8
REMARK                            x       y       z     vdW  Elec       q    Type
REMARK                         _______ _______ _______ _____ _____    ______ ____
ROOT
ATOM      1  N   UNL     1      -9.940  17.233  66.645  0.00  0.00    -0.211 N 
ATOM      2  C   UNL     1      -8.755  17.947  66.434  0.00  0.00    +0.257 C 
ATOM      3  O   UNL     1      -7.785  17.875  65.698  0.00  0.00    -0.272 OA
ATOM      4  C   UNL     1      -9.129  19.279  67.292  0.00  0.00    +0.195 C 
ATOM      5  N   UNL     1      -9.334  18.376  68.589  0.00  0.00    -0.176 NA
ATOM      6  C   UNL     1     -10.285  17.471  68.015  0.00  0.00    +0.330 C 
ATOM      7  O   UNL     1     -11.330  16.978  68.526  0.00  0.00    -0.250 OA
ENDROOT
BRANCH   4   8
ATOM      8  C   UNL     1      -7.591  19.631  67.689  0.00  0.00    +0.006 A 
ATOM      9  C   UNL     1      -7.216  19.069  68.889  0.00  0.00    -0.002 A 
ATOM     10  C   UNL     1      -6.279  19.728  69.660  0.00  0.00    -0.000 A 
ATOM     11  C   UNL     1      -5.632  20.815  69.099  0.00  0.00    -0.000 A 
ATOM     12  C   UNL     1      -5.855  21.150  67.768  0.00  0.00    -0.000 A 
ATOM     13  C   UNL     1      -7.023  20.722  67.138  0.00  0.00    -0.002 A 
ENDBRANCH   4   8
BRANCH   1  15
ATOM     14  C   UNL     1      -9.791  14.965  65.785  0.00  0.00    +0.024 C 
ATOM     15  C   UNL     1     -10.425  16.262  65.705  0.00  0.00    +0.103 C 
ENDBRANCH   1  15
TORSDOF 2
ENDMDL
MODEL 9
REMARK VINA RESULT:      -5.1      2.194      5.596
REMARK  Name = 
REMARK  2 active torsions:
REMARK  status: ('A' for Active; 'I' for Inactive)
REMARK    1  A    between atoms: C_2  and  N_3
REMARK    2  A    between atoms: C_7  and  C_8
REMARK                            x       y       z     vdW  Elec       q    Type
REMARK                         _______ _______ _______ _____ _____    ______ ____
ROOT
ATOM      1  N   UNL     1     -10.359  16.617  66.386  0.00  0.00    -0.211 N 
ATOM      2  C   UNL     1     -10.226  15.563  67.298  0.00  0.00    +0.257 C 
ATOM      3  O   UNL     1      -9.503  15.279  68.238  0.00  0.00    -0.272 OA
ATOM      4  C   UNL     1     -11.644  14.819  67.003  0.00  0.00    +0.195 C 
ATOM      5  N   UNL     1     -11.227  14.651  65.474  0.00  0.00    -0.176 NA
ATOM      6  C   UNL     1     -10.954  16.034  65.220  0.00  0.00    +0.330 C 
ATOM      7  O   UNL     1     -11.230  16.731  64.203  0.00  0.00    -0.250 OA
ENDROOT
BRANCH   4   8
ATOM      8  C   UNL     1     -11.109  13.332  67.390  0.00  0.00    +0.006 A 
ATOM      9  C   UNL     1     -10.615  12.651  66.300  0.00  0.00    -0.002 A 
ATOM     10  C   UNL     1     -10.725  11.275  66.279  0.00  0.00    -0.000 A 
ATOM     11  C   UNL     1     -11.154  10.644  67.434  0.00  0.00    -0.000 A 
ATOM     12  C   UNL     1     -11.358  11.380  68.596  0.00  0.00    -0.000 A 
ATOM     13  C   UNL     1     -11.588  12.753  68.509  0.00  0.00    -0.002 A 
ENDBRANCH   4   8
BRANCH   1  15
ATOM     14  C   UNL     1     -10.592  18.970  66.944  0.00  0.00    +0.024 C 
ATOM     15  C   UNL     1      -9.711  17.883  66.581  0.00  0.00    +0.103 C 
ENDBRANCH   1  15
TORSDOF 2
ENDMDL
