MODEL 1
REMARK VINA RESULT:      -3.8      0.000      0.000
REMARK  Name = 
REMARK  5 active torsions:
REMARK  status: ('A' for Active; 'I' for Inactive)
REMARK    1  A    between atoms: C_2  and  C_3
REMARK    2  A    between atoms: C_3  and  C_4
REMARK    3  A    between atoms: C_4  and  C_5
REMARK    4  A    between atoms: C_5  and  C_6
REMARK    5  A    between atoms: C_6  and  C_7
REMARK                            x       y       z     vdW  Elec       q    Type
REMARK                         _______ _______ _______ _____ _____    ______ ____
ROOT
ATOM      1  C   UNL     1     -11.893  16.070  71.174  0.00  0.00    +0.012 C 
ENDROOT
BRANCH   1   2
ATOM      2  C   UNL     1     -12.151  15.106  70.050  0.00  0.00    +0.002 C 
BRANCH   2   3
ATOM      3  C   UNL     1     -11.623  15.643  68.728  0.00  0.00    +0.021 C 
BRANCH   3   5
ATOM      4  N   UNL     1     -10.823  17.785  68.071  0.00  0.00    -0.131 NA
ATOM      5  C   UNL     1     -10.573  16.708  69.026  0.00  0.00    +0.109 C 
ENDBRANCH   3   5
ENDBRANCH   2   3
ENDBRANCH   1   2
BRANCH   1   6
ATOM      6  C   UNL     1     -11.899  15.264  72.468  0.00  0.00    +0.114 C 
BRANCH   6   7
ATOM      7  C   UNL     1     -12.971  15.737  73.396  0.00  0.00    +0.365 C 
ATOM      8  O   UNL     1     -14.188  16.074  72.796  0.00  0.00    -0.246 OA
ATOM      9  O   UNL     1     -12.689  16.401  74.439  0.00  0.00    -0.246 OA
ENDBRANCH   6   7
ENDBRANCH   1   6
TORSDOF 5
ENDMDL
MODEL 2
REMARK VINA RESULT:      -3.8      6.854      7.715
REMARK  Name = 
REMARK  5 active torsions:
REMARK  status: ('A' for Active; 'I' for Inactive)
REMARK    1  A    between atoms: C_2  and  C_3
REMARK    2  A    between atoms: C_3  and  C_4
REMARK    3  A    between atoms: C_4  and  C_5
REMARK    4  A    between atoms: C_5  and  C_6
REMARK    5  A    between atoms: C_6  and  C_7
REMARK                            x       y       z     vdW  Elec       q    Type
REMARK                         _______ _______ _______ _____ _____    ______ ____
ROOT
ATOM      1  C   UNL     1     -11.877  13.900  65.758  0.00  0.00    +0.012 C 
ENDROOT
BRANCH   1   2
ATOM      2  C   UNL     1     -12.399  12.778  64.905  0.00  0.00    +0.002 C 
BRANCH   2   3
ATOM      3  C   UNL     1     -11.579  12.620  63.634  0.00  0.00    +0.021 C 
BRANCH   3   5
ATOM      4  N   UNL     1      -9.661  11.394  62.939  0.00  0.00    -0.131 NA
ATOM      5  C   UNL     1     -10.928  11.241  63.651  0.00  0.00    +0.109 C 
ENDBRANCH   3   5
ENDBRANCH   2   3
ENDBRANCH   1   2
BRANCH   1   6
ATOM      6  C   UNL     1     -10.745  14.565  64.983  0.00  0.00    +0.114 C 
BRANCH   6   7
ATOM      7  C   UNL     1     -10.886  16.053  64.987  0.00  0.00    +0.365 C 
ATOM      8  O   UNL     1     -11.629  16.595  63.935  0.00  0.00    -0.246 OA
ATOM      9  O   UNL     1      -9.957  16.799  65.424  0.00  0.00    -0.246 OA
ENDBRANCH   6   7
ENDBRANCH   1   6
TORSDOF 5
ENDMDL
MODEL 3
REMARK VINA RESULT:      -3.7      1.250      1.583
REMARK  Name = 
REMARK  5 active torsions:
REMARK  status: ('A' for Active; 'I' for Inactive)
REMARK    1  A    between atoms: C_2  and  C_3
REMARK    2  A    between atoms: C_3  and  C_4
REMARK    3  A    between atoms: C_4  and  C_5
REMARK    4  A    between atoms: C_5  and  C_6
REMARK    5  A    between atoms: C_6  and  C_7
REMARK                            x       y       z     vdW  Elec       q    Type
REMARK                         _______ _______ _______ _____ _____    ______ ____
ROOT
ATOM      1  C   UNL     1     -13.059  15.239  71.564  0.00  0.00    +0.012 C 
ENDROOT
BRANCH   1   2
ATOM      2  C   UNL     1     -11.845  16.049  71.207  0.00  0.00    +0.002 C 
BRANCH   2   3
ATOM      3  C   UNL     1     -11.035  15.379  70.107  0.00  0.00    +0.021 C 
BRANCH   3   5
ATOM      4  N   UNL     1     -11.081  17.086  68.450  0.00  0.00    -0.131 NA
ATOM      5  C   UNL     1     -11.635  15.770  68.761  0.00  0.00    +0.109 C 
ENDBRANCH   3   5
ENDBRANCH   2   3
ENDBRANCH   1   2
BRANCH   1   6
ATOM      6  C   UNL     1     -13.635  15.831  72.845  0.00  0.00    +0.114 C 
BRANCH   6   7
ATOM      7  C   UNL     1     -12.606  15.886  73.928  0.00  0.00    +0.365 C 
ATOM      8  O   UNL     1     -12.179  14.650  74.422  0.00  0.00    -0.246 OA
ATOM      9  O   UNL     1     -12.594  16.832  74.773  0.00  0.00    -0.246 OA
ENDBRANCH   6   7
ENDBRANCH   1   6
TORSDOF 5
ENDMDL
MODEL 4
REMARK VINA RESULT:      -3.7      6.264      6.779
REMARK  Name = 
REMARK  5 active torsions:
REMARK  status: ('A' for Active; 'I' for Inactive)
REMARK    1  A    between atoms: C_2  and  C_3
REMARK    2  A    between atoms: C_3  and  C_4
REMARK    3  A    between atoms: C_4  and  C_5
REMARK    4  A    between atoms: C_5  and  C_6
REMARK    5  A    between atoms: C_6  and  C_7
REMARK                            x       y       z     vdW  Elec       q    Type
REMARK                         _______ _______ _______ _____ _____    ______ ____
ROOT
ATOM      1  C   UNL     1     -10.086  15.567  66.425  0.00  0.00    +0.012 C 
ENDROOT
BRANCH   1   2
ATOM      2  C   UNL     1      -8.898  16.451  66.170  0.00  0.00    +0.002 C 
BRANCH   2   3
ATOM      3  C   UNL     1      -8.994  17.750  66.955  0.00  0.00    +0.021 C 
BRANCH   3   5
ATOM      4  N   UNL     1     -10.905  19.063  67.487  0.00  0.00    -0.131 NA
ATOM      5  C   UNL     1     -10.111  18.595  66.353  0.00  0.00    +0.109 C 
ENDBRANCH   3   5
ENDBRANCH   2   3
ENDBRANCH   1   2
BRANCH   1   6
ATOM      6  C   UNL     1     -10.436  14.891  65.105  0.00  0.00    +0.114 C 
BRANCH   6   7
ATOM      7  C   UNL     1     -11.657  15.498  64.491  0.00  0.00    +0.365 C 
ATOM      8  O   UNL     1     -12.582  14.595  63.959  0.00  0.00    -0.246 OA
ATOM      9  O   UNL     1     -11.604  16.619  63.899  0.00  0.00    -0.246 OA
ENDBRANCH   6   7
ENDBRANCH   1   6
TORSDOF 5
ENDMDL
MODEL 5
REMARK VINA RESULT:      -3.6      3.611      4.178
REMARK  Name = 
REMARK  5 active torsions:
REMARK  status: ('A' for Active; 'I' for Inactive)
REMARK    1  A    between atoms: C_2  and  C_3
REMARK    2  A    between atoms: C_3  and  C_4
REMARK    3  A    between atoms: C_4  and  C_5
REMARK    4  A    between atoms: C_5  and  C_6
REMARK    5  A    between atoms: C_6  and  C_7
REMARK                            x       y       z     vdW  Elec       q    Type
REMARK                         _______ _______ _______ _____ _____    ______ ____
ROOT
ATOM      1  C   UNL     1     -12.838  13.034  71.499  0.00  0.00    +0.012 C 
ENDROOT
BRANCH   1   2
ATOM      2  C   UNL     1     -13.040  11.551  71.628  0.00  0.00    +0.002 C 
BRANCH   2   3
ATOM      3  C   UNL     1     -12.170  10.785  70.642  0.00  0.00    +0.021 C 
BRANCH   3   5
ATOM      4  N   UNL     1     -12.082  11.108  68.286  0.00  0.00    -0.131 NA
ATOM      5  C   UNL     1     -11.720  11.748  69.549  0.00  0.00    +0.109 C 
ENDBRANCH   3   5
ENDBRANCH   2   3
ENDBRANCH   1   2
BRANCH   1   6
ATOM      6  C   UNL     1     -14.006  13.711  72.206  0.00  0.00    +0.114 C 
BRANCH   6   7
ATOM      7  C   UNL     1     -14.257  15.077  71.652  0.00  0.00    +0.365 C 
ATOM      8  O   UNL     1     -13.403  16.084  72.110  0.00  0.00    -0.246 OA
ATOM      9  O   UNL     1     -15.432  15.462  71.365  0.00  0.00    -0.246 OA
ENDBRANCH   6   7
ENDBRANCH   1   6
TORSDOF 5
ENDMDL
MODEL 6
REMARK VINA RESULT:      -3.6      1.463      1.837
REMARK  Name = 
REMARK  5 active torsions:
REMARK  status: ('A' for Active; 'I' for Inactive)
REMARK    1  A    between atoms: C_2  and  C_3
REMARK    2  A    between atoms: C_3  and  C_4
REMARK    3  A    between atoms: C_4  and  C_5
REMARK    4  A    between atoms: C_5  and  C_6
REMARK    5  A    between atoms: C_6  and  C_7
REMARK                            x       y       z     vdW  Elec       q    Type
REMARK                         _______ _______ _______ _____ _____    ______ ____
ROOT
ATOM      1  C   UNL     1     -11.700  16.096  71.285  0.00  0.00    +0.012 C 
ENDROOT
BRANCH   1   2
ATOM      2  C   UNL     1     -12.149  15.441  70.009  0.00  0.00    +0.002 C 
BRANCH   2   3
ATOM      3  C   UNL     1     -12.108  13.925  70.120  0.00  0.00    +0.021 C 
BRANCH   3   5
ATOM      4  N   UNL     1     -11.865  14.489  67.821  0.00  0.00    -0.131 NA
ATOM      5  C   UNL     1     -11.849  13.347  68.733  0.00  0.00    +0.109 C 
ENDBRANCH   3   5
ENDBRANCH   2   3
ENDBRANCH   1   2
BRANCH   1   6
ATOM      6  C   UNL     1     -12.024  15.135  72.423  0.00  0.00    +0.114 C 
BRANCH   6   7
ATOM      7  C   UNL     1     -13.056  15.710  73.340  0.00  0.00    +0.365 C 
ATOM      8  O   UNL     1     -14.265  16.076  72.741  0.00  0.00    -0.246 OA
ATOM      9  O   UNL     1     -12.723  16.412  74.343  0.00  0.00    -0.246 OA
ENDBRANCH   6   7
ENDBRANCH   1   6
TORSDOF 5
ENDMDL
MODEL 7
REMARK VINA RESULT:      -3.6      3.670      4.785
REMARK  Name = 
REMARK  5 active torsions:
REMARK  status: ('A' for Active; 'I' for Inactive)
REMARK    1  A    between atoms: C_2  and  C_3
REMARK    2  A    between atoms: C_3  and  C_4
REMARK    3  A    between atoms: C_4  and  C_5
REMARK    4  A    between atoms: C_5  and  C_6
REMARK    5  A    between atoms: C_6  and  C_7
REMARK                            x       y       z     vdW  Elec       q    Type
REMARK                         _______ _______ _______ _____ _____    ______ ____
ROOT
ATOM      1  C   UNL     1     -12.640  14.487  70.907  0.00  0.00    +0.012 C 
ENDROOT
BRANCH   1   2
ATOM      2  C   UNL     1     -13.473  14.660  72.146  0.00  0.00    +0.002 C 
BRANCH   2   3
ATOM      3  C   UNL     1     -13.016  15.863  72.957  0.00  0.00    +0.021 C 
BRANCH   3   5
ATOM      4  N   UNL     1     -12.432  16.518  75.169  0.00  0.00    -0.131 NA
ATOM      5  C   UNL     1     -12.435  15.362  74.275  0.00  0.00    +0.109 C 
ENDBRANCH   3   5
ENDBRANCH   2   3
ENDBRANCH   1   2
BRANCH   1   6
ATOM      6  C   UNL     1     -11.950  15.819  70.638  0.00  0.00    +0.114 C 
BRANCH   6   7
ATOM      7  C   UNL     1     -11.463  15.902  69.227  0.00  0.00    +0.365 C 
ATOM      8  O   UNL     1     -11.239  17.192  68.738  0.00  0.00    -0.246 OA
ATOM      9  O   UNL     1     -11.831  15.057  68.356  0.00  0.00    -0.246 OA
ENDBRANCH   6   7
ENDBRANCH   1   6
TORSDOF 5
ENDMDL
MODEL 8
REMARK VINA RESULT:      -3.6      5.707      6.808
REMARK  Name = 
REMARK  5 active torsions:
REMARK  status: ('A' for Active; 'I' for Inactive)
REMARK    1  A    between atoms: C_2  and  C_3
REMARK    2  A    between atoms: C_3  and  C_4
REMARK    3  A    between atoms: C_4  and  C_5
REMARK    4  A    between atoms: C_5  and  C_6
REMARK    5  A    between atoms: C_6  and  C_7
REMARK                            x       y       z     vdW  Elec       q    Type
REMARK                         _______ _______ _______ _____ _____    ______ ____
ROOT
ATOM      1  C   UNL     1     -12.087  14.122  66.086  0.00  0.00    +0.012 C 
ENDROOT
BRANCH   1   2
ATOM      2  C   UNL     1     -11.633  14.533  67.458  0.00  0.00    +0.002 C 
BRANCH   2   3
ATOM      3  C   UNL     1     -11.890  13.434  68.479  0.00  0.00    +0.021 C 
BRANCH   3   5
ATOM      4  N   UNL     1     -12.073  11.069  68.293  0.00  0.00    -0.131 NA
ATOM      5  C   UNL     1     -11.157  12.176  68.027  0.00  0.00    +0.109 C 
ENDBRANCH   3   5
ENDBRANCH   2   3
ENDBRANCH   1   2
BRANCH   1   6
ATOM      6  C   UNL     1     -10.993  14.531  65.108  0.00  0.00    +0.114 C 
BRANCH   6   7
ATOM      7  C   UNL     1     -10.881  16.019  65.010  0.00  0.00    +0.365 C 
ATOM      8  O   UNL     1     -11.582  16.611  63.955  0.00  0.00    -0.246 OA
ATOM      9  O   UNL     1      -9.817  16.620  65.349  0.00  0.00    -0.246 OA
ENDBRANCH   6   7
ENDBRANCH   1   6
TORSDOF 5
ENDMDL
MODEL 9
REMARK VINA RESULT:      -3.6      5.608      6.574
REMARK  Name = 
REMARK  5 active torsions:
REMARK  status: ('A' for Active; 'I' for Inactive)
REMARK    1  A    between atoms: C_2  and  C_3
REMARK    2  A    between atoms: C_3  and  C_4
REMARK    3  A    between atoms: C_4  and  C_5
REMARK    4  A    between atoms: C_5  and  C_6
REMARK    5  A    between atoms: C_6  and  C_7
REMARK                            x       y       z     vdW  Elec       q    Type
REMARK                         _______ _______ _______ _____ _____    ______ ____
ROOT
ATOM      1  C   UNL     1     -11.735  13.125  67.200  0.00  0.00    +0.012 C 
ENDROOT
BRANCH   1   2
ATOM      2  C   UNL     1     -10.405  13.810  67.353  0.00  0.00    +0.002 C 
BRANCH   2   3
ATOM      3  C   UNL     1     -10.512  15.299  67.061  0.00  0.00    +0.021 C 
BRANCH   3   5
ATOM      4  N   UNL     1     -10.692  16.293  64.907  0.00  0.00    -0.131 NA
ATOM      5  C   UNL     1      -9.747  15.594  65.775  0.00  0.00    +0.109 C 
ENDBRANCH   3   5
ENDBRANCH   2   3
ENDBRANCH   1   2
BRANCH   1   6
ATOM      6  C   UNL     1     -11.677  12.313  65.912  0.00  0.00    +0.114 C 
BRANCH   6   7
ATOM      7  C   UNL     1     -12.514  12.935  64.840  0.00  0.00    +0.365 C 
ATOM      8  O   UNL     1     -13.291  14.028  65.235  0.00  0.00    -0.246 OA
ATOM      9  O   UNL     1     -13.013  12.233  63.908  0.00  0.00    -0.246 OA
ENDBRANCH   6   7
ENDBRANCH   1   6
TORSDOF 5
ENDMDL
