MODEL 1
REMARK VINA RESULT:      -7.8      0.000      0.000
REMARK  Name = 
REMARK  4 active torsions:
REMARK  status: ('A' for Active; 'I' for Inactive)
REMARK    1  A    between atoms: C_6  and  N_7
REMARK    2  A    between atoms: N_7  and  C_9
REMARK    3  A    between atoms: N_14  and  C_15
REMARK    4  A    between atoms: C_20  and  S_21
REMARK                            x       y       z     vdW  Elec       q    Type
REMARK                         _______ _______ _______ _____ _____    ______ ____
ROOT
ATOM      1  C   UNL     1     -10.966  12.462  66.566  0.00  0.00    +0.140 A 
ATOM      2  N   UNL     1     -11.351  12.292  67.843  0.00  0.00    -0.197 NA
ATOM      3  C   UNL     1     -11.675  11.075  68.333  0.00  0.00    +0.242 A 
ATOM      4  N   UNL     1     -12.291  10.942  69.600  0.00  0.00    -0.178 NA
ATOM      5  N   UNL     1     -11.309   9.999  67.633  0.00  0.00    -0.211 NA
ATOM      6  C   UNL     1     -10.494  10.143  66.563  0.00  0.00    +0.105 A 
ATOM      7  C   UNL     1     -10.386  11.370  65.944  0.00  0.00    +0.055 A 
ENDROOT
BRANCH   4   8
ATOM      8  C   UNL     1     -11.862   9.933  70.507  0.00  0.00    +0.075 A 
ATOM      9  C   UNL     1     -10.526   9.817  70.864  0.00  0.00    +0.036 A 
ATOM     10  C   UNL     1     -10.208   8.760  71.697  0.00  0.00    +0.122 A 
ATOM     11  C   UNL     1     -11.177   8.110  72.425  0.00  0.00    -0.003 A 
ATOM     12  C   UNL     1     -10.867   6.956  73.294  0.00  0.00    +0.032 C 
ATOM     13  C   UNL     1     -12.502   8.480  72.305  0.00  0.00    -0.002 A 
ATOM     14  C   UNL     1     -12.795   9.485  71.419  0.00  0.00    +0.016 A 
BRANCH  10  15
ATOM     15  S   UNL     1      -8.541   8.301  72.028  0.00  0.00    +0.093 S 
ATOM     16  O   UNL     1      -8.396   6.872  71.611  0.00  0.00    -0.150 OA
ATOM     17  O   UNL     1      -8.242   8.476  73.501  0.00  0.00    -0.150 OA
ATOM     18  N   UNL     1      -7.516   9.313  71.066  0.00  0.00    +0.039 NA
ENDBRANCH  10  15
ENDBRANCH   4   8
BRANCH   1  19
ATOM     19  N   UNL     1     -11.365  13.619  65.833  0.00  0.00    -0.270 N 
ATOM     20  C   UNL     1     -12.791  13.861  65.744  0.00  0.00    +0.119 C 
BRANCH  19  28
ATOM     21  C   UNL     1      -8.266  18.258  68.535  0.00  0.00    +0.052 C 
ATOM     22  C   UNL     1      -8.933  18.110  67.204  0.00  0.00    +0.057 A 
ATOM     23  N   UNL     1      -9.944  18.907  66.783  0.00  0.00    -0.253 N 
ATOM     24  C   UNL     1     -10.443  20.090  67.477  0.00  0.00    +0.153 C 
ATOM     25  N   UNL     1     -10.491  18.365  65.695  0.00  0.00    -0.170 NA
ATOM     26  C   UNL     1     -10.159  17.053  65.629  0.00  0.00    +0.103 A 
ATOM     27  C   UNL     1     -10.813  15.908  65.187  0.00  0.00    +0.036 A 
ATOM     28  C   UNL     1     -10.405  14.650  65.611  0.00  0.00    +0.054 A 
ATOM     29  C   UNL     1      -9.105  14.567  66.078  0.00  0.00    +0.015 A 
ATOM     30  C   UNL     1      -8.457  15.698  66.560  0.00  0.00    +0.004 A 
ATOM     31  C   UNL     1      -9.031  16.955  66.435  0.00  0.00    +0.033 A 
ENDBRANCH  19  28
ENDBRANCH   1  19
TORSDOF 4
ENDMDL
MODEL 2
REMARK VINA RESULT:      -7.8      4.363      9.522
REMARK  Name = 
REMARK  4 active torsions:
REMARK  status: ('A' for Active; 'I' for Inactive)
REMARK    1  A    between atoms: C_6  and  N_7
REMARK    2  A    between atoms: N_7  and  C_9
REMARK    3  A    between atoms: N_14  and  C_15
REMARK    4  A    between atoms: C_20  and  S_21
REMARK                            x       y       z     vdW  Elec       q    Type
REMARK                         _______ _______ _______ _____ _____    ______ ____
ROOT
ATOM      1  C   UNL     1     -10.832  12.214  67.012  0.00  0.00    +0.140 A 
ATOM      2  N   UNL     1      -9.879  13.067  67.426  0.00  0.00    -0.197 NA
ATOM      3  C   UNL     1      -9.300  13.952  66.584  0.00  0.00    +0.242 A 
ATOM      4  N   UNL     1      -8.151  14.680  66.973  0.00  0.00    -0.178 NA
ATOM      5  N   UNL     1      -9.901  14.191  65.415  0.00  0.00    -0.211 NA
ATOM      6  C   UNL     1     -11.131  13.682  65.180  0.00  0.00    +0.105 A 
ATOM      7  C   UNL     1     -11.581  12.608  65.917  0.00  0.00    +0.055 A 
ENDROOT
BRANCH   4   8
ATOM      8  C   UNL     1      -8.046  16.069  66.682  0.00  0.00    +0.075 A 
ATOM      9  C   UNL     1      -9.055  16.951  67.047  0.00  0.00    +0.036 A 
ATOM     10  C   UNL     1      -8.883  18.267  66.656  0.00  0.00    +0.122 A 
ATOM     11  C   UNL     1      -7.649  18.743  66.282  0.00  0.00    -0.003 A 
ATOM     12  C   UNL     1      -7.447  20.135  65.826  0.00  0.00    +0.032 C 
ATOM     13  C   UNL     1      -6.556  17.899  66.252  0.00  0.00    -0.002 A 
ATOM     14  C   UNL     1      -6.771  16.584  66.578  0.00  0.00    +0.016 A 
BRANCH  10  15
ATOM     15  S   UNL     1     -10.174  19.456  66.789  0.00  0.00    +0.093 S 
ATOM     16  O   UNL     1     -11.271  18.815  67.578  0.00  0.00    -0.150 OA
ATOM     17  O   UNL     1     -10.650  19.854  65.409  0.00  0.00    -0.150 OA
ATOM     18  N   UNL     1      -9.542  20.824  67.643  0.00  0.00    +0.039 NA
ENDBRANCH  10  15
ENDBRANCH   4   8
BRANCH   1  19
ATOM     19  N   UNL     1     -10.888  10.882  67.520  0.00  0.00    -0.270 N 
ATOM     20  C   UNL     1     -10.460   9.833  66.616  0.00  0.00    +0.119 C 
BRANCH  19  28
ATOM     21  C   UNL     1     -11.977   6.726  71.989  0.00  0.00    +0.052 C 
ATOM     22  C   UNL     1     -12.344   8.167  71.817  0.00  0.00    +0.057 A 
ATOM     23  N   UNL     1     -13.623   8.613  71.792  0.00  0.00    -0.253 N 
ATOM     24  C   UNL     1     -14.813   7.809  72.057  0.00  0.00    +0.153 C 
ATOM     25  N   UNL     1     -13.627   9.876  71.366  0.00  0.00    -0.170 NA
ATOM     26  C   UNL     1     -12.464  10.138  70.721  0.00  0.00    +0.103 A 
ATOM     27  C   UNL     1     -12.117  10.926  69.629  0.00  0.00    +0.036 A 
ATOM     28  C   UNL     1     -10.938  10.692  68.932  0.00  0.00    +0.054 A 
ATOM     29  C   UNL     1      -9.961   9.998  69.623  0.00  0.00    +0.015 A 
ATOM     30  C   UNL     1     -10.302   9.177  70.691  0.00  0.00    +0.004 A 
ATOM     31  C   UNL     1     -11.597   9.157  71.189  0.00  0.00    +0.033 A 
ENDBRANCH  19  28
ENDBRANCH   1  19
TORSDOF 4
ENDMDL
MODEL 3
REMARK VINA RESULT:      -7.7      1.991      2.830
REMARK  Name = 
REMARK  4 active torsions:
REMARK  status: ('A' for Active; 'I' for Inactive)
REMARK    1  A    between atoms: C_6  and  N_7
REMARK    2  A    between atoms: N_7  and  C_9
REMARK    3  A    between atoms: N_14  and  C_15
REMARK    4  A    between atoms: C_20  and  S_21
REMARK                            x       y       z     vdW  Elec       q    Type
REMARK                         _______ _______ _______ _____ _____    ______ ____
ROOT
ATOM      1  C   UNL     1     -10.448  14.125  66.672  0.00  0.00    +0.140 A 
ATOM      2  N   UNL     1     -10.644  13.749  67.948  0.00  0.00    -0.197 NA
ATOM      3  C   UNL     1     -11.538  12.790  68.278  0.00  0.00    +0.242 A 
ATOM      4  N   UNL     1     -11.897  12.565  69.628  0.00  0.00    -0.178 NA
ATOM      5  N   UNL     1     -11.995  11.998  67.305  0.00  0.00    -0.211 NA
ATOM      6  C   UNL     1     -11.440  12.062  66.074  0.00  0.00    +0.105 A 
ATOM      7  C   UNL     1     -10.733  13.184  65.699  0.00  0.00    +0.055 A 
ENDROOT
BRANCH   4   8
ATOM      8  C   UNL     1     -12.004  11.239  70.133  0.00  0.00    +0.075 A 
ATOM      9  C   UNL     1     -10.967  10.329  69.971  0.00  0.00    +0.036 A 
ATOM     10  C   UNL     1     -11.202   9.049  70.439  0.00  0.00    +0.122 A 
ATOM     11  C   UNL     1     -12.215   8.793  71.334  0.00  0.00    -0.003 A 
ATOM     12  C   UNL     1     -12.509   7.429  71.821  0.00  0.00    +0.032 C 
ATOM     13  C   UNL     1     -13.047   9.812  71.754  0.00  0.00    -0.002 A 
ATOM     14  C   UNL     1     -12.833  11.057  71.220  0.00  0.00    +0.016 A 
BRANCH  10  15
ATOM     15  S   UNL     1     -10.120   7.709  70.077  0.00  0.00    +0.093 S 
ATOM     16  O   UNL     1     -10.944   6.660  69.401  0.00  0.00    -0.150 OA
ATOM     17  O   UNL     1      -9.505   7.185  71.356  0.00  0.00    -0.150 OA
ATOM     18  N   UNL     1      -8.898   8.297  69.000  0.00  0.00    +0.039 NA
ENDBRANCH  10  15
ENDBRANCH   4   8
BRANCH   1  19
ATOM     19  N   UNL     1     -10.202  15.492  66.346  0.00  0.00    -0.270 N 
ATOM     20  C   UNL     1     -10.777  15.968  65.104  0.00  0.00    +0.119 C 
BRANCH  19  28
ATOM     21  C   UNL     1      -7.114  20.726  67.570  0.00  0.00    +0.052 C 
ATOM     22  C   UNL     1      -7.194  19.399  68.257  0.00  0.00    +0.057 A 
ATOM     23  N   UNL     1      -6.118  18.605  68.472  0.00  0.00    -0.253 N 
ATOM     24  C   UNL     1      -4.728  18.959  68.203  0.00  0.00    +0.153 C 
ATOM     25  N   UNL     1      -6.545  17.401  68.855  0.00  0.00    -0.170 NA
ATOM     26  C   UNL     1      -7.844  17.250  68.500  0.00  0.00    +0.103 A 
ATOM     27  C   UNL     1      -8.613  16.174  68.071  0.00  0.00    +0.036 A 
ATOM     28  C   UNL     1      -9.805  16.382  67.388  0.00  0.00    +0.054 A 
ATOM     29  C   UNL     1     -10.390  17.622  67.567  0.00  0.00    +0.015 A 
ATOM     30  C   UNL     1      -9.623  18.713  67.957  0.00  0.00    +0.004 A 
ATOM     31  C   UNL     1      -8.295  18.554  68.330  0.00  0.00    +0.033 A 
ENDBRANCH  19  28
ENDBRANCH   1  19
TORSDOF 4
ENDMDL
MODEL 4
REMARK VINA RESULT:      -7.6      2.160      2.699
REMARK  Name = 
REMARK  4 active torsions:
REMARK  status: ('A' for Active; 'I' for Inactive)
REMARK    1  A    between atoms: C_6  and  N_7
REMARK    2  A    between atoms: N_7  and  C_9
REMARK    3  A    between atoms: N_14  and  C_15
REMARK    4  A    between atoms: C_20  and  S_21
REMARK                            x       y       z     vdW  Elec       q    Type
REMARK                         _______ _______ _______ _____ _____    ______ ____
ROOT
ATOM      1  C   UNL     1     -10.411  14.145  67.781  0.00  0.00    +0.140 A 
ATOM      2  N   UNL     1     -10.679  13.578  68.970  0.00  0.00    -0.197 NA
ATOM      3  C   UNL     1     -11.600  12.597  69.100  0.00  0.00    +0.242 A 
ATOM      4  N   UNL     1     -12.031  12.170  70.378  0.00  0.00    -0.178 NA
ATOM      5  N   UNL     1     -12.015  11.976  67.993  0.00  0.00    -0.211 NA
ATOM      6  C   UNL     1     -11.396  12.222  66.816  0.00  0.00    +0.105 A 
ATOM      7  C   UNL     1     -10.657  13.374  66.658  0.00  0.00    +0.055 A 
ENDROOT
BRANCH   4   8
ATOM      8  C   UNL     1     -12.181  10.783  70.662  0.00  0.00    +0.075 A 
ATOM      9  C   UNL     1     -11.160   9.885  70.382  0.00  0.00    +0.036 A 
ATOM     10  C   UNL     1     -11.436   8.553  70.633  0.00  0.00    +0.122 A 
ATOM     11  C   UNL     1     -12.478   8.184  71.450  0.00  0.00    -0.003 A 
ATOM     12  C   UNL     1     -12.815   6.767  71.705  0.00  0.00    +0.032 C 
ATOM     13  C   UNL     1     -13.299   9.143  72.008  0.00  0.00    -0.002 A 
ATOM     14  C   UNL     1     -13.044  10.452  71.685  0.00  0.00    +0.016 A 
BRANCH  10  15
ATOM     15  S   UNL     1     -10.373   7.261  70.087  0.00  0.00    +0.093 S 
ATOM     16  O   UNL     1     -11.200   6.354  69.232  0.00  0.00    -0.150 OA
ATOM     17  O   UNL     1      -9.804   6.524  71.280  0.00  0.00    -0.150 OA
ATOM     18  N   UNL     1      -9.108   7.982  69.147  0.00  0.00    +0.039 NA
ENDBRANCH  10  15
ENDBRANCH   4   8
BRANCH   1  19
ATOM     19  N   UNL     1     -10.132  15.541  67.687  0.00  0.00    -0.270 N 
ATOM     20  C   UNL     1     -11.195  16.436  68.096  0.00  0.00    +0.119 C 
BRANCH  19  28
ATOM     21  C   UNL     1      -6.383  20.471  67.943  0.00  0.00    +0.052 C 
ATOM     22  C   UNL     1      -6.415  19.252  67.075  0.00  0.00    +0.057 A 
ATOM     23  N   UNL     1      -6.538  19.300  65.727  0.00  0.00    -0.253 N 
ATOM     24  C   UNL     1      -6.521  20.509  64.910  0.00  0.00    +0.153 C 
ATOM     25  N   UNL     1      -6.800  18.072  65.278  0.00  0.00    -0.170 NA
ATOM     26  C   UNL     1      -7.262  17.308  66.298  0.00  0.00    +0.103 A 
ATOM     27  C   UNL     1      -8.197  16.284  66.395  0.00  0.00    +0.036 A 
ATOM     28  C   UNL     1      -8.770  15.961  67.619  0.00  0.00    +0.054 A 
ATOM     29  C   UNL     1      -8.059  16.357  68.737  0.00  0.00    +0.015 A 
ATOM     30  C   UNL     1      -7.152  17.407  68.660  0.00  0.00    +0.004 A 
ATOM     31  C   UNL     1      -6.819  17.972  67.436  0.00  0.00    +0.033 A 
ENDBRANCH  19  28
ENDBRANCH   1  19
TORSDOF 4
ENDMDL
MODEL 5
REMARK VINA RESULT:      -7.6      4.439      9.449
REMARK  Name = 
REMARK  4 active torsions:
REMARK  status: ('A' for Active; 'I' for Inactive)
REMARK    1  A    between atoms: C_6  and  N_7
REMARK    2  A    between atoms: N_7  and  C_9
REMARK    3  A    between atoms: N_14  and  C_15
REMARK    4  A    between atoms: C_20  and  S_21
REMARK                            x       y       z     vdW  Elec       q    Type
REMARK                         _______ _______ _______ _____ _____    ______ ____
ROOT
ATOM      1  C   UNL     1     -10.754  12.240  67.275  0.00  0.00    +0.140 A 
ATOM      2  N   UNL     1     -10.254  13.252  68.007  0.00  0.00    -0.197 NA
ATOM      3  C   UNL     1      -9.629  14.304  67.433  0.00  0.00    +0.242 A 
ATOM      4  N   UNL     1      -8.915  15.240  68.218  0.00  0.00    -0.178 NA
ATOM      5  N   UNL     1      -9.789  14.489  66.121  0.00  0.00    -0.211 NA
ATOM      6  C   UNL     1     -10.685  13.736  65.443  0.00  0.00    +0.105 A 
ATOM      7  C   UNL     1     -11.111  12.537  65.972  0.00  0.00    +0.055 A 
ENDROOT
BRANCH   4   8
ATOM      8  C   UNL     1      -9.040  16.636  67.966  0.00  0.00    +0.075 A 
ATOM      9  C   UNL     1      -8.029  17.337  67.322  0.00  0.00    +0.036 A 
ATOM     10  C   UNL     1      -8.223  18.700  67.190  0.00  0.00    +0.122 A 
ATOM     11  C   UNL     1      -9.472  19.257  67.329  0.00  0.00    -0.003 A 
ATOM     12  C   UNL     1      -9.699  20.714  67.227  0.00  0.00    +0.032 C 
ATOM     13  C   UNL     1     -10.557  18.465  67.645  0.00  0.00    -0.002 A 
ATOM     14  C   UNL     1     -10.322  17.127  67.839  0.00  0.00    +0.016 A 
BRANCH  10  15
ATOM     15  S   UNL     1      -6.939  19.777  66.653  0.00  0.00    +0.093 S 
ATOM     16  O   UNL     1      -5.645  19.086  66.944  0.00  0.00    -0.150 OA
ATOM     17  O   UNL     1      -7.035  21.097  67.387  0.00  0.00    -0.150 OA
ATOM     18  N   UNL     1      -7.125  20.007  64.946  0.00  0.00    +0.039 NA
ENDBRANCH  10  15
ENDBRANCH   4   8
BRANCH   1  19
ATOM     19  N   UNL     1     -10.680  10.896  67.746  0.00  0.00    -0.270 N 
ATOM     20  C   UNL     1     -10.061   9.937  66.852  0.00  0.00    +0.119 C 
BRANCH  19  28
ATOM     21  C   UNL     1     -11.995   6.578  71.995  0.00  0.00    +0.052 C 
ATOM     22  C   UNL     1     -12.359   8.022  71.855  0.00  0.00    +0.057 A 
ATOM     23  N   UNL     1     -13.637   8.465  71.775  0.00  0.00    -0.253 N 
ATOM     24  C   UNL     1     -14.835   7.649  71.944  0.00  0.00    +0.153 C 
ATOM     25  N   UNL     1     -13.623   9.742  71.395  0.00  0.00    -0.170 NA
ATOM     26  C   UNL     1     -12.428  10.031  70.825  0.00  0.00    +0.103 A 
ATOM     27  C   UNL     1     -12.025  10.859  69.784  0.00  0.00    +0.036 A 
ATOM     28  C   UNL     1     -10.808  10.655  69.146  0.00  0.00    +0.054 A 
ATOM     29  C   UNL     1      -9.867   9.939  69.865  0.00  0.00    +0.015 A 
ATOM     30  C   UNL     1     -10.262   9.078  70.881  0.00  0.00    +0.004 A 
ATOM     31  C   UNL     1     -11.583   9.037  71.306  0.00  0.00    +0.033 A 
ENDBRANCH  19  28
ENDBRANCH   1  19
TORSDOF 4
ENDMDL
MODEL 6
REMARK VINA RESULT:      -7.5      4.213      6.355
REMARK  Name = 
REMARK  4 active torsions:
REMARK  status: ('A' for Active; 'I' for Inactive)
REMARK    1  A    between atoms: C_6  and  N_7
REMARK    2  A    between atoms: N_7  and  C_9
REMARK    3  A    between atoms: N_14  and  C_15
REMARK    4  A    between atoms: C_20  and  S_21
REMARK                            x       y       z     vdW  Elec       q    Type
REMARK                         _______ _______ _______ _____ _____    ______ ____
ROOT
ATOM      1  C   UNL     1      -8.909  18.282  67.705  0.00  0.00    +0.140 A 
ATOM      2  N   UNL     1     -10.051  17.576  67.781  0.00  0.00    -0.197 NA
ATOM      3  C   UNL     1     -10.052  16.251  68.052  0.00  0.00    +0.242 A 
ATOM      4  N   UNL     1     -11.230  15.481  67.907  0.00  0.00    -0.178 NA
ATOM      5  N   UNL     1      -8.938  15.713  68.554  0.00  0.00    -0.211 NA
ATOM      6  C   UNL     1      -7.917  16.517  68.929  0.00  0.00    +0.105 A 
ATOM      7  C   UNL     1      -7.832  17.797  68.425  0.00  0.00    +0.055 A 
ENDROOT
BRANCH   4   8
ATOM      8  C   UNL     1     -11.592  14.526  68.897  0.00  0.00    +0.075 A 
ATOM      9  C   UNL     1     -12.478  14.855  69.914  0.00  0.00    +0.036 A 
ATOM     10  C   UNL     1     -12.708  13.874  70.862  0.00  0.00    +0.122 A 
ATOM     11  C   UNL     1     -12.396  12.558  70.614  0.00  0.00    -0.003 A 
ATOM     12  C   UNL     1     -12.599  11.497  71.624  0.00  0.00    +0.032 C 
ATOM     13  C   UNL     1     -11.807  12.195  69.419  0.00  0.00    -0.002 A 
ATOM     14  C   UNL     1     -11.528  13.199  68.527  0.00  0.00    +0.016 A 
BRANCH  10  15
ATOM     15  S   UNL     1     -13.578  14.205  72.356  0.00  0.00    +0.093 S 
ATOM     16  O   UNL     1     -12.559  14.245  73.449  0.00  0.00    -0.150 OA
ATOM     17  O   UNL     1     -14.606  13.122  72.603  0.00  0.00    -0.150 OA
ATOM     18  N   UNL     1     -14.340  15.751  72.189  0.00  0.00    +0.039 NA
ENDBRANCH  10  15
ENDBRANCH   4   8
BRANCH   1  19
ATOM     19  N   UNL     1      -8.759  19.322  66.740  0.00  0.00    -0.270 N 
ATOM     20  C   UNL     1      -9.978  19.980  66.313  0.00  0.00    +0.119 C 
BRANCH  19  28
ATOM     21  C   UNL     1      -2.689  18.531  67.719  0.00  0.00    +0.052 C 
ATOM     22  C   UNL     1      -3.606  19.704  67.865  0.00  0.00    +0.057 A 
ATOM     23  N   UNL     1      -3.805  20.354  69.037  0.00  0.00    -0.253 N 
ATOM     24  C   UNL     1      -3.078  20.114  70.280  0.00  0.00    +0.153 C 
ATOM     25  N   UNL     1      -4.856  21.163  68.904  0.00  0.00    -0.170 NA
ATOM     26  C   UNL     1      -5.599  20.766  67.843  0.00  0.00    +0.103 A 
ATOM     27  C   UNL     1      -6.961  20.755  67.563  0.00  0.00    +0.036 A 
ATOM     28  C   UNL     1      -7.475  19.922  66.577  0.00  0.00    +0.054 A 
ATOM     29  C   UNL     1      -6.570  19.490  65.625  0.00  0.00    +0.015 A 
ATOM     30  C   UNL     1      -5.210  19.460  65.909  0.00  0.00    +0.004 A 
ATOM     31  C   UNL     1      -4.715  20.009  67.084  0.00  0.00    +0.033 A 
ENDBRANCH  19  28
ENDBRANCH   1  19
TORSDOF 4
ENDMDL
MODEL 7
REMARK VINA RESULT:      -7.5      4.462      9.561
REMARK  Name = 
REMARK  4 active torsions:
REMARK  status: ('A' for Active; 'I' for Inactive)
REMARK    1  A    between atoms: C_6  and  N_7
REMARK    2  A    between atoms: N_7  and  C_9
REMARK    3  A    between atoms: N_14  and  C_15
REMARK    4  A    between atoms: C_20  and  S_21
REMARK                            x       y       z     vdW  Elec       q    Type
REMARK                         _______ _______ _______ _____ _____    ______ ____
ROOT
ATOM      1  C   UNL     1     -10.912  13.776  68.612  0.00  0.00    +0.140 A 
ATOM      2  N   UNL     1      -9.686  14.229  68.297  0.00  0.00    -0.197 NA
ATOM      3  C   UNL     1      -9.502  15.433  67.710  0.00  0.00    +0.242 A 
ATOM      4  N   UNL     1      -8.241  15.797  67.180  0.00  0.00    -0.178 NA
ATOM      5  N   UNL     1     -10.514  16.304  67.733  0.00  0.00    -0.211 NA
ATOM      6  C   UNL     1     -11.613  16.032  68.471  0.00  0.00    +0.105 A 
ATOM      7  C   UNL     1     -11.885  14.732  68.843  0.00  0.00    +0.055 A 
ENDROOT
BRANCH   4   8
ATOM      8  C   UNL     1      -7.715  17.101  67.404  0.00  0.00    +0.075 A 
ATOM      9  C   UNL     1      -6.818  17.339  68.437  0.00  0.00    +0.036 A 
ATOM     10  C   UNL     1      -6.424  18.654  68.608  0.00  0.00    +0.122 A 
ATOM     11  C   UNL     1      -6.593  19.584  67.610  0.00  0.00    -0.003 A 
ATOM     12  C   UNL     1      -6.213  21.002  67.782  0.00  0.00    +0.032 C 
ATOM     13  C   UNL     1      -7.202  19.228  66.423  0.00  0.00    -0.002 A 
ATOM     14  C   UNL     1      -7.645  17.935  66.308  0.00  0.00    +0.016 A 
BRANCH  10  15
ATOM     15  S   UNL     1      -5.517  19.179  70.022  0.00  0.00    +0.093 S 
ATOM     16  O   UNL     1      -6.365  20.189  70.728  0.00  0.00    -0.150 OA
ATOM     17  O   UNL     1      -4.195  19.777  69.592  0.00  0.00    -0.150 OA
ATOM     18  N   UNL     1      -5.268  17.794  71.032  0.00  0.00    +0.039 NA
ENDBRANCH  10  15
ENDBRANCH   4   8
BRANCH   1  19
ATOM     19  N   UNL     1     -11.237  12.394  68.469  0.00  0.00    -0.270 N 
ATOM     20  C   UNL     1     -11.320  11.893  67.112  0.00  0.00    +0.119 C 
BRANCH  19  28
ATOM     21  C   UNL     1     -11.927   6.573  70.483  0.00  0.00    +0.052 C 
ATOM     22  C   UNL     1     -12.161   7.909  71.113  0.00  0.00    +0.057 A 
ATOM     23  N   UNL     1     -13.367   8.313  71.581  0.00  0.00    -0.253 N 
ATOM     24  C   UNL     1     -14.568   7.487  71.671  0.00  0.00    +0.153 C 
ATOM     25  N   UNL     1     -13.313   9.621  71.831  0.00  0.00    -0.170 NA
ATOM     26  C   UNL     1     -12.267  10.165  71.162  0.00  0.00    +0.103 A 
ATOM     27  C   UNL     1     -12.044  11.389  70.543  0.00  0.00    +0.036 A 
ATOM     28  C   UNL     1     -11.046  11.529  69.587  0.00  0.00    +0.054 A 
ATOM     29  C   UNL     1     -10.039  10.581  69.628  0.00  0.00    +0.015 A 
ATOM     30  C   UNL     1     -10.265   9.339  70.209  0.00  0.00    +0.004 A 
ATOM     31  C   UNL     1     -11.440   9.079  70.900  0.00  0.00    +0.033 A 
ENDBRANCH  19  28
ENDBRANCH   1  19
TORSDOF 4
ENDMDL
MODEL 8
REMARK VINA RESULT:      -7.4      4.765      8.667
REMARK  Name = 
REMARK  4 active torsions:
REMARK  status: ('A' for Active; 'I' for Inactive)
REMARK    1  A    between atoms: C_6  and  N_7
REMARK    2  A    between atoms: N_7  and  C_9
REMARK    3  A    between atoms: N_14  and  C_15
REMARK    4  A    between atoms: C_20  and  S_21
REMARK                            x       y       z     vdW  Elec       q    Type
REMARK                         _______ _______ _______ _____ _____    ______ ____
ROOT
ATOM      1  C   UNL     1     -11.169  14.771  66.374  0.00  0.00    +0.140 A 
ATOM      2  N   UNL     1     -10.140  15.563  66.024  0.00  0.00    -0.197 NA
ATOM      3  C   UNL     1      -9.942  16.769  66.603  0.00  0.00    +0.242 A 
ATOM      4  N   UNL     1      -9.000  17.682  66.073  0.00  0.00    -0.178 NA
ATOM      5  N   UNL     1     -10.587  17.032  67.741  0.00  0.00    -0.211 NA
ATOM      6  C   UNL     1     -11.275  16.048  68.363  0.00  0.00    +0.105 A 
ATOM      7  C   UNL     1     -11.667  14.933  67.654  0.00  0.00    +0.055 A 
ENDROOT
BRANCH   4   8
ATOM      8  C   UNL     1      -8.124  18.396  66.938  0.00  0.00    +0.075 A 
ATOM      9  C   UNL     1      -7.130  17.736  67.648  0.00  0.00    +0.036 A 
ATOM     10  C   UNL     1      -6.381  18.514  68.512  0.00  0.00    +0.122 A 
ATOM     11  C   UNL     1      -6.354  19.884  68.394  0.00  0.00    -0.003 A 
ATOM     12  C   UNL     1      -5.589  20.740  69.326  0.00  0.00    +0.032 C 
ATOM     13  C   UNL     1      -7.114  20.515  67.429  0.00  0.00    -0.002 A 
ATOM     14  C   UNL     1      -7.901  19.722  66.633  0.00  0.00    +0.016 A 
BRANCH  10  15
ATOM     15  S   UNL     1      -5.274  17.807  69.683  0.00  0.00    +0.093 S 
ATOM     16  O   UNL     1      -5.624  16.357  69.786  0.00  0.00    -0.150 OA
ATOM     17  O   UNL     1      -5.423  18.505  71.018  0.00  0.00    -0.150 OA
ATOM     18  N   UNL     1      -3.666  17.994  69.066  0.00  0.00    +0.039 NA
ENDBRANCH  10  15
ENDBRANCH   4   8
BRANCH   1  19
ATOM     19  N   UNL     1     -11.855  13.995  65.394  0.00  0.00    -0.270 N 
ATOM     20  C   UNL     1     -12.402  14.723  64.267  0.00  0.00    +0.119 C 
BRANCH  19  28
ATOM     21  C   UNL     1      -7.438   9.654  65.676  0.00  0.00    +0.052 C 
ATOM     22  C   UNL     1      -8.649   9.829  64.815  0.00  0.00    +0.057 A 
ATOM     23  N   UNL     1      -8.597   9.927  63.465  0.00  0.00    -0.253 N 
ATOM     24  C   UNL     1      -7.404   9.746  62.642  0.00  0.00    +0.153 C 
ATOM     25  N   UNL     1      -9.784  10.337  63.019  0.00  0.00    -0.170 NA
ATOM     26  C   UNL     1     -10.476  10.906  64.036  0.00  0.00    +0.103 A 
ATOM     27  C   UNL     1     -11.373  11.964  64.126  0.00  0.00    +0.036 A 
ATOM     28  C   UNL     1     -11.612  12.590  65.343  0.00  0.00    +0.054 A 
ATOM     29  C   UNL     1     -11.300  11.850  66.469  0.00  0.00    +0.015 A 
ATOM     30  C   UNL     1     -10.375  10.815  66.399  0.00  0.00    +0.004 A 
ATOM     31  C   UNL     1      -9.865  10.397  65.177  0.00  0.00    +0.033 A 
ENDBRANCH  19  28
ENDBRANCH   1  19
TORSDOF 4
ENDMDL
MODEL 9
REMARK VINA RESULT:      -7.4      4.140      9.768
REMARK  Name = 
REMARK  4 active torsions:
REMARK  status: ('A' for Active; 'I' for Inactive)
REMARK    1  A    between atoms: C_6  and  N_7
REMARK    2  A    between atoms: N_7  and  C_9
REMARK    3  A    between atoms: N_14  and  C_15
REMARK    4  A    between atoms: C_20  and  S_21
REMARK                            x       y       z     vdW  Elec       q    Type
REMARK                         _______ _______ _______ _____ _____    ______ ____
ROOT
ATOM      1  C   UNL     1     -11.891   9.206  70.627  0.00  0.00    +0.140 A 
ATOM      2  N   UNL     1     -12.291  10.455  70.329  0.00  0.00    -0.197 NA
ATOM      3  C   UNL     1     -11.443  11.366  69.800  0.00  0.00    +0.242 A 
ATOM      4  N   UNL     1     -11.811  12.729  69.704  0.00  0.00    -0.178 NA
ATOM      5  N   UNL     1     -10.294  10.927  69.282  0.00  0.00    -0.211 NA
ATOM      6  C   UNL     1     -10.085   9.597  69.150  0.00  0.00    +0.105 A 
ATOM      7  C   UNL     1     -10.821   8.709  69.904  0.00  0.00    +0.055 A 
ENDROOT
BRANCH   4   8
ATOM      8  C   UNL     1     -11.534  13.468  68.519  0.00  0.00    +0.075 A 
ATOM      9  C   UNL     1     -12.110  13.112  67.307  0.00  0.00    +0.036 A 
ATOM     10  C   UNL     1     -11.720  13.854  66.207  0.00  0.00    +0.122 A 
ATOM     11  C   UNL     1     -11.117  15.081  66.354  0.00  0.00    -0.003 A 
ATOM     12  C   UNL     1     -10.659  15.877  65.195  0.00  0.00    +0.032 C 
ATOM     13  C   UNL     1     -10.853  15.581  67.613  0.00  0.00    -0.002 A 
ATOM     14  C   UNL     1     -11.188  14.792  68.684  0.00  0.00    +0.016 A 
BRANCH  10  15
ATOM     15  S   UNL     1     -12.132  13.375  64.564  0.00  0.00    +0.093 S 
ATOM     16  O   UNL     1     -12.569  14.615  63.851  0.00  0.00    -0.150 OA
ATOM     17  O   UNL     1     -13.235  12.340  64.592  0.00  0.00    -0.150 OA
ATOM     18  N   UNL     1     -10.702  12.733  63.829  0.00  0.00    +0.039 NA
ENDBRANCH  10  15
ENDBRANCH   4   8
BRANCH   1  19
ATOM     19  N   UNL     1     -12.385   8.541  71.788  0.00  0.00    -0.270 N 
ATOM     20  C   UNL     1     -13.800   8.692  72.060  0.00  0.00    +0.119 C 
BRANCH  19  28
ATOM     21  C   UNL     1      -6.874   5.708  71.610  0.00  0.00    +0.052 C 
ATOM     22  C   UNL     1      -8.280   5.208  71.705  0.00  0.00    +0.057 A 
ATOM     23  N   UNL     1      -8.840   4.378  70.792  0.00  0.00    -0.253 N 
ATOM     24  C   UNL     1      -8.146   3.745  69.674  0.00  0.00    +0.153 C 
ATOM     25  N   UNL     1     -10.155   4.331  71.007  0.00  0.00    -0.170 NA
ATOM     26  C   UNL     1     -10.530   5.403  71.745  0.00  0.00    +0.103 A 
ATOM     27  C   UNL     1     -11.663   6.208  71.780  0.00  0.00    +0.036 A 
ATOM     28  C   UNL     1     -11.615   7.476  72.344  0.00  0.00    +0.054 A 
ATOM     29  C   UNL     1     -10.583   7.696  73.239  0.00  0.00    +0.015 A 
ATOM     30  C   UNL     1      -9.429   6.923  73.187  0.00  0.00    +0.004 A 
ATOM     31  C   UNL     1      -9.349   5.818  72.351  0.00  0.00    +0.033 A 
ENDBRANCH  19  28
ENDBRANCH   1  19
TORSDOF 4
ENDMDL
