MODEL 1
REMARK VINA RESULT:      -7.2      0.000      0.000
REMARK  Name = 
REMARK  7 active torsions:
REMARK  status: ('A' for Active; 'I' for Inactive)
REMARK    1  A    between atoms: C_3  and  N_4
REMARK    2  A    between atoms: C_5  and  C_7
REMARK    3  A    between atoms: C_7  and  C_16
REMARK    4  A    between atoms: N_8  and  O_9
REMARK    5  A    between atoms: O_9  and  C_10
REMARK    6  A    between atoms: C_10  and  C_13
REMARK    7  A    between atoms: N_24  and  S_25
REMARK                            x       y       z     vdW  Elec       q    Type
REMARK                         _______ _______ _______ _____ _____    ______ ____
ROOT
ATOM      1  C   UNL     1     -10.708  15.215  68.752  0.00  0.00    +0.192 C 
ATOM      2  N   UNL     1     -11.133  14.524  67.736  0.00  0.00    -0.076 NA
ENDROOT
BRANCH   1   3
ATOM      3  C   UNL     1     -11.535  15.086  69.964  0.00  0.00    +0.115 A 
ATOM      4  N   UNL     1     -11.169  15.534  71.162  0.00  0.00    -0.220 NA
ATOM      5  C   UNL     1     -12.199  15.809  71.974  0.00  0.00    +0.201 A 
ATOM      6  N   UNL     1     -12.117  16.500  73.228  0.00  0.00    -0.100 NA
ATOM      7  S   UNL     1     -13.369  14.676  71.437  0.00  0.00    -0.048 S 
ATOM      8  C   UNL     1     -12.511  14.098  70.064  0.00  0.00    +0.059 A 
ENDBRANCH   1   3
BRANCH   1  10
ATOM      9  N   UNL     1      -8.851  16.935  68.629  0.00  0.00    -0.191 NA
ATOM     10  C   UNL     1     -10.222  16.564  68.417  0.00  0.00    +0.288 C 
ATOM     11  O   UNL     1     -11.139  17.397  68.248  0.00  0.00    -0.267 OA
BRANCH   9  17
ATOM     12  C   UNL     1      -6.781  20.027  68.330  0.00  0.00    +0.026 C 
ATOM     13  C   UNL     1      -7.061  18.499  68.921  0.00  0.00    +0.130 C 
ATOM     14  N   UNL     1      -6.796  17.826  67.522  0.00  0.00    -0.136 N 
ATOM     15  C   UNL     1      -7.973  18.255  66.913  0.00  0.00    +0.267 C 
ATOM     16  O   UNL     1      -8.148  18.950  65.861  0.00  0.00    -0.271 OA
ATOM     17  C   UNL     1      -8.697  18.502  68.345  0.00  0.00    +0.193 C 
BRANCH  14  18
ATOM     18  S   UNL     1      -5.408  16.943  67.108  0.00  0.00    +0.200 S 
ATOM     19  O   UNL     1      -5.809  15.309  67.277  0.00  0.00    -0.029 OA
ATOM     20  O   UNL     1      -4.319  17.326  68.044  0.00  0.00    -0.124 OA
ATOM     21  O   UNL     1      -5.024  17.268  65.695  0.00  0.00    -0.124 OA
ENDBRANCH  14  18
ENDBRANCH   9  17
ENDBRANCH   1  10
BRANCH   2  22
ATOM     22  O   UNL     1     -10.440  14.523  66.567  0.00  0.00    -0.374 OA
BRANCH  22  23
ATOM     23  C   UNL     1     -11.173  14.433  65.349  0.00  0.00    +0.253 C 
ATOM     24  C   UNL     1     -10.521  13.326  64.536  0.00  0.00    +0.058 C 
ATOM     25  C   UNL     1     -12.588  14.035  65.711  0.00  0.00    +0.058 C 
BRANCH  23  26
ATOM     26  C   UNL     1     -11.189  15.711  64.606  0.00  0.00    +0.403 C 
ATOM     27  O   UNL     1     -12.272  16.131  63.833  0.00  0.00    -0.242 OA
ATOM     28  O   UNL     1     -10.425  16.636  65.017  0.00  0.00    -0.242 OA
ENDBRANCH  23  26
ENDBRANCH  22  23
ENDBRANCH   2  22
TORSDOF 7
ENDMDL
MODEL 2
REMARK VINA RESULT:      -7.2      1.638      2.294
REMARK  Name = 
REMARK  7 active torsions:
REMARK  status: ('A' for Active; 'I' for Inactive)
REMARK    1  A    between atoms: C_3  and  N_4
REMARK    2  A    between atoms: C_5  and  C_7
REMARK    3  A    between atoms: C_7  and  C_16
REMARK    4  A    between atoms: N_8  and  O_9
REMARK    5  A    between atoms: O_9  and  C_10
REMARK    6  A    between atoms: C_10  and  C_13
REMARK    7  A    between atoms: N_24  and  S_25
REMARK                            x       y       z     vdW  Elec       q    Type
REMARK                         _______ _______ _______ _____ _____    ______ ____
ROOT
ATOM      1  C   UNL     1     -10.797  14.900  69.756  0.00  0.00    +0.192 C 
ATOM      2  N   UNL     1     -10.616  13.838  69.027  0.00  0.00    -0.076 NA
ENDROOT
BRANCH   1   3
ATOM      3  C   UNL     1     -11.712  14.707  70.894  0.00  0.00    +0.115 A 
ATOM      4  N   UNL     1     -11.522  15.244  72.097  0.00  0.00    -0.220 NA
ATOM      5  C   UNL     1     -12.651  15.411  72.799  0.00  0.00    +0.201 A 
ATOM      6  N   UNL     1     -12.778  16.152  74.019  0.00  0.00    -0.100 NA
ATOM      7  S   UNL     1     -13.610  14.114  72.215  0.00  0.00    -0.048 S 
ATOM      8  C   UNL     1     -12.559  13.604  70.955  0.00  0.00    +0.059 A 
ENDBRANCH   1   3
BRANCH   1  10
ATOM      9  N   UNL     1      -9.833  17.063  68.853  0.00  0.00    -0.191 NA
ATOM     10  C   UNL     1     -10.935  16.152  68.993  0.00  0.00    +0.288 C 
ATOM     11  O   UNL     1     -12.123  16.474  68.774  0.00  0.00    -0.267 OA
BRANCH   9  17
ATOM     12  C   UNL     1      -9.237  20.370  67.228  0.00  0.00    +0.026 C 
ATOM     13  C   UNL     1      -8.797  19.135  68.250  0.00  0.00    +0.130 C 
ATOM     14  N   UNL     1      -8.485  18.156  67.056  0.00  0.00    -0.136 N 
ATOM     15  C   UNL     1      -9.808  17.931  66.684  0.00  0.00    +0.267 C 
ATOM     16  O   UNL     1     -10.392  18.124  65.571  0.00  0.00    -0.271 OA
ATOM     17  C   UNL     1     -10.361  18.394  68.140  0.00  0.00    +0.193 C 
BRANCH  14  18
ATOM     18  S   UNL     1      -6.933  17.703  66.542  0.00  0.00    +0.200 S 
ATOM     19  O   UNL     1      -6.709  18.399  65.017  0.00  0.00    -0.029 OA
ATOM     20  O   UNL     1      -6.885  16.219  66.465  0.00  0.00    -0.124 OA
ATOM     21  O   UNL     1      -5.923  18.210  67.528  0.00  0.00    -0.124 OA
ENDBRANCH  14  18
ENDBRANCH   9  17
ENDBRANCH   1  10
BRANCH   2  22
ATOM     22  O   UNL     1      -9.765  13.867  67.969  0.00  0.00    -0.374 OA
BRANCH  22  23
ATOM     23  C   UNL     1     -10.240  13.405  66.708  0.00  0.00    +0.253 C 
ATOM     24  C   UNL     1      -9.876  14.476  65.693  0.00  0.00    +0.058 C 
ATOM     25  C   UNL     1      -9.493  12.126  66.394  0.00  0.00    +0.058 C 
BRANCH  23  26
ATOM     26  C   UNL     1     -11.695  13.142  66.717  0.00  0.00    +0.403 C 
ATOM     27  O   UNL     1     -12.639  14.057  66.248  0.00  0.00    -0.242 OA
ATOM     28  O   UNL     1     -12.072  11.931  66.726  0.00  0.00    -0.242 OA
ENDBRANCH  23  26
ENDBRANCH  22  23
ENDBRANCH   2  22
TORSDOF 7
ENDMDL
MODEL 3
REMARK VINA RESULT:      -6.8      2.769      5.521
REMARK  Name = 
REMARK  7 active torsions:
REMARK  status: ('A' for Active; 'I' for Inactive)
REMARK    1  A    between atoms: C_3  and  N_4
REMARK    2  A    between atoms: C_5  and  C_7
REMARK    3  A    between atoms: C_7  and  C_16
REMARK    4  A    between atoms: N_8  and  O_9
REMARK    5  A    between atoms: O_9  and  C_10
REMARK    6  A    between atoms: C_10  and  C_13
REMARK    7  A    between atoms: N_24  and  S_25
REMARK                            x       y       z     vdW  Elec       q    Type
REMARK                         _______ _______ _______ _____ _____    ______ ____
ROOT
ATOM      1  C   UNL     1     -11.758  15.757  69.413  0.00  0.00    +0.192 C 
ATOM      2  N   UNL     1     -11.225  16.914  69.151  0.00  0.00    -0.076 NA
ENDROOT
BRANCH   1   3
ATOM      3  C   UNL     1     -12.375  15.659  70.747  0.00  0.00    +0.115 A 
ATOM      4  N   UNL     1     -11.734  15.932  71.881  0.00  0.00    -0.220 NA
ATOM      5  C   UNL     1     -12.543  16.301  72.884  0.00  0.00    +0.201 A 
ATOM      6  N   UNL     1     -12.125  16.854  74.139  0.00  0.00    -0.100 NA
ATOM      7  S   UNL     1     -13.973  15.432  72.507  0.00  0.00    -0.048 S 
ATOM      8  C   UNL     1     -13.481  14.843  70.969  0.00  0.00    +0.059 A 
ENDBRANCH   1   3
BRANCH   1  10
ATOM      9  N   UNL     1     -11.581  13.520  68.236  0.00  0.00    -0.191 NA
ATOM     10  C   UNL     1     -10.969  14.600  68.957  0.00  0.00    +0.288 C 
ATOM     11  O   UNL     1      -9.852  14.508  69.513  0.00  0.00    -0.267 OA
BRANCH   9  17
ATOM     12  C   UNL     1     -10.336  10.438  66.538  0.00  0.00    +0.026 C 
ATOM     13  C   UNL     1     -11.554  11.475  66.991  0.00  0.00    +0.130 C 
ATOM     14  N   UNL     1     -11.092  12.584  65.972  0.00  0.00    -0.136 N 
ATOM     15  C   UNL     1      -9.944  12.967  66.663  0.00  0.00    +0.267 C 
ATOM     16  O   UNL     1      -8.728  12.983  66.290  0.00  0.00    -0.271 OA
ATOM     17  C   UNL     1     -10.503  12.351  68.057  0.00  0.00    +0.193 C 
BRANCH  14  18
ATOM     18  S   UNL     1     -11.886  12.974  64.524  0.00  0.00    +0.200 S 
ATOM     19  O   UNL     1     -11.999  14.661  64.477  0.00  0.00    -0.029 OA
ATOM     20  O   UNL     1     -13.234  12.348  64.552  0.00  0.00    -0.124 OA
ATOM     21  O   UNL     1     -11.087  12.447  63.370  0.00  0.00    -0.124 OA
ENDBRANCH  14  18
ENDBRANCH   9  17
ENDBRANCH   1  10
BRANCH   2  22
ATOM     22  O   UNL     1     -10.657  17.151  67.941  0.00  0.00    -0.374 OA
BRANCH  22  23
ATOM     23  C   UNL     1      -9.601  18.104  67.867  0.00  0.00    +0.253 C 
ATOM     24  C   UNL     1      -9.997  19.256  68.776  0.00  0.00    +0.058 C 
ATOM     25  C   UNL     1      -8.357  17.430  68.406  0.00  0.00    +0.058 C 
BRANCH  23  26
ATOM     26  C   UNL     1      -9.357  18.567  66.484  0.00  0.00    +0.403 C 
ATOM     27  O   UNL     1      -8.115  18.472  65.854  0.00  0.00    -0.242 OA
ATOM     28  O   UNL     1     -10.356  18.636  65.705  0.00  0.00    -0.242 OA
ENDBRANCH  23  26
ENDBRANCH  22  23
ENDBRANCH   2  22
TORSDOF 7
ENDMDL
MODEL 4
REMARK VINA RESULT:      -6.6      1.985      2.369
REMARK  Name = 
REMARK  7 active torsions:
REMARK  status: ('A' for Active; 'I' for Inactive)
REMARK    1  A    between atoms: C_3  and  N_4
REMARK    2  A    between atoms: C_5  and  C_7
REMARK    3  A    between atoms: C_7  and  C_16
REMARK    4  A    between atoms: N_8  and  O_9
REMARK    5  A    between atoms: O_9  and  C_10
REMARK    6  A    between atoms: C_10  and  C_13
REMARK    7  A    between atoms: N_24  and  S_25
REMARK                            x       y       z     vdW  Elec       q    Type
REMARK                         _______ _______ _______ _____ _____    ______ ____
ROOT
ATOM      1  C   UNL     1     -11.047  14.904  69.868  0.00  0.00    +0.192 C 
ATOM      2  N   UNL     1     -10.985  13.711  69.353  0.00  0.00    -0.076 NA
ENDROOT
BRANCH   1   3
ATOM      3  C   UNL     1     -11.992  15.034  70.990  0.00  0.00    +0.115 A 
ATOM      4  N   UNL     1     -11.630  15.357  72.229  0.00  0.00    -0.220 NA
ATOM      5  C   UNL     1     -12.607  15.933  72.944  0.00  0.00    +0.201 A 
ATOM      6  N   UNL     1     -12.448  16.573  74.217  0.00  0.00    -0.100 NA
ATOM      7  S   UNL     1     -14.002  15.200  72.267  0.00  0.00    -0.048 S 
ATOM      8  C   UNL     1     -13.223  14.385  70.970  0.00  0.00    +0.059 A 
ENDBRANCH   1   3
BRANCH   1  10
ATOM      9  N   UNL     1      -9.874  16.845  68.736  0.00  0.00    -0.191 NA
ATOM     10  C   UNL     1     -11.026  15.998  68.883  0.00  0.00    +0.288 C 
ATOM     11  O   UNL     1     -12.158  16.301  68.448  0.00  0.00    -0.267 OA
BRANCH   9  17
ATOM     12  C   UNL     1      -9.569  20.385  67.595  0.00  0.00    +0.026 C 
ATOM     13  C   UNL     1      -9.492  19.208  68.766  0.00  0.00    +0.130 C 
ATOM     14  N   UNL     1      -8.177  18.586  68.162  0.00  0.00    -0.136 N 
ATOM     15  C   UNL     1      -8.772  18.014  67.039  0.00  0.00    +0.267 C 
ATOM     16  O   UNL     1      -8.530  18.188  65.803  0.00  0.00    -0.271 OA
ATOM     17  C   UNL     1     -10.241  18.035  67.731  0.00  0.00    +0.193 C 
BRANCH  14  18
ATOM     18  S   UNL     1      -6.625  18.741  68.828  0.00  0.00    +0.200 S 
ATOM     19  O   UNL     1      -6.313  17.305  69.664  0.00  0.00    -0.029 OA
ATOM     20  O   UNL     1      -6.632  19.907  69.751  0.00  0.00    -0.124 OA
ATOM     21  O   UNL     1      -5.636  18.956  67.721  0.00  0.00    -0.124 OA
ENDBRANCH  14  18
ENDBRANCH   9  17
ENDBRANCH   1  10
BRANCH   2  22
ATOM     22  O   UNL     1     -10.124  13.444  68.337  0.00  0.00    -0.374 OA
BRANCH  22  23
ATOM     23  C   UNL     1     -10.497  12.457  67.380  0.00  0.00    +0.253 C 
ATOM     24  C   UNL     1      -9.209  11.782  66.935  0.00  0.00    +0.058 C 
ATOM     25  C   UNL     1     -11.379  11.456  68.094  0.00  0.00    +0.058 C 
BRANCH  23  26
ATOM     26  C   UNL     1     -11.227  13.035  66.231  0.00  0.00    +0.403 C 
ATOM     27  O   UNL     1     -10.597  13.726  65.195  0.00  0.00    -0.242 OA
ATOM     28  O   UNL     1     -12.353  12.530  65.940  0.00  0.00    -0.242 OA
ENDBRANCH  23  26
ENDBRANCH  22  23
ENDBRANCH   2  22
TORSDOF 7
ENDMDL
MODEL 5
REMARK VINA RESULT:      -6.5      2.762      5.116
REMARK  Name = 
REMARK  7 active torsions:
REMARK  status: ('A' for Active; 'I' for Inactive)
REMARK    1  A    between atoms: C_3  and  N_4
REMARK    2  A    between atoms: C_5  and  C_7
REMARK    3  A    between atoms: C_7  and  C_16
REMARK    4  A    between atoms: N_8  and  O_9
REMARK    5  A    between atoms: O_9  and  C_10
REMARK    6  A    between atoms: C_10  and  C_13
REMARK    7  A    between atoms: N_24  and  S_25
REMARK                            x       y       z     vdW  Elec       q    Type
REMARK                         _______ _______ _______ _____ _____    ______ ____
ROOT
ATOM      1  C   UNL     1     -11.149  15.562  68.074  0.00  0.00    +0.192 C 
ATOM      2  N   UNL     1     -12.065  15.188  68.918  0.00  0.00    -0.076 NA
ENDROOT
BRANCH   1   3
ATOM      3  C   UNL     1     -11.051  14.719  66.871  0.00  0.00    +0.115 A 
ATOM      4  N   UNL     1     -12.088  14.407  66.098  0.00  0.00    -0.220 NA
ATOM      5  C   UNL     1     -11.752  14.115  64.833  0.00  0.00    +0.201 A 
ATOM      6  N   UNL     1     -12.663  13.956  63.739  0.00  0.00    -0.100 NA
ATOM      7  S   UNL     1     -10.184  13.451  65.042  0.00  0.00    -0.048 S 
ATOM      8  C   UNL     1     -10.005  13.813  66.713  0.00  0.00    +0.059 A 
ENDBRANCH   1   3
BRANCH   1  10
ATOM      9  N   UNL     1      -9.072  17.013  68.093  0.00  0.00    -0.191 NA
ATOM     10  C   UNL     1      -9.884  15.992  68.693  0.00  0.00    +0.288 C 
ATOM     11  O   UNL     1      -9.457  15.198  69.560  0.00  0.00    -0.267 OA
BRANCH   9  17
ATOM     12  C   UNL     1      -5.370  17.474  68.220  0.00  0.00    +0.026 C 
ATOM     13  C   UNL     1      -6.771  17.045  67.433  0.00  0.00    +0.130 C 
ATOM     14  N   UNL     1      -7.253  18.540  67.317  0.00  0.00    -0.136 N 
ATOM     15  C   UNL     1      -7.571  18.710  68.663  0.00  0.00    +0.267 C 
ATOM     16  O   UNL     1      -7.138  19.556  69.508  0.00  0.00    -0.271 OA
ATOM     17  C   UNL     1      -7.694  17.108  68.900  0.00  0.00    +0.193 C 
BRANCH  14  18
ATOM     18  S   UNL     1      -7.248  19.463  65.893  0.00  0.00    +0.200 S 
ATOM     19  O   UNL     1      -6.351  20.857  66.226  0.00  0.00    -0.029 OA
ATOM     20  O   UNL     1      -8.655  19.799  65.555  0.00  0.00    -0.124 OA
ATOM     21  O   UNL     1      -6.621  18.660  64.792  0.00  0.00    -0.124 OA
ENDBRANCH  14  18
ENDBRANCH   9  17
ENDBRANCH   1  10
BRANCH   2  22
ATOM     22  O   UNL     1     -12.289  15.902  70.052  0.00  0.00    -0.374 OA
BRANCH  22  23
ATOM     23  C   UNL     1     -12.617  15.192  71.242  0.00  0.00    +0.253 C 
ATOM     24  C   UNL     1     -12.469  13.715  70.916  0.00  0.00    +0.058 C 
ATOM     25  C   UNL     1     -11.600  15.590  72.291  0.00  0.00    +0.058 C 
BRANCH  23  26
ATOM     26  C   UNL     1     -13.980  15.504  71.725  0.00  0.00    +0.403 C 
ATOM     27  O   UNL     1     -15.107  14.769  71.357  0.00  0.00    -0.242 OA
ATOM     28  O   UNL     1     -14.082  16.144  72.815  0.00  0.00    -0.242 OA
ENDBRANCH  23  26
ENDBRANCH  22  23
ENDBRANCH   2  22
TORSDOF 7
ENDMDL
MODEL 6
REMARK VINA RESULT:      -6.5      2.176      3.187
REMARK  Name = 
REMARK  7 active torsions:
REMARK  status: ('A' for Active; 'I' for Inactive)
REMARK    1  A    between atoms: C_3  and  N_4
REMARK    2  A    between atoms: C_5  and  C_7
REMARK    3  A    between atoms: C_7  and  C_16
REMARK    4  A    between atoms: N_8  and  O_9
REMARK    5  A    between atoms: O_9  and  C_10
REMARK    6  A    between atoms: C_10  and  C_13
REMARK    7  A    between atoms: N_24  and  S_25
REMARK                            x       y       z     vdW  Elec       q    Type
REMARK                         _______ _______ _______ _____ _____    ______ ____
ROOT
ATOM      1  C   UNL     1     -10.576  13.956  68.749  0.00  0.00    +0.192 C 
ATOM      2  N   UNL     1     -11.251  13.709  67.665  0.00  0.00    -0.076 NA
ENDROOT
BRANCH   1   3
ATOM      3  C   UNL     1     -11.375  14.529  69.846  0.00  0.00    +0.115 A 
ATOM      4  N   UNL     1     -12.489  13.976  70.318  0.00  0.00    -0.220 NA
ATOM      5  C   UNL     1     -12.761  14.307  71.587  0.00  0.00    +0.201 A 
ATOM      6  N   UNL     1     -13.762  13.702  72.416  0.00  0.00    -0.100 NA
ATOM      7  S   UNL     1     -12.084  15.881  71.681  0.00  0.00    -0.048 S 
ATOM      8  C   UNL     1     -11.312  15.887  70.146  0.00  0.00    +0.059 A 
ENDBRANCH   1   3
BRANCH   1  10
ATOM      9  N   UNL     1      -9.082  15.778  67.814  0.00  0.00    -0.191 NA
ATOM     10  C   UNL     1      -9.242  14.537  68.521  0.00  0.00    +0.288 C 
ATOM     11  O   UNL     1      -8.307  13.728  68.704  0.00  0.00    -0.267 OA
BRANCH   9  17
ATOM     12  C   UNL     1      -6.267  17.673  66.261  0.00  0.00    +0.026 C 
ATOM     13  C   UNL     1      -7.847  17.157  66.297  0.00  0.00    +0.130 C 
ATOM     14  N   UNL     1      -8.207  18.098  67.507  0.00  0.00    -0.136 N 
ATOM     15  C   UNL     1      -7.516  17.378  68.479  0.00  0.00    +0.267 C 
ATOM     16  O   UNL     1      -6.583  17.744  69.264  0.00  0.00    -0.271 OA
ATOM     17  C   UNL     1      -7.521  16.030  67.574  0.00  0.00    +0.193 C 
BRANCH  14  18
ATOM     18  S   UNL     1      -9.128  19.519  67.402  0.00  0.00    +0.200 S 
ATOM     19  O   UNL     1     -10.075  19.377  66.009  0.00  0.00    -0.029 OA
ATOM     20  O   UNL     1      -8.192  20.669  67.298  0.00  0.00    -0.124 OA
ATOM     21  O   UNL     1      -9.978  19.644  68.632  0.00  0.00    -0.124 OA
ENDBRANCH  14  18
ENDBRANCH   9  17
ENDBRANCH   1  10
BRANCH   2  22
ATOM     22  O   UNL     1     -10.644  13.143  66.590  0.00  0.00    -0.374 OA
BRANCH  22  23
ATOM     23  C   UNL     1     -11.144  13.451  65.293  0.00  0.00    +0.253 C 
ATOM     24  C   UNL     1     -10.721  14.881  64.998  0.00  0.00    +0.058 C 
ATOM     25  C   UNL     1     -10.470  12.507  64.321  0.00  0.00    +0.058 C 
BRANCH  23  26
ATOM     26  C   UNL     1     -12.612  13.294  65.204  0.00  0.00    +0.403 C 
ATOM     27  O   UNL     1     -13.503  14.362  65.319  0.00  0.00    -0.242 OA
ATOM     28  O   UNL     1     -13.055  12.283  64.579  0.00  0.00    -0.242 OA
ENDBRANCH  23  26
ENDBRANCH  22  23
ENDBRANCH   2  22
TORSDOF 7
ENDMDL
MODEL 7
REMARK VINA RESULT:      -6.4      4.786      7.408
REMARK  Name = 
REMARK  7 active torsions:
REMARK  status: ('A' for Active; 'I' for Inactive)
REMARK    1  A    between atoms: C_3  and  N_4
REMARK    2  A    between atoms: C_5  and  C_7
REMARK    3  A    between atoms: C_7  and  C_16
REMARK    4  A    between atoms: N_8  and  O_9
REMARK    5  A    between atoms: O_9  and  C_10
REMARK    6  A    between atoms: C_10  and  C_13
REMARK    7  A    between atoms: N_24  and  S_25
REMARK                            x       y       z     vdW  Elec       q    Type
REMARK                         _______ _______ _______ _____ _____    ______ ____
ROOT
ATOM      1  C   UNL     1     -11.794  12.760  68.191  0.00  0.00    +0.192 C 
ATOM      2  N   UNL     1     -11.988  13.135  66.961  0.00  0.00    -0.076 NA
ENDROOT
BRANCH   1   3
ATOM      3  C   UNL     1     -11.778  13.862  69.168  0.00  0.00    +0.115 A 
ATOM      4  N   UNL     1     -12.518  13.884  70.273  0.00  0.00    -0.220 NA
ATOM      5  C   UNL     1     -12.006  14.642  71.252  0.00  0.00    +0.201 A 
ATOM      6  N   UNL     1     -12.466  14.682  72.609  0.00  0.00    -0.100 NA
ATOM      7  S   UNL     1     -11.177  15.846  70.354  0.00  0.00    -0.048 S 
ATOM      8  C   UNL     1     -11.374  15.142  68.798  0.00  0.00    +0.059 A 
ENDBRANCH   1   3
BRANCH   1  10
ATOM      9  N   UNL     1     -11.096  10.467  69.014  0.00  0.00    -0.191 NA
ATOM     10  C   UNL     1     -10.780  11.705  68.358  0.00  0.00    +0.288 C 
ATOM     11  O   UNL     1      -9.609  12.105  68.177  0.00  0.00    -0.267 OA
BRANCH   9  17
ATOM     12  C   UNL     1      -8.731   8.475  71.105  0.00  0.00    +0.026 C 
ATOM     13  C   UNL     1      -9.931   9.611  70.922  0.00  0.00    +0.130 C 
ATOM     14  N   UNL     1     -11.016   8.522  70.581  0.00  0.00    -0.136 N 
ATOM     15  C   UNL     1     -10.540   8.217  69.308  0.00  0.00    +0.267 C 
ATOM     16  O   UNL     1     -10.155   7.107  68.819  0.00  0.00    -0.271 OA
ATOM     17  C   UNL     1      -9.745   9.629  69.198  0.00  0.00    +0.193 C 
BRANCH  14  18
ATOM     18  S   UNL     1     -12.254   8.014  71.623  0.00  0.00    +0.200 S 
ATOM     19  O   UNL     1     -13.350   9.297  71.731  0.00  0.00    -0.029 OA
ATOM     20  O   UNL     1     -11.650   7.714  72.947  0.00  0.00    -0.124 OA
ATOM     21  O   UNL     1     -12.902   6.787  71.052  0.00  0.00    -0.124 OA
ENDBRANCH  14  18
ENDBRANCH   9  17
ENDBRANCH   1  10
BRANCH   2  22
ATOM     22  O   UNL     1     -12.064  12.215  65.965  0.00  0.00    -0.374 OA
BRANCH  22  23
ATOM     23  C   UNL     1     -11.344  12.461  64.762  0.00  0.00    +0.253 C 
ATOM     24  C   UNL     1     -10.436  13.648  65.040  0.00  0.00    +0.058 C 
ATOM     25  C   UNL     1     -10.507  11.230  64.486  0.00  0.00    +0.058 C 
BRANCH  23  26
ATOM     26  C   UNL     1     -12.238  12.724  63.614  0.00  0.00    +0.403 C 
ATOM     27  O   UNL     1     -13.095  11.761  63.078  0.00  0.00    -0.242 OA
ATOM     28  O   UNL     1     -12.570  13.928  63.394  0.00  0.00    -0.242 OA
ENDBRANCH  23  26
ENDBRANCH  22  23
ENDBRANCH   2  22
TORSDOF 7
ENDMDL
MODEL 8
REMARK VINA RESULT:      -6.4      3.016      6.670
REMARK  Name = 
REMARK  7 active torsions:
REMARK  status: ('A' for Active; 'I' for Inactive)
REMARK    1  A    between atoms: C_3  and  N_4
REMARK    2  A    between atoms: C_5  and  C_7
REMARK    3  A    between atoms: C_7  and  C_16
REMARK    4  A    between atoms: N_8  and  O_9
REMARK    5  A    between atoms: O_9  and  C_10
REMARK    6  A    between atoms: C_10  and  C_13
REMARK    7  A    between atoms: N_24  and  S_25
REMARK                            x       y       z     vdW  Elec       q    Type
REMARK                         _______ _______ _______ _____ _____    ______ ____
ROOT
ATOM      1  C   UNL     1     -10.442  16.179  68.455  0.00  0.00    +0.192 C 
ATOM      2  N   UNL     1     -11.520  16.398  69.149  0.00  0.00    -0.076 NA
ENDROOT
BRANCH   1   3
ATOM      3  C   UNL     1      -9.553  17.346  68.328  0.00  0.00    +0.115 A 
ATOM      4  N   UNL     1      -8.274  17.347  68.697  0.00  0.00    -0.220 NA
ATOM      5  C   UNL     1      -7.524  18.247  68.046  0.00  0.00    +0.201 A 
ATOM      6  N   UNL     1      -6.094  18.327  68.078  0.00  0.00    -0.100 NA
ATOM      7  S   UNL     1      -8.671  19.484  67.732  0.00  0.00    -0.048 S 
ATOM      8  C   UNL     1     -10.068  18.638  68.268  0.00  0.00    +0.059 A 
ENDBRANCH   1   3
BRANCH   1  10
ATOM      9  N   UNL     1     -10.122  14.026  67.158  0.00  0.00    -0.191 NA
ATOM     10  C   UNL     1     -10.646  15.360  67.249  0.00  0.00    +0.288 C 
ATOM     11  O   UNL     1     -11.012  16.021  66.252  0.00  0.00    -0.267 OA
BRANCH   9  17
ATOM     12  C   UNL     1      -9.991  11.319  64.591  0.00  0.00    +0.026 C 
ATOM     13  C   UNL     1      -9.484  12.025  66.009  0.00  0.00    +0.130 C 
ATOM     14  N   UNL     1     -10.822  11.661  66.757  0.00  0.00    -0.136 N 
ATOM     15  C   UNL     1     -11.629  12.587  66.100  0.00  0.00    +0.267 C 
ATOM     16  O   UNL     1     -12.684  12.414  65.411  0.00  0.00    -0.271 OA
ATOM     17  C   UNL     1     -10.349  13.489  65.668  0.00  0.00    +0.193 C 
BRANCH  14  18
ATOM     18  S   UNL     1     -10.988  10.445  67.928  0.00  0.00    +0.200 S 
ATOM     19  O   UNL     1      -9.732  10.668  69.037  0.00  0.00    -0.029 OA
ATOM     20  O   UNL     1     -10.873   9.128  67.247  0.00  0.00    -0.124 OA
ATOM     21  O   UNL     1     -12.329  10.579  68.587  0.00  0.00    -0.124 OA
ENDBRANCH  14  18
ENDBRANCH   9  17
ENDBRANCH   1  10
BRANCH   2  22
ATOM     22  O   UNL     1     -12.407  15.396  69.377  0.00  0.00    -0.374 OA
BRANCH  22  23
ATOM     23  C   UNL     1     -12.393  14.759  70.651  0.00  0.00    +0.253 C 
ATOM     24  C   UNL     1     -11.830  13.365  70.427  0.00  0.00    +0.058 C 
ATOM     25  C   UNL     1     -11.454  15.554  71.533  0.00  0.00    +0.058 C 
BRANCH  23  26
ATOM     26  C   UNL     1     -13.734  14.707  71.270  0.00  0.00    +0.403 C 
ATOM     27  O   UNL     1     -14.178  13.632  72.042  0.00  0.00    -0.242 OA
ATOM     28  O   UNL     1     -14.322  15.810  71.487  0.00  0.00    -0.242 OA
ENDBRANCH  23  26
ENDBRANCH  22  23
ENDBRANCH   2  22
TORSDOF 7
ENDMDL
MODEL 9
REMARK VINA RESULT:      -6.3      1.852      2.489
REMARK  Name = 
REMARK  7 active torsions:
REMARK  status: ('A' for Active; 'I' for Inactive)
REMARK    1  A    between atoms: C_3  and  N_4
REMARK    2  A    between atoms: C_5  and  C_7
REMARK    3  A    between atoms: C_7  and  C_16
REMARK    4  A    between atoms: N_8  and  O_9
REMARK    5  A    between atoms: O_9  and  C_10
REMARK    6  A    between atoms: C_10  and  C_13
REMARK    7  A    between atoms: N_24  and  S_25
REMARK                            x       y       z     vdW  Elec       q    Type
REMARK                         _______ _______ _______ _____ _____    ______ ____
ROOT
ATOM      1  C   UNL     1     -11.150  14.981  70.019  0.00  0.00    +0.192 C 
ATOM      2  N   UNL     1     -11.202  13.812  69.452  0.00  0.00    -0.076 NA
ENDROOT
BRANCH   1   3
ATOM      3  C   UNL     1     -12.075  15.149  71.152  0.00  0.00    +0.115 A 
ATOM      4  N   UNL     1     -11.682  15.381  72.402  0.00  0.00    -0.220 NA
ATOM      5  C   UNL     1     -12.597  16.013  73.149  0.00  0.00    +0.201 A 
ATOM      6  N   UNL     1     -12.375  16.578  74.448  0.00  0.00    -0.100 NA
ATOM      7  S   UNL     1     -14.058  15.448  72.449  0.00  0.00    -0.048 S 
ATOM      8  C   UNL     1     -13.363  14.622  71.112  0.00  0.00    +0.059 A 
ENDBRANCH   1   3
BRANCH   1  10
ATOM      9  N   UNL     1      -9.890  16.986  69.116  0.00  0.00    -0.191 NA
ATOM     10  C   UNL     1     -11.029  16.111  69.083  0.00  0.00    +0.288 C 
ATOM     11  O   UNL     1     -12.103  16.406  68.514  0.00  0.00    -0.267 OA
BRANCH   9  17
ATOM     12  C   UNL     1      -8.807  20.125  67.413  0.00  0.00    +0.026 C 
ATOM     13  C   UNL     1      -8.732  19.031  68.662  0.00  0.00    +0.130 C 
ATOM     14  N   UNL     1      -8.017  17.947  67.771  0.00  0.00    -0.136 N 
ATOM     15  C   UNL     1      -9.129  17.617  67.000  0.00  0.00    +0.267 C 
ATOM     16  O   UNL     1      -9.295  17.659  65.739  0.00  0.00    -0.271 OA
ATOM     17  C   UNL     1     -10.154  18.205  68.114  0.00  0.00    +0.193 C 
BRANCH  14  18
ATOM     18  S   UNL     1      -6.378  17.521  67.874  0.00  0.00    +0.200 S 
ATOM     19  O   UNL     1      -6.053  16.530  66.544  0.00  0.00    -0.029 OA
ATOM     20  O   UNL     1      -6.169  16.789  69.151  0.00  0.00    -0.124 OA
ATOM     21  O   UNL     1      -5.545  18.769  67.844  0.00  0.00    -0.124 OA
ENDBRANCH  14  18
ENDBRANCH   9  17
ENDBRANCH   1  10
BRANCH   2  22
ATOM     22  O   UNL     1     -10.374  13.510  68.419  0.00  0.00    -0.374 OA
BRANCH  22  23
ATOM     23  C   UNL     1     -10.841  12.609  67.420  0.00  0.00    +0.253 C 
ATOM     24  C   UNL     1     -11.522  11.466  68.157  0.00  0.00    +0.058 C 
ATOM     25  C   UNL     1     -11.859  13.359  66.587  0.00  0.00    +0.058 C 
BRANCH  23  26
ATOM     26  C   UNL     1      -9.750  12.117  66.552  0.00  0.00    +0.403 C 
ATOM     27  O   UNL     1      -8.398  12.309  66.841  0.00  0.00    -0.242 OA
ATOM     28  O   UNL     1     -10.008  11.139  65.786  0.00  0.00    -0.242 OA
ENDBRANCH  23  26
ENDBRANCH  22  23
ENDBRANCH   2  22
TORSDOF 7
ENDMDL
