MODEL 1
REMARK VINA RESULT:      -6.0      0.000      0.000
REMARK  Name = 
REMARK  5 active torsions:
REMARK  status: ('A' for Active; 'I' for Inactive)
REMARK    1  A    between atoms: C_2  and  C_3
REMARK    2  A    between atoms: C_3  and  C_4
REMARK    3  A    between atoms: C_4  and  C_5
REMARK    4  A    between atoms: C_5  and  C_7
REMARK    5  A    between atoms: C_8  and  C_9
REMARK                            x       y       z     vdW  Elec       q    Type
REMARK                         _______ _______ _______ _____ _____    ______ ____
ROOT
ATOM      1  C   UNL     1     -11.376  13.102  66.413  0.00  0.00    +0.155 C 
ATOM      2  C   UNL     1     -10.152  13.848  66.324  0.00  0.00    +0.241 C 
ATOM      3  O   UNL     1      -9.041  13.237  66.341  0.00  0.00    -0.274 OA
ATOM      4  N   UNL     1     -10.134  15.124  65.673  0.00  0.00    -0.210 N 
ATOM      5  C   UNL     1      -9.014  16.029  65.874  0.00  0.00    +0.124 C 
ATOM      6  C   UNL     1     -11.187  15.584  64.838  0.00  0.00    +0.336 C 
ATOM      7  O   UNL     1     -11.196  16.760  64.363  0.00  0.00    -0.250 OA
ATOM      8  N   UNL     1     -12.356  14.753  64.795  0.00  0.00    -0.127 NA
ATOM      9  C   UNL     1     -12.377  13.440  65.366  0.00  0.00    +0.258 C 
ATOM     10  O   UNL     1     -12.770  12.499  64.609  0.00  0.00    -0.272 OA
ENDROOT
BRANCH   1  11
ATOM     11  C   UNL     1     -12.129  13.463  67.851  0.00  0.00    +0.081 C 
ATOM     12  C   UNL     1     -10.756  14.077  68.578  0.00  0.00    +0.015 C 
BRANCH  11  13
ATOM     13  C   UNL     1     -11.841  11.989  68.438  0.00  0.00    -0.091 C 
ATOM     14  C   UNL     1     -11.993  11.311  69.443  0.00  0.00    -0.091 C 
BRANCH  14  15
ATOM     15  C   UNL     1     -11.707  10.456  70.611  0.00  0.00    +0.076 C 
ATOM     16  C   UNL     1     -12.902  10.383  71.554  0.00  0.00    +0.015 C 
ENDBRANCH  14  15
ENDBRANCH  11  13
ENDBRANCH   1  11
BRANCH   1  17
ATOM     17  C   UNL     1     -11.125  11.622  66.476  0.00  0.00    +0.044 C 
BRANCH  17  19
ATOM     18  C   UNL     1      -9.933   9.937  65.135  0.00  0.00    -0.005 C 
ATOM     19  C   UNL     1     -10.414  11.084  65.301  0.00  0.00    -0.025 C 
ENDBRANCH  17  19
ENDBRANCH   1  17
TORSDOF 5
ENDMDL
MODEL 2
REMARK VINA RESULT:      -5.9      3.193      6.198
REMARK  Name = 
REMARK  5 active torsions:
REMARK  status: ('A' for Active; 'I' for Inactive)
REMARK    1  A    between atoms: C_2  and  C_3
REMARK    2  A    between atoms: C_3  and  C_4
REMARK    3  A    between atoms: C_4  and  C_5
REMARK    4  A    between atoms: C_5  and  C_7
REMARK    5  A    between atoms: C_8  and  C_9
REMARK                            x       y       z     vdW  Elec       q    Type
REMARK                         _______ _______ _______ _____ _____    ______ ____
ROOT
ATOM      1  C   UNL     1      -9.645  16.516  67.559  0.00  0.00    +0.155 C 
ATOM      2  C   UNL     1     -10.094  15.293  66.953  0.00  0.00    +0.241 C 
ATOM      3  O   UNL     1     -10.481  14.334  67.686  0.00  0.00    -0.274 OA
ATOM      4  N   UNL     1     -10.640  15.306  65.629  0.00  0.00    -0.210 N 
ATOM      5  C   UNL     1     -10.772  14.065  64.883  0.00  0.00    +0.124 C 
ATOM      6  C   UNL     1     -11.050  16.495  64.970  0.00  0.00    +0.336 C 
ATOM      7  O   UNL     1     -11.428  16.490  63.759  0.00  0.00    -0.250 OA
ATOM      8  N   UNL     1     -10.749  17.720  65.653  0.00  0.00    -0.127 NA
ATOM      9  C   UNL     1     -10.279  17.742  67.006  0.00  0.00    +0.258 C 
ATOM     10  O   UNL     1     -10.915  18.486  67.815  0.00  0.00    -0.272 OA
ENDROOT
BRANCH   1  11
ATOM     11  C   UNL     1      -8.021  16.706  67.259  0.00  0.00    +0.081 C 
ATOM     12  C   UNL     1      -7.530  15.692  68.491  0.00  0.00    +0.015 C 
BRANCH  11  13
ATOM     13  C   UNL     1      -7.936  17.998  68.222  0.00  0.00    -0.091 C 
ATOM     14  C   UNL     1      -7.177  18.893  68.560  0.00  0.00    -0.091 C 
BRANCH  14  15
ATOM     15  C   UNL     1      -6.352  19.788  69.394  0.00  0.00    +0.076 C 
ATOM     16  C   UNL     1      -5.658  20.852  68.552  0.00  0.00    +0.015 C 
ENDBRANCH  14  15
ENDBRANCH  11  13
ENDBRANCH   1  11
BRANCH   1  17
ATOM     17  C   UNL     1      -9.754  16.469  69.056  0.00  0.00    +0.044 C 
BRANCH  17  19
ATOM     18  C   UNL     1     -11.506  15.977  70.714  0.00  0.00    -0.005 C 
ATOM     19  C   UNL     1     -11.128  16.266  69.553  0.00  0.00    -0.025 C 
ENDBRANCH  17  19
ENDBRANCH   1  17
TORSDOF 5
ENDMDL
MODEL 3
REMARK VINA RESULT:      -5.7      1.645      2.089
REMARK  Name = 
REMARK  5 active torsions:
REMARK  status: ('A' for Active; 'I' for Inactive)
REMARK    1  A    between atoms: C_2  and  C_3
REMARK    2  A    between atoms: C_3  and  C_4
REMARK    3  A    between atoms: C_4  and  C_5
REMARK    4  A    between atoms: C_5  and  C_7
REMARK    5  A    between atoms: C_8  and  C_9
REMARK                            x       y       z     vdW  Elec       q    Type
REMARK                         _______ _______ _______ _____ _____    ______ ____
ROOT
ATOM      1  C   UNL     1     -10.802  13.184  67.255  0.00  0.00    +0.155 C 
ATOM      2  C   UNL     1     -10.482  14.344  66.470  0.00  0.00    +0.241 C 
ATOM      3  O   UNL     1      -9.316  14.838  66.525  0.00  0.00    -0.274 OA
ATOM      4  N   UNL     1     -11.200  14.612  65.259  0.00  0.00    -0.210 N 
ATOM      5  C   UNL     1     -11.134  15.930  64.649  0.00  0.00    +0.124 C 
ATOM      6  C   UNL     1     -12.016  13.647  64.612  0.00  0.00    +0.336 C 
ATOM      7  O   UNL     1     -12.726  13.944  63.603  0.00  0.00    -0.250 OA
ATOM      8  N   UNL     1     -12.206  12.415  65.321  0.00  0.00    -0.127 NA
ATOM      9  C   UNL     1     -11.445  12.083  66.488  0.00  0.00    +0.258 C 
ATOM     10  O   UNL     1     -10.859  10.957  66.482  0.00  0.00    -0.272 OA
ENDROOT
BRANCH   1  11
ATOM     11  C   UNL     1     -11.919  13.603  68.413  0.00  0.00    +0.081 C 
ATOM     12  C   UNL     1     -10.842  14.485  69.335  0.00  0.00    +0.015 C 
BRANCH  11  13
ATOM     13  C   UNL     1     -11.626  12.264  69.262  0.00  0.00    -0.091 C 
ATOM     14  C   UNL     1     -12.170  11.463  70.007  0.00  0.00    -0.091 C 
BRANCH  14  15
ATOM     15  C   UNL     1     -12.472  10.632  71.189  0.00  0.00    +0.076 C 
ATOM     16  C   UNL     1     -11.509   9.456  71.303  0.00  0.00    +0.015 C 
ENDBRANCH  14  15
ENDBRANCH  11  13
ENDBRANCH   1  11
BRANCH   1  17
ATOM     17  C   UNL     1      -9.614  12.691  68.032  0.00  0.00    +0.044 C 
BRANCH  17  19
ATOM     18  C   UNL     1      -7.358  11.834  67.547  0.00  0.00    -0.005 C 
ATOM     19  C   UNL     1      -8.485  12.256  67.189  0.00  0.00    -0.025 C 
ENDBRANCH  17  19
ENDBRANCH   1  17
TORSDOF 5
ENDMDL
MODEL 4
REMARK VINA RESULT:      -5.5      2.529      3.754
REMARK  Name = 
REMARK  5 active torsions:
REMARK  status: ('A' for Active; 'I' for Inactive)
REMARK    1  A    between atoms: C_2  and  C_3
REMARK    2  A    between atoms: C_3  and  C_4
REMARK    3  A    between atoms: C_4  and  C_5
REMARK    4  A    between atoms: C_5  and  C_7
REMARK    5  A    between atoms: C_8  and  C_9
REMARK                            x       y       z     vdW  Elec       q    Type
REMARK                         _______ _______ _______ _____ _____    ______ ____
ROOT
ATOM      1  C   UNL     1     -10.676  14.724  67.853  0.00  0.00    +0.155 C 
ATOM      2  C   UNL     1     -10.636  15.075  66.461  0.00  0.00    +0.241 C 
ATOM      3  O   UNL     1      -9.568  15.536  65.959  0.00  0.00    -0.274 OA
ATOM      4  N   UNL     1     -11.514  14.427  65.532  0.00  0.00    -0.210 N 
ATOM      5  C   UNL     1     -11.731  14.999  64.213  0.00  0.00    +0.124 C 
ATOM      6  C   UNL     1     -12.227  13.237  65.839  0.00  0.00    +0.336 C 
ATOM      7  O   UNL     1     -13.080  12.746  65.038  0.00  0.00    -0.250 OA
ATOM      8  N   UNL     1     -12.136  12.789  67.198  0.00  0.00    -0.127 NA
ATOM      9  C   UNL     1     -11.209  13.363  68.128  0.00  0.00    +0.258 C 
ATOM     10  O   UNL     1     -10.451  12.553  68.746  0.00  0.00    -0.272 OA
ENDROOT
BRANCH   1  11
ATOM     11  C   UNL     1     -11.716  15.754  68.643  0.00  0.00    +0.081 C 
ATOM     12  C   UNL     1     -10.595  16.980  68.817  0.00  0.00    +0.015 C 
BRANCH  11  13
ATOM     13  C   UNL     1     -11.332  15.131  70.081  0.00  0.00    -0.091 C 
ATOM     14  C   UNL     1     -11.706  15.102  71.243  0.00  0.00    -0.091 C 
BRANCH  14  15
ATOM     15  C   UNL     1     -11.718  15.230  72.713  0.00  0.00    +0.076 C 
ATOM     16  C   UNL     1     -13.141  15.258  73.257  0.00  0.00    +0.015 C 
ENDBRANCH  14  15
ENDBRANCH  11  13
ENDBRANCH   1  11
BRANCH   1  17
ATOM     17  C   UNL     1      -9.348  14.938  68.521  0.00  0.00    +0.044 C 
BRANCH  17  19
ATOM     18  C   UNL     1      -7.066  14.250  67.903  0.00  0.00    -0.005 C 
ATOM     19  C   UNL     1      -8.290  14.019  68.061  0.00  0.00    -0.025 C 
ENDBRANCH  17  19
ENDBRANCH   1  17
TORSDOF 5
ENDMDL
MODEL 5
REMARK VINA RESULT:      -5.5      2.813      6.521
REMARK  Name = 
REMARK  5 active torsions:
REMARK  status: ('A' for Active; 'I' for Inactive)
REMARK    1  A    between atoms: C_2  and  C_3
REMARK    2  A    between atoms: C_3  and  C_4
REMARK    3  A    between atoms: C_4  and  C_5
REMARK    4  A    between atoms: C_5  and  C_7
REMARK    5  A    between atoms: C_8  and  C_9
REMARK                            x       y       z     vdW  Elec       q    Type
REMARK                         _______ _______ _______ _____ _____    ______ ____
ROOT
ATOM      1  C   UNL     1      -9.703  16.497  67.453  0.00  0.00    +0.155 C 
ATOM      2  C   UNL     1     -10.611  15.991  68.444  0.00  0.00    +0.241 C 
ATOM      3  O   UNL     1     -11.062  16.768  69.338  0.00  0.00    -0.274 OA
ATOM      4  N   UNL     1     -11.437  14.857  68.149  0.00  0.00    -0.210 N 
ATOM      5  C   UNL     1     -12.090  14.132  69.227  0.00  0.00    +0.124 C 
ATOM      6  C   UNL     1     -11.643  14.369  66.832  0.00  0.00    +0.336 C 
ATOM      7  O   UNL     1     -12.289  13.300  66.611  0.00  0.00    -0.250 OA
ATOM      8  N   UNL     1     -10.852  14.988  65.807  0.00  0.00    -0.127 NA
ATOM      9  C   UNL     1     -10.081  16.170  66.052  0.00  0.00    +0.258 C 
ATOM     10  O   UNL     1     -10.264  17.142  65.256  0.00  0.00    -0.272 OA
ENDROOT
BRANCH   1  11
ATOM     11  C   UNL     1      -8.215  15.787  67.667  0.00  0.00    +0.081 C 
ATOM     12  C   UNL     1      -7.678  16.915  68.775  0.00  0.00    +0.015 C 
BRANCH  11  13
ATOM     13  C   UNL     1      -7.578  16.617  66.439  0.00  0.00    -0.091 C 
ATOM     14  C   UNL     1      -6.645  17.356  66.163  0.00  0.00    -0.091 C 
BRANCH  14  15
ATOM     15  C   UNL     1      -5.877  18.528  65.701  0.00  0.00    +0.076 C 
ATOM     16  C   UNL     1      -6.795  19.694  65.355  0.00  0.00    +0.015 C 
ENDBRANCH  14  15
ENDBRANCH  11  13
ENDBRANCH   1  11
BRANCH   1  17
ATOM     17  C   UNL     1      -9.452  17.968  67.625  0.00  0.00    +0.044 C 
BRANCH  17  19
ATOM     18  C   UNL     1     -10.560  20.035  66.879  0.00  0.00    -0.005 C 
ATOM     19  C   UNL     1     -10.577  18.822  67.201  0.00  0.00    -0.025 C 
ENDBRANCH  17  19
ENDBRANCH   1  17
TORSDOF 5
ENDMDL
MODEL 6
REMARK VINA RESULT:      -5.4      2.664      3.855
REMARK  Name = 
REMARK  5 active torsions:
REMARK  status: ('A' for Active; 'I' for Inactive)
REMARK    1  A    between atoms: C_2  and  C_3
REMARK    2  A    between atoms: C_3  and  C_4
REMARK    3  A    between atoms: C_4  and  C_5
REMARK    4  A    between atoms: C_5  and  C_7
REMARK    5  A    between atoms: C_8  and  C_9
REMARK                            x       y       z     vdW  Elec       q    Type
REMARK                         _______ _______ _______ _____ _____    ______ ____
ROOT
ATOM      1  C   UNL     1      -9.927  16.251  67.654  0.00  0.00    +0.155 C 
ATOM      2  C   UNL     1      -9.479  17.540  68.105  0.00  0.00    +0.241 C 
ATOM      3  O   UNL     1      -8.415  17.632  68.788  0.00  0.00    -0.274 OA
ATOM      4  N   UNL     1      -9.840  18.720  67.378  0.00  0.00    -0.210 N 
ATOM      5  C   UNL     1      -9.697  20.029  67.995  0.00  0.00    +0.124 C 
ATOM      6  C   UNL     1     -10.369  18.688  66.060  0.00  0.00    +0.336 C 
ATOM      7  O   UNL     1     -10.781  19.739  65.481  0.00  0.00    -0.250 OA
ATOM      8  N   UNL     1     -10.665  17.385  65.539  0.00  0.00    -0.127 NA
ATOM      9  C   UNL     1     -10.246  16.187  66.203  0.00  0.00    +0.258 C 
ATOM     10  O   UNL     1      -9.604  15.345  65.501  0.00  0.00    -0.272 OA
ENDROOT
BRANCH   1  11
ATOM     11  C   UNL     1     -11.354  15.874  68.419  0.00  0.00    +0.081 C 
ATOM     12  C   UNL     1     -10.624  15.327  69.818  0.00  0.00    +0.015 C 
BRANCH  11  13
ATOM     13  C   UNL     1     -11.366  14.389  67.787  0.00  0.00    -0.091 C 
ATOM     14  C   UNL     1     -11.737  13.250  68.024  0.00  0.00    -0.091 C 
BRANCH  14  15
ATOM     15  C   UNL     1     -11.724  11.790  68.241  0.00  0.00    +0.076 C 
ATOM     16  C   UNL     1     -11.826  11.446  69.722  0.00  0.00    +0.015 C 
ENDBRANCH  14  15
ENDBRANCH  11  13
ENDBRANCH   1  11
BRANCH   1  17
ATOM     17  C   UNL     1      -8.977  15.159  68.057  0.00  0.00    +0.044 C 
BRANCH  17  19
ATOM     18  C   UNL     1      -6.582  14.683  67.748  0.00  0.00    -0.005 C 
ATOM     19  C   UNL     1      -7.652  15.249  67.417  0.00  0.00    -0.025 C 
ENDBRANCH  17  19
ENDBRANCH   1  17
TORSDOF 5
ENDMDL
MODEL 7
REMARK VINA RESULT:      -5.4      2.114      4.486
REMARK  Name = 
REMARK  5 active torsions:
REMARK  status: ('A' for Active; 'I' for Inactive)
REMARK    1  A    between atoms: C_2  and  C_3
REMARK    2  A    between atoms: C_3  and  C_4
REMARK    3  A    between atoms: C_4  and  C_5
REMARK    4  A    between atoms: C_5  and  C_7
REMARK    5  A    between atoms: C_8  and  C_9
REMARK                            x       y       z     vdW  Elec       q    Type
REMARK                         _______ _______ _______ _____ _____    ______ ____
ROOT
ATOM      1  C   UNL     1     -10.264  13.850  66.540  0.00  0.00    +0.155 C 
ATOM      2  C   UNL     1      -9.970  12.766  65.644  0.00  0.00    +0.241 C 
ATOM      3  O   UNL     1      -9.443  11.704  66.094  0.00  0.00    -0.274 OA
ATOM      4  N   UNL     1     -10.727  12.606  64.439  0.00  0.00    -0.210 N 
ATOM      5  C   UNL     1     -10.231  11.748  63.375  0.00  0.00    +0.124 C 
ATOM      6  C   UNL     1     -11.957  13.274  64.200  0.00  0.00    +0.336 C 
ATOM      7  O   UNL     1     -12.551  13.200  63.081  0.00  0.00    -0.250 OA
ATOM      8  N   UNL     1     -12.339  14.247  65.183  0.00  0.00    -0.127 NA
ATOM      9  C   UNL     1     -11.651  14.375  66.434  0.00  0.00    +0.258 C 
ATOM     10  O   UNL     1     -12.369  14.343  67.481  0.00  0.00    -0.272 OA
ENDROOT
BRANCH   1  11
ATOM     11  C   UNL     1      -9.291  15.145  66.163  0.00  0.00    +0.081 C 
ATOM     12  C   UNL     1      -8.040  14.678  67.165  0.00  0.00    +0.015 C 
BRANCH  11  13
ATOM     13  C   UNL     1      -9.949  16.051  67.324  0.00  0.00    -0.091 C 
ATOM     14  C   UNL     1     -10.018  17.206  67.714  0.00  0.00    -0.091 C 
BRANCH  14  15
ATOM     15  C   UNL     1      -9.933  18.399  68.579  0.00  0.00    +0.076 C 
ATOM     16  C   UNL     1     -10.207  19.676  67.795  0.00  0.00    +0.015 C 
ENDBRANCH  14  15
ENDBRANCH  11  13
ENDBRANCH   1  11
BRANCH   1  17
ATOM     17  C   UNL     1      -9.912  13.511  67.961  0.00  0.00    +0.044 C 
BRANCH  17  19
ATOM     18  C   UNL     1     -10.817  11.519  69.090  0.00  0.00    -0.005 C 
ATOM     19  C   UNL     1     -10.925  12.690  68.650  0.00  0.00    -0.025 C 
ENDBRANCH  17  19
ENDBRANCH   1  17
TORSDOF 5
ENDMDL
MODEL 8
REMARK VINA RESULT:      -5.4      2.138      2.574
REMARK  Name = 
REMARK  5 active torsions:
REMARK  status: ('A' for Active; 'I' for Inactive)
REMARK    1  A    between atoms: C_2  and  C_3
REMARK    2  A    between atoms: C_3  and  C_4
REMARK    3  A    between atoms: C_4  and  C_5
REMARK    4  A    between atoms: C_5  and  C_7
REMARK    5  A    between atoms: C_8  and  C_9
REMARK                            x       y       z     vdW  Elec       q    Type
REMARK                         _______ _______ _______ _____ _____    ______ ____
ROOT
ATOM      1  C   UNL     1     -11.109  14.415  68.015  0.00  0.00    +0.155 C 
ATOM      2  C   UNL     1      -9.905  15.078  67.596  0.00  0.00    +0.241 C 
ATOM      3  O   UNL     1      -8.783  14.673  68.023  0.00  0.00    -0.274 OA
ATOM      4  N   UNL     1      -9.867  15.769  66.341  0.00  0.00    -0.210 N 
ATOM      5  C   UNL     1      -8.800  16.717  66.064  0.00  0.00    +0.124 C 
ATOM      6  C   UNL     1     -10.849  15.597  65.330  0.00  0.00    +0.336 C 
ATOM      7  O   UNL     1     -10.849  16.302  64.275  0.00  0.00    -0.250 OA
ATOM      8  N   UNL     1     -11.981  14.795  65.692  0.00  0.00    -0.127 NA
ATOM      9  C   UNL     1     -12.016  14.028  66.902  0.00  0.00    +0.258 C 
ATOM     10  O   UNL     1     -12.304  12.797  66.785  0.00  0.00    -0.272 OA
ENDROOT
BRANCH   1  11
ATOM     11  C   UNL     1     -12.006  15.458  68.950  0.00  0.00    +0.081 C 
ATOM     12  C   UNL     1     -10.709  15.982  69.862  0.00  0.00    +0.015 C 
BRANCH  11  13
ATOM     13  C   UNL     1     -12.350  14.297  70.016  0.00  0.00    -0.091 C 
ATOM     14  C   UNL     1     -12.960  14.101  71.056  0.00  0.00    -0.091 C 
BRANCH  14  15
ATOM     15  C   UNL     1     -13.267  13.724  72.449  0.00  0.00    +0.076 C 
ATOM     16  C   UNL     1     -12.862  14.822  73.425  0.00  0.00    +0.015 C 
ENDBRANCH  14  15
ENDBRANCH  11  13
ENDBRANCH   1  11
BRANCH   1  17
ATOM     17  C   UNL     1     -10.818  13.250  68.917  0.00  0.00    +0.044 C 
BRANCH  17  19
ATOM     18  C   UNL     1      -9.805  11.019  68.679  0.00  0.00    -0.005 C 
ATOM     19  C   UNL     1      -9.996  12.197  68.291  0.00  0.00    -0.025 C 
ENDBRANCH  17  19
ENDBRANCH   1  17
TORSDOF 5
ENDMDL
MODEL 9
REMARK VINA RESULT:      -5.4      3.538      5.485
REMARK  Name = 
REMARK  5 active torsions:
REMARK  status: ('A' for Active; 'I' for Inactive)
REMARK    1  A    between atoms: C_2  and  C_3
REMARK    2  A    between atoms: C_3  and  C_4
REMARK    3  A    between atoms: C_4  and  C_5
REMARK    4  A    between atoms: C_5  and  C_7
REMARK    5  A    between atoms: C_8  and  C_9
REMARK                            x       y       z     vdW  Elec       q    Type
REMARK                         _______ _______ _______ _____ _____    ______ ____
ROOT
ATOM      1  C   UNL     1      -9.573  16.440  67.671  0.00  0.00    +0.155 C 
ATOM      2  C   UNL     1      -9.749  17.862  67.571  0.00  0.00    +0.241 C 
ATOM      3  O   UNL     1     -10.894  18.370  67.766  0.00  0.00    -0.274 OA
ATOM      4  N   UNL     1      -8.644  18.740  67.816  0.00  0.00    -0.210 N 
ATOM      5  C   UNL     1      -8.707  20.129  67.389  0.00  0.00    +0.124 C 
ATOM      6  C   UNL     1      -7.443  18.320  68.448  0.00  0.00    +0.336 C 
ATOM      7  O   UNL     1      -6.441  19.090  68.554  0.00  0.00    -0.250 OA
ATOM      8  N   UNL     1      -7.333  16.912  68.702  0.00  0.00    -0.127 NA
ATOM      9  C   UNL     1      -8.444  16.021  68.544  0.00  0.00    +0.258 C 
ATOM     10  O   UNL     1      -8.716  15.274  69.533  0.00  0.00    -0.272 OA
ENDROOT
BRANCH   1  11
ATOM     11  C   UNL     1      -9.198  15.832  66.170  0.00  0.00    +0.081 C 
ATOM     12  C   UNL     1     -10.677  16.207  65.492  0.00  0.00    +0.015 C 
BRANCH  11  13
ATOM     13  C   UNL     1      -9.704  14.355  66.579  0.00  0.00    -0.091 C 
ATOM     14  C   UNL     1     -10.096  13.307  66.090  0.00  0.00    -0.091 C 
BRANCH  14  15
ATOM     15  C   UNL     1     -10.938  12.135  65.780  0.00  0.00    +0.076 C 
ATOM     16  C   UNL     1     -12.244  12.549  65.114  0.00  0.00    +0.015 C 
ENDBRANCH  14  15
ENDBRANCH  11  13
ENDBRANCH   1  11
BRANCH   1  17
ATOM     17  C   UNL     1     -10.850  15.747  68.055  0.00  0.00    +0.044 C 
BRANCH  17  19
ATOM     18  C   UNL     1     -12.314  15.609  70.030  0.00  0.00    -0.005 C 
ATOM     19  C   UNL     1     -11.332  16.083  69.408  0.00  0.00    -0.025 C 
ENDBRANCH  17  19
ENDBRANCH   1  17
TORSDOF 5
ENDMDL
