MODEL 1
REMARK VINA RESULT:      -4.2      0.000      0.000
REMARK  Name = 
REMARK  3 active torsions:
REMARK  status: ('A' for Active; 'I' for Inactive)
REMARK    1  A    between atoms: N_2  and  C_3
REMARK    2  A    between atoms: C_3  and  C_5
REMARK    3  A    between atoms: C_5  and  C_6
REMARK                            x       y       z     vdW  Elec       q    Type
REMARK                         _______ _______ _______ _____ _____    ______ ____
ROOT
ATOM      1  C   UNL     1     -11.680  14.228  70.220  0.00  0.00    +0.001 C 
ATOM      2  C   UNL     1     -11.508  13.348  69.034  0.00  0.00    +0.000 C 
ATOM      3  C   UNL     1     -11.916  13.997  67.745  0.00  0.00    +0.000 C 
ATOM      4  C   UNL     1     -11.085  15.235  67.580  0.00  0.00    +0.000 C 
ATOM      5  C   UNL     1     -11.389  16.206  68.659  0.00  0.00    +0.000 C 
ATOM      6  C   UNL     1     -11.723  15.678  69.986  0.00  0.00    +0.000 C 
ENDROOT
BRANCH   1   7
ATOM      7  C   UNL     1     -12.880  13.846  71.079  0.00  0.00    +0.017 C 
BRANCH   7   8
ATOM      8  C   UNL     1     -13.228  15.292  71.768  0.00  0.00    +0.073 C 
ATOM      9  C   UNL     1     -14.842  15.056  71.609  0.00  0.00    +0.019 C 
BRANCH   8  11
ATOM     10  C   UNL     1     -12.492  15.452  73.963  0.00  0.00    +0.107 C 
ATOM     11  N   UNL     1     -13.217  14.677  73.213  0.00  0.00    -0.218 NA
ENDBRANCH   8  11
ENDBRANCH   7   8
ENDBRANCH   1   7
TORSDOF 3
ENDMDL
MODEL 2
REMARK VINA RESULT:      -4.2      2.361      4.818
REMARK  Name = 
REMARK  3 active torsions:
REMARK  status: ('A' for Active; 'I' for Inactive)
REMARK    1  A    between atoms: N_2  and  C_3
REMARK    2  A    between atoms: C_3  and  C_5
REMARK    3  A    between atoms: C_5  and  C_6
REMARK                            x       y       z     vdW  Elec       q    Type
REMARK                         _______ _______ _______ _____ _____    ______ ____
ROOT
ATOM      1  C   UNL     1     -11.608  15.044  70.638  0.00  0.00    +0.001 C 
ATOM      2  C   UNL     1     -11.890  15.982  71.757  0.00  0.00    +0.000 C 
ATOM      3  C   UNL     1     -13.224  15.756  72.404  0.00  0.00    +0.000 C 
ATOM      4  C   UNL     1     -13.248  14.345  72.910  0.00  0.00    +0.000 C 
ATOM      5  C   UNL     1     -13.158  13.390  71.778  0.00  0.00    +0.000 C 
ATOM      6  C   UNL     1     -12.349  13.775  70.616  0.00  0.00    +0.000 C 
ENDROOT
BRANCH   1   7
ATOM      7  C   UNL     1     -11.734  15.695  69.266  0.00  0.00    +0.017 C 
BRANCH   7   8
ATOM      8  C   UNL     1     -10.463  16.729  69.306  0.00  0.00    +0.073 C 
ATOM      9  C   UNL     1      -9.547  15.746  68.368  0.00  0.00    +0.019 C 
BRANCH   8  11
ATOM     10  C   UNL     1     -10.177  18.519  67.857  0.00  0.00    +0.107 C 
ATOM     11  N   UNL     1     -10.992  17.527  68.062  0.00  0.00    -0.218 NA
ENDBRANCH   8  11
ENDBRANCH   7   8
ENDBRANCH   1   7
TORSDOF 3
ENDMDL
MODEL 3
REMARK VINA RESULT:      -4.1      2.165      4.593
REMARK  Name = 
REMARK  3 active torsions:
REMARK  status: ('A' for Active; 'I' for Inactive)
REMARK    1  A    between atoms: N_2  and  C_3
REMARK    2  A    between atoms: C_3  and  C_5
REMARK    3  A    between atoms: C_5  and  C_6
REMARK                            x       y       z     vdW  Elec       q    Type
REMARK                         _______ _______ _______ _____ _____    ______ ____
ROOT
ATOM      1  C   UNL     1     -12.807  14.952  70.532  0.00  0.00    +0.001 C 
ATOM      2  C   UNL     1     -13.734  14.263  71.469  0.00  0.00    +0.000 C 
ATOM      3  C   UNL     1     -13.241  14.236  72.885  0.00  0.00    +0.000 C 
ATOM      4  C   UNL     1     -13.045  15.658  73.322  0.00  0.00    +0.000 C 
ATOM      5  C   UNL     1     -11.982  16.303  72.514  0.00  0.00    +0.000 C 
ATOM      6  C   UNL     1     -11.851  15.908  71.107  0.00  0.00    +0.000 C 
ENDROOT
BRANCH   1   7
ATOM      7  C   UNL     1     -12.038  13.988  69.635  0.00  0.00    +0.017 C 
BRANCH   7   8
ATOM      8  C   UNL     1     -11.353  15.041  68.582  0.00  0.00    +0.073 C 
ATOM      9  C   UNL     1     -10.025  14.099  68.401  0.00  0.00    +0.019 C 
BRANCH   8  11
ATOM     10  C   UNL     1     -11.725  13.121  67.331  0.00  0.00    +0.107 C 
ATOM     11  N   UNL     1     -12.070  14.375  67.353  0.00  0.00    -0.218 NA
ENDBRANCH   8  11
ENDBRANCH   7   8
ENDBRANCH   1   7
TORSDOF 3
ENDMDL
MODEL 4
REMARK VINA RESULT:      -4.0      2.224      4.614
REMARK  Name = 
REMARK  3 active torsions:
REMARK  status: ('A' for Active; 'I' for Inactive)
REMARK    1  A    between atoms: N_2  and  C_3
REMARK    2  A    between atoms: C_3  and  C_5
REMARK    3  A    between atoms: C_5  and  C_6
REMARK                            x       y       z     vdW  Elec       q    Type
REMARK                         _______ _______ _______ _____ _____    ______ ____
ROOT
ATOM      1  C   UNL     1     -12.155  15.756  70.788  0.00  0.00    +0.001 C 
ATOM      2  C   UNL     1     -12.843  14.502  70.384  0.00  0.00    +0.000 C 
ATOM      3  C   UNL     1     -12.810  13.435  71.438  0.00  0.00    +0.000 C 
ATOM      4  C   UNL     1     -13.462  13.996  72.667  0.00  0.00    +0.000 C 
ATOM      5  C   UNL     1     -12.675  15.138  73.193  0.00  0.00    +0.000 C 
ATOM      6  C   UNL     1     -11.988  16.002  72.227  0.00  0.00    +0.000 C 
ENDROOT
BRANCH   1   7
ATOM      7  C   UNL     1     -10.801  15.940  70.111  0.00  0.00    +0.017 C 
BRANCH   7   8
ATOM      8  C   UNL     1     -11.276  16.285  68.580  0.00  0.00    +0.073 C 
ATOM      9  C   UNL     1     -10.248  17.557  68.476  0.00  0.00    +0.019 C 
BRANCH   8  11
ATOM     10  C   UNL     1     -10.823  14.602  67.048  0.00  0.00    +0.107 C 
ATOM     11  N   UNL     1     -10.220  15.300  67.964  0.00  0.00    -0.218 NA
ENDBRANCH   8  11
ENDBRANCH   7   8
ENDBRANCH   1   7
TORSDOF 3
ENDMDL
MODEL 5
REMARK VINA RESULT:      -4.0      2.297      4.798
REMARK  Name = 
REMARK  3 active torsions:
REMARK  status: ('A' for Active; 'I' for Inactive)
REMARK    1  A    between atoms: N_2  and  C_3
REMARK    2  A    between atoms: C_3  and  C_5
REMARK    3  A    between atoms: C_5  and  C_6
REMARK                            x       y       z     vdW  Elec       q    Type
REMARK                         _______ _______ _______ _____ _____    ______ ____
ROOT
ATOM      1  C   UNL     1     -11.991  14.215  70.280  0.00  0.00    +0.001 C 
ATOM      2  C   UNL     1     -12.644  15.455  70.776  0.00  0.00    +0.000 C 
ATOM      3  C   UNL     1     -13.993  15.216  71.387  0.00  0.00    +0.000 C 
ATOM      4  C   UNL     1     -13.811  14.253  72.522  0.00  0.00    +0.000 C 
ATOM      5  C   UNL     1     -13.336  12.942  72.014  0.00  0.00    +0.000 C 
ATOM      6  C   UNL     1     -12.440  12.938  70.853  0.00  0.00    +0.000 C 
ENDROOT
BRANCH   1   7
ATOM      7  C   UNL     1     -12.016  14.092  68.761  0.00  0.00    +0.017 C 
BRANCH   7   8
ATOM      8  C   UNL     1     -11.170  15.431  68.338  0.00  0.00    +0.073 C 
ATOM      9  C   UNL     1      -9.733  14.676  68.563  0.00  0.00    +0.019 C 
BRANCH   8  11
ATOM     10  C   UNL     1     -12.068  14.087  66.672  0.00  0.00    +0.107 C 
ATOM     11  N   UNL     1     -11.204  15.048  66.815  0.00  0.00    -0.218 NA
ENDBRANCH   8  11
ENDBRANCH   7   8
ENDBRANCH   1   7
TORSDOF 3
ENDMDL
MODEL 6
REMARK VINA RESULT:      -4.0      3.717      5.817
REMARK  Name = 
REMARK  3 active torsions:
REMARK  status: ('A' for Active; 'I' for Inactive)
REMARK    1  A    between atoms: N_2  and  C_3
REMARK    2  A    between atoms: C_3  and  C_5
REMARK    3  A    between atoms: C_5  and  C_6
REMARK                            x       y       z     vdW  Elec       q    Type
REMARK                         _______ _______ _______ _____ _____    ______ ____
ROOT
ATOM      1  C   UNL     1     -12.255  12.547  65.231  0.00  0.00    +0.001 C 
ATOM      2  C   UNL     1     -12.024  12.409  63.769  0.00  0.00    +0.000 C 
ATOM      3  C   UNL     1     -10.618  12.018  63.420  0.00  0.00    +0.000 C 
ATOM      4  C   UNL     1     -10.329  10.715  64.103  0.00  0.00    +0.000 C 
ATOM      5  C   UNL     1     -10.371  10.884  65.576  0.00  0.00    +0.000 C 
ATOM      6  C   UNL     1     -11.330  11.844  66.132  0.00  0.00    +0.000 C 
ENDROOT
BRANCH   1   7
ATOM      7  C   UNL     1     -12.354  13.999  65.687  0.00  0.00    +0.017 C 
BRANCH   7   8
ATOM      8  C   UNL     1     -10.902  14.181  66.425  0.00  0.00    +0.073 C 
ATOM      9  C   UNL     1     -10.449  15.368  65.390  0.00  0.00    +0.019 C 
BRANCH   8  11
ATOM     10  C   UNL     1     -11.521  14.634  68.616  0.00  0.00    +0.107 C 
ATOM     11  N   UNL     1     -11.485  15.215  67.454  0.00  0.00    -0.218 NA
ENDBRANCH   8  11
ENDBRANCH   7   8
ENDBRANCH   1   7
TORSDOF 3
ENDMDL
MODEL 7
REMARK VINA RESULT:      -3.9      1.376      2.265
REMARK  Name = 
REMARK  3 active torsions:
REMARK  status: ('A' for Active; 'I' for Inactive)
REMARK    1  A    between atoms: N_2  and  C_3
REMARK    2  A    between atoms: C_3  and  C_5
REMARK    3  A    between atoms: C_5  and  C_6
REMARK                            x       y       z     vdW  Elec       q    Type
REMARK                         _______ _______ _______ _____ _____    ______ ____
ROOT
ATOM      1  C   UNL     1     -12.336  13.765  70.080  0.00  0.00    +0.001 C 
ATOM      2  C   UNL     1     -11.956  14.303  68.747  0.00  0.00    +0.000 C 
ATOM      3  C   UNL     1     -10.952  13.454  68.024  0.00  0.00    +0.000 C 
ATOM      4  C   UNL     1     -11.548  12.087  67.866  0.00  0.00    +0.000 C 
ATOM      5  C   UNL     1     -11.757  11.459  69.194  0.00  0.00    +0.000 C 
ATOM      6  C   UNL     1     -12.123  12.330  70.316  0.00  0.00    +0.000 C 
ENDROOT
BRANCH   1   7
ATOM      7  C   UNL     1     -11.711  14.537  71.236  0.00  0.00    +0.017 C 
BRANCH   7   8
ATOM      8  C   UNL     1     -12.834  15.712  71.453  0.00  0.00    +0.073 C 
ATOM      9  C   UNL     1     -13.755  14.748  72.407  0.00  0.00    +0.019 C 
BRANCH   8  11
ATOM     10  C   UNL     1     -12.604  15.806  73.761  0.00  0.00    +0.107 C 
ATOM     11  N   UNL     1     -12.066  16.305  72.688  0.00  0.00    -0.218 NA
ENDBRANCH   8  11
ENDBRANCH   7   8
ENDBRANCH   1   7
TORSDOF 3
ENDMDL
MODEL 8
REMARK VINA RESULT:      -3.8      3.103      4.867
REMARK  Name = 
REMARK  3 active torsions:
REMARK  status: ('A' for Active; 'I' for Inactive)
REMARK    1  A    between atoms: N_2  and  C_3
REMARK    2  A    between atoms: C_3  and  C_5
REMARK    3  A    between atoms: C_5  and  C_6
REMARK                            x       y       z     vdW  Elec       q    Type
REMARK                         _______ _______ _______ _____ _____    ______ ____
ROOT
ATOM      1  C   UNL     1     -11.752  12.469  66.254  0.00  0.00    +0.001 C 
ATOM      2  C   UNL     1     -12.578  13.517  65.598  0.00  0.00    +0.000 C 
ATOM      3  C   UNL     1     -12.087  13.897  64.233  0.00  0.00    +0.000 C 
ATOM      4  C   UNL     1     -12.084  12.656  63.392  0.00  0.00    +0.000 C 
ATOM      5  C   UNL     1     -11.117  11.669  63.932  0.00  0.00    +0.000 C 
ATOM      6  C   UNL     1     -10.934  11.611  65.386  0.00  0.00    +0.000 C 
ENDROOT
BRANCH   1   7
ATOM      7  C   UNL     1     -10.860  13.018  67.362  0.00  0.00    +0.017 C 
BRANCH   7   8
ATOM      8  C   UNL     1     -11.919  13.994  68.144  0.00  0.00    +0.073 C 
ATOM      9  C   UNL     1     -11.811  13.118  69.524  0.00  0.00    +0.019 C 
BRANCH   8  11
ATOM     10  C   UNL     1     -11.285  16.167  68.655  0.00  0.00    +0.107 C 
ATOM     11  N   UNL     1     -10.778  14.972  68.601  0.00  0.00    -0.218 NA
ENDBRANCH   8  11
ENDBRANCH   7   8
ENDBRANCH   1   7
TORSDOF 3
ENDMDL
MODEL 9
REMARK VINA RESULT:      -3.8      5.809      7.807
REMARK  Name = 
REMARK  3 active torsions:
REMARK  status: ('A' for Active; 'I' for Inactive)
REMARK    1  A    between atoms: N_2  and  C_3
REMARK    2  A    between atoms: C_3  and  C_5
REMARK    3  A    between atoms: C_5  and  C_6
REMARK                            x       y       z     vdW  Elec       q    Type
REMARK                         _______ _______ _______ _____ _____    ______ ____
ROOT
ATOM      1  C   UNL     1      -7.914  19.943  67.433  0.00  0.00    +0.001 C 
ATOM      2  C   UNL     1      -7.775  19.379  68.801  0.00  0.00    +0.000 C 
ATOM      3  C   UNL     1      -6.351  19.261  69.257  0.00  0.00    +0.000 C 
ATOM      4  C   UNL     1      -5.748  20.633  69.214  0.00  0.00    +0.000 C 
ATOM      5  C   UNL     1      -5.707  21.134  67.818  0.00  0.00    +0.000 C 
ATOM      6  C   UNL     1      -6.797  20.746  66.916  0.00  0.00    +0.000 C 
ENDROOT
BRANCH   1   7
ATOM      7  C   UNL     1      -8.274  18.895  66.387  0.00  0.00    +0.017 C 
BRANCH   7   8
ATOM      8  C   UNL     1      -9.757  18.440  66.916  0.00  0.00    +0.073 C 
ATOM      9  C   UNL     1     -10.480  19.724  66.199  0.00  0.00    +0.019 C 
BRANCH   8  11
ATOM     10  C   UNL     1     -10.244  16.325  66.092  0.00  0.00    +0.107 C 
ATOM     11  N   UNL     1      -9.994  17.526  65.661  0.00  0.00    -0.218 NA
ENDBRANCH   8  11
ENDBRANCH   7   8
ENDBRANCH   1   7
TORSDOF 3
ENDMDL
