MODEL 1
REMARK VINA RESULT:      -7.3      0.000      0.000
REMARK  Name = 
REMARK  3 active torsions:
REMARK  status: ('A' for Active; 'I' for Inactive)
REMARK    1  A    between atoms: C_2  and  O_4
REMARK    2  A    between atoms: O_4  and  C_5
REMARK    3  A    between atoms: C_5  and  C_6
REMARK                            x       y       z     vdW  Elec       q    Type
REMARK                         _______ _______ _______ _____ _____    ______ ____
ROOT
ATOM      1  C   UNL     1     -11.248  12.566  66.752  0.00  0.00    +0.186 C 
ATOM      2  C   UNL     1     -10.965  11.727  67.904  0.00  0.00    +0.040 C 
ATOM      3  C   UNL     1     -11.021  10.301  67.153  0.00  0.00    +0.008 C 
ATOM      4  C   UNL     1     -10.064   9.551  68.324  0.00  0.00    +0.022 C 
ATOM      5  C   UNL     1     -11.369   9.391  69.382  0.00  0.00    +0.008 C 
ATOM      6  C   UNL     1     -11.091  10.830  70.077  0.00  0.00    +0.001 C 
ATOM      7  C   UNL     1     -10.518   8.569  70.482  0.00  0.00    +0.020 C 
ATOM      8  C   UNL     1     -10.687   7.192  69.924  0.00  0.00    -0.020 C 
ATOM      9  C   UNL     1     -10.847   6.176  70.726  0.00  0.00    +0.033 C 
ATOM     10  C   UNL     1     -11.067   6.353  72.156  0.00  0.00    +0.173 C 
ATOM     11  C   UNL     1     -10.635   7.665  72.720  0.00  0.00    +0.069 C 
ATOM     12  O   UNL     1     -11.658   5.528  72.882  0.00  0.00    -0.291 OA
ATOM     13  C   UNL     1     -10.252   7.085  68.525  0.00  0.00    -0.009 C 
ATOM     14  C   UNL     1      -9.125   9.024  70.546  0.00  0.00    +0.004 C 
ATOM     15  C   UNL     1     -11.174   8.748  71.810  0.00  0.00    +0.012 C 
ATOM     16  C   UNL     1     -10.311   8.122  67.698  0.00  0.00    -0.027 C 
ATOM     17  C   UNL     1      -9.749  10.714  66.243  0.00  0.00    +0.004 C 
ATOM     18  C   UNL     1      -9.499  11.996  68.235  0.00  0.00    +0.004 C 
ATOM     19  C   UNL     1     -11.840  11.715  69.074  0.00  0.00    +0.004 C 
ATOM     20  C   UNL     1     -10.041  12.171  65.907  0.00  0.00    +0.047 C 
ENDROOT
BRANCH   1  21
ATOM     21  C   UNL     1     -11.266  13.979  67.138  0.00  0.00    +0.187 C 
ATOM     22  O   UNL     1     -12.210  14.317  67.851  0.00  0.00    -0.292 OA
ATOM     23  C   UNL     1     -10.213  14.973  66.873  0.00  0.00    +0.076 C 
ENDBRANCH   1  21
BRANCH   1  24
ATOM     24  O   UNL     1     -12.356  12.290  65.949  0.00  0.00    -0.449 OA
BRANCH  24  26
ATOM     25  C   UNL     1     -11.854  12.200  63.484  0.00  0.00    +0.121 C 
ATOM     26  C   UNL     1     -12.310  12.861  64.670  0.00  0.00    +0.318 C 
ATOM     27  O   UNL     1     -12.753  14.045  64.569  0.00  0.00    -0.250 OA
ENDBRANCH  24  26
ENDBRANCH   1  24
TORSDOF 3
ENDMDL
MODEL 2
REMARK VINA RESULT:      -7.0      4.050      8.392
REMARK  Name = 
REMARK  3 active torsions:
REMARK  status: ('A' for Active; 'I' for Inactive)
REMARK    1  A    between atoms: C_2  and  O_4
REMARK    2  A    between atoms: O_4  and  C_5
REMARK    3  A    between atoms: C_5  and  C_6
REMARK                            x       y       z     vdW  Elec       q    Type
REMARK                         _______ _______ _______ _____ _____    ______ ____
ROOT
ATOM      1  C   UNL     1     -10.372  12.894  65.975  0.00  0.00    +0.186 C 
ATOM      2  C   UNL     1      -9.891  14.081  66.661  0.00  0.00    +0.040 C 
ATOM      3  C   UNL     1     -10.460  15.176  65.622  0.00  0.00    +0.008 C 
ATOM      4  C   UNL     1     -10.464  16.400  66.785  0.00  0.00    +0.022 C 
ATOM      5  C   UNL     1      -8.804  16.655  66.618  0.00  0.00    +0.008 C 
ATOM      6  C   UNL     1      -8.437  15.567  67.765  0.00  0.00    +0.001 C 
ATOM      7  C   UNL     1      -8.782  17.906  67.638  0.00  0.00    +0.020 C 
ATOM      8  C   UNL     1      -9.135  18.996  66.677  0.00  0.00    -0.020 C 
ATOM      9  C   UNL     1      -8.569  20.166  66.777  0.00  0.00    +0.033 C 
ATOM     10  C   UNL     1      -7.447  20.403  67.678  0.00  0.00    +0.173 C 
ATOM     11  C   UNL     1      -7.292  19.421  68.791  0.00  0.00    +0.069 C 
ATOM     12  O   UNL     1      -6.594  21.298  67.515  0.00  0.00    -0.291 OA
ATOM     13  C   UNL     1     -10.391  18.740  65.959  0.00  0.00    -0.009 C 
ATOM     14  C   UNL     1      -9.744  17.736  68.732  0.00  0.00    +0.004 C 
ATOM     15  C   UNL     1      -7.402  18.035  68.190  0.00  0.00    +0.012 C 
ATOM     16  C   UNL     1     -10.808  17.505  65.709  0.00  0.00    -0.027 C 
ATOM     17  C   UNL     1     -11.978  14.726  65.956  0.00  0.00    +0.004 C 
ATOM     18  C   UNL     1     -10.748  14.180  67.921  0.00  0.00    +0.004 C 
ATOM     19  C   UNL     1      -8.467  14.304  66.898  0.00  0.00    +0.004 C 
ATOM     20  C   UNL     1     -11.863  13.208  66.036  0.00  0.00    +0.047 C 
ENDROOT
BRANCH   1  21
ATOM     21  C   UNL     1      -9.989  11.687  66.711  0.00  0.00    +0.187 C 
ATOM     22  O   UNL     1     -10.921  11.059  67.213  0.00  0.00    -0.292 OA
ATOM     23  C   UNL     1      -8.643  11.097  66.788  0.00  0.00    +0.076 C 
ENDBRANCH   1  21
BRANCH   1  24
ATOM     24  O   UNL     1     -10.095  12.717  64.618  0.00  0.00    -0.449 OA
BRANCH  24  26
ATOM     25  C   UNL     1     -12.196  12.041  63.408  0.00  0.00    +0.121 C 
ATOM     26  C   UNL     1     -10.907  11.775  63.972  0.00  0.00    +0.318 C 
ATOM     27  O   UNL     1     -10.422  10.609  63.850  0.00  0.00    -0.250 OA
ENDBRANCH  24  26
ENDBRANCH   1  24
TORSDOF 3
ENDMDL
MODEL 3
REMARK VINA RESULT:      -6.8      4.196      7.531
REMARK  Name = 
REMARK  3 active torsions:
REMARK  status: ('A' for Active; 'I' for Inactive)
REMARK    1  A    between atoms: C_2  and  O_4
REMARK    2  A    between atoms: O_4  and  C_5
REMARK    3  A    between atoms: C_5  and  C_6
REMARK                            x       y       z     vdW  Elec       q    Type
REMARK                         _______ _______ _______ _____ _____    ______ ____
ROOT
ATOM      1  C   UNL     1      -7.630  18.622  67.247  0.00  0.00    +0.186 C 
ATOM      2  C   UNL     1      -8.480  17.464  67.026  0.00  0.00    +0.040 C 
ATOM      3  C   UNL     1      -8.926  17.228  68.558  0.00  0.00    +0.008 C 
ATOM      4  C   UNL     1     -10.327  16.400  68.111  0.00  0.00    +0.022 C 
ATOM      5  C   UNL     1      -9.471  14.975  67.819  0.00  0.00    +0.008 C 
ATOM      6  C   UNL     1      -9.200  15.357  66.266  0.00  0.00    +0.001 C 
ATOM      7  C   UNL     1     -10.797  14.114  67.495  0.00  0.00    +0.020 C 
ATOM      8  C   UNL     1     -11.161  13.714  68.889  0.00  0.00    -0.020 C 
ATOM      9  C   UNL     1     -11.637  12.523  69.125  0.00  0.00    +0.033 C 
ATOM     10  C   UNL     1     -11.646  11.482  68.104  0.00  0.00    +0.173 C 
ATOM     11  C   UNL     1     -11.542  11.958  66.694  0.00  0.00    +0.069 C 
ATOM     12  O   UNL     1     -11.645  10.259  68.350  0.00  0.00    -0.291 OA
ATOM     13  C   UNL     1     -11.313  14.863  69.791  0.00  0.00    -0.009 C 
ATOM     14  C   UNL     1     -11.818  14.919  66.816  0.00  0.00    +0.004 C 
ATOM     15  C   UNL     1     -10.406  12.958  66.636  0.00  0.00    +0.012 C 
ATOM     16  C   UNL     1     -10.633  15.988  69.605  0.00  0.00    -0.027 C 
ATOM     17  C   UNL     1      -9.670  18.665  68.578  0.00  0.00    +0.004 C 
ATOM     18  C   UNL     1      -9.701  18.010  66.289  0.00  0.00    +0.004 C 
ATOM     19  C   UNL     1      -7.953  16.226  66.459  0.00  0.00    +0.004 C 
ATOM     20  C   UNL     1      -8.693  19.554  67.818  0.00  0.00    +0.047 C 
ENDROOT
BRANCH   1  21
ATOM     21  C   UNL     1      -7.054  19.083  65.981  0.00  0.00    +0.187 C 
ATOM     22  O   UNL     1      -7.573  20.091  65.504  0.00  0.00    -0.292 OA
ATOM     23  C   UNL     1      -5.855  18.546  65.317  0.00  0.00    +0.076 C 
ENDBRANCH   1  21
BRANCH   1  24
ATOM     24  O   UNL     1      -6.631  18.573  68.221  0.00  0.00    -0.449 OA
BRANCH  24  26
ATOM     25  C   UNL     1      -5.673  20.900  68.172  0.00  0.00    +0.121 C 
ATOM     26  C   UNL     1      -6.333  19.806  68.817  0.00  0.00    +0.318 C 
ATOM     27  O   UNL     1      -6.730  19.959  70.013  0.00  0.00    -0.250 OA
ENDBRANCH  24  26
ENDBRANCH   1  24
TORSDOF 3
ENDMDL
MODEL 4
REMARK VINA RESULT:      -6.8      4.912      8.624
REMARK  Name = 
REMARK  3 active torsions:
REMARK  status: ('A' for Active; 'I' for Inactive)
REMARK    1  A    between atoms: C_2  and  O_4
REMARK    2  A    between atoms: O_4  and  C_5
REMARK    3  A    between atoms: C_5  and  C_6
REMARK                            x       y       z     vdW  Elec       q    Type
REMARK                         _______ _______ _______ _____ _____    ______ ____
ROOT
ATOM      1  C   UNL     1      -6.361  18.933  68.075  0.00  0.00    +0.186 C 
ATOM      2  C   UNL     1      -7.236  17.927  67.495  0.00  0.00    +0.040 C 
ATOM      3  C   UNL     1      -8.358  17.923  68.654  0.00  0.00    +0.008 C 
ATOM      4  C   UNL     1      -9.545  17.315  67.620  0.00  0.00    +0.022 C 
ATOM      5  C   UNL     1      -8.955  15.741  67.759  0.00  0.00    +0.008 C 
ATOM      6  C   UNL     1      -7.948  15.917  66.500  0.00  0.00    +0.001 C 
ATOM      7  C   UNL     1     -10.140  15.100  66.868  0.00  0.00    +0.020 C 
ATOM      8  C   UNL     1     -11.161  14.907  67.942  0.00  0.00    -0.020 C 
ATOM      9  C   UNL     1     -11.920  13.847  67.941  0.00  0.00    +0.033 C 
ATOM     10  C   UNL     1     -11.681  12.731  67.034  0.00  0.00    +0.173 C 
ATOM     11  C   UNL     1     -10.864  13.043  65.825  0.00  0.00    +0.069 C 
ATOM     12  O   UNL     1     -12.036  11.556  67.258  0.00  0.00    -0.291 OA
ATOM     13  C   UNL     1     -11.466  16.146  68.670  0.00  0.00    -0.009 C 
ATOM     14  C   UNL     1     -10.563  16.003  65.793  0.00  0.00    +0.004 C 
ATOM     15  C   UNL     1      -9.647  13.816  66.289  0.00  0.00    +0.012 C 
ATOM     16  C   UNL     1     -10.564  17.110  68.810  0.00  0.00    -0.027 C 
ATOM     17  C   UNL     1      -8.726  19.463  68.325  0.00  0.00    +0.004 C 
ATOM     18  C   UNL     1      -7.861  18.606  66.278  0.00  0.00    +0.004 C 
ATOM     19  C   UNL     1      -6.772  16.566  67.238  0.00  0.00    +0.004 C 
ATOM     20  C   UNL     1      -7.356  20.088  68.092  0.00  0.00    +0.047 C 
ENDROOT
BRANCH   1  21
ATOM     21  C   UNL     1      -5.200  19.161  67.212  0.00  0.00    +0.187 C 
ATOM     22  O   UNL     1      -5.234  20.196  66.548  0.00  0.00    -0.292 OA
ATOM     23  C   UNL     1      -3.969  18.356  67.169  0.00  0.00    +0.076 C 
ENDBRANCH   1  21
BRANCH   1  24
ATOM     24  O   UNL     1      -5.937  18.802  69.398  0.00  0.00    -0.449 OA
BRANCH  24  26
ATOM     25  C   UNL     1      -4.471  20.810  69.795  0.00  0.00    +0.121 C 
ATOM     26  C   UNL     1      -5.634  20.011  70.039  0.00  0.00    +0.318 C 
ATOM     27  O   UNL     1      -6.497  20.437  70.866  0.00  0.00    -0.250 OA
ENDBRANCH  24  26
ENDBRANCH   1  24
TORSDOF 3
ENDMDL
MODEL 5
REMARK VINA RESULT:      -6.8      1.562      7.272
REMARK  Name = 
REMARK  3 active torsions:
REMARK  status: ('A' for Active; 'I' for Inactive)
REMARK    1  A    between atoms: C_2  and  O_4
REMARK    2  A    between atoms: O_4  and  C_5
REMARK    3  A    between atoms: C_5  and  C_6
REMARK                            x       y       z     vdW  Elec       q    Type
REMARK                         _______ _______ _______ _____ _____    ______ ____
ROOT
ATOM      1  C   UNL     1     -10.147   7.367  69.618  0.00  0.00    +0.186 C 
ATOM      2  C   UNL     1     -10.060   8.423  68.624  0.00  0.00    +0.040 C 
ATOM      3  C   UNL     1     -11.036   9.483  69.349  0.00  0.00    +0.008 C 
ATOM      4  C   UNL     1     -10.348  10.797  68.542  0.00  0.00    +0.022 C 
ATOM      5  C   UNL     1     -11.228  10.480  67.138  0.00  0.00    +0.008 C 
ATOM      6  C   UNL     1     -10.079   9.508  66.535  0.00  0.00    +0.001 C 
ATOM      7  C   UNL     1     -10.683  11.791  66.368  0.00  0.00    +0.020 C 
ATOM      8  C   UNL     1     -11.677  12.788  66.873  0.00  0.00    -0.020 C 
ATOM      9  C   UNL     1     -12.132  13.717  66.080  0.00  0.00    +0.033 C 
ATOM     10  C   UNL     1     -11.858  13.708  64.648  0.00  0.00    +0.173 C 
ATOM     11  C   UNL     1     -10.681  12.898  64.219  0.00  0.00    +0.069 C 
ATOM     12  O   UNL     1     -12.585  14.251  63.792  0.00  0.00    -0.291 OA
ATOM     13  C   UNL     1     -11.732  12.847  68.340  0.00  0.00    -0.009 C 
ATOM     14  C   UNL     1      -9.293  12.096  66.727  0.00  0.00    +0.004 C 
ATOM     15  C   UNL     1     -10.788  11.549  64.900  0.00  0.00    +0.012 C 
ATOM     16  C   UNL     1     -11.450  11.788  69.089  0.00  0.00    -0.027 C 
ATOM     17  C   UNL     1     -10.014   9.594  70.597  0.00  0.00    +0.004 C 
ATOM     18  C   UNL     1      -8.640   8.969  68.755  0.00  0.00    +0.004 C 
ATOM     19  C   UNL     1     -10.484   8.210  67.243  0.00  0.00    +0.004 C 
ATOM     20  C   UNL     1      -9.580   8.147  70.800  0.00  0.00    +0.047 C 
ENDROOT
BRANCH   1  21
ATOM     21  C   UNL     1      -9.330   6.219  69.218  0.00  0.00    +0.187 C 
ATOM     22  O   UNL     1      -8.225   6.147  69.756  0.00  0.00    -0.292 OA
ATOM     23  C   UNL     1      -9.751   5.101  68.360  0.00  0.00    +0.076 C 
ENDBRANCH   1  21
BRANCH   1  24
ATOM     24  O   UNL     1     -11.398   6.920  70.046  0.00  0.00    -0.449 OA
BRANCH  24  26
ATOM     25  C   UNL     1     -10.800   5.345  71.917  0.00  0.00    +0.121 C 
ATOM     26  C   UNL     1     -11.445   6.507  71.385  0.00  0.00    +0.318 C 
ATOM     27  O   UNL     1     -12.081   7.264  72.181  0.00  0.00    -0.250 OA
ENDBRANCH  24  26
ENDBRANCH   1  24
TORSDOF 3
ENDMDL
MODEL 6
REMARK VINA RESULT:      -6.5      3.699      8.701
REMARK  Name = 
REMARK  3 active torsions:
REMARK  status: ('A' for Active; 'I' for Inactive)
REMARK    1  A    between atoms: C_2  and  O_4
REMARK    2  A    between atoms: O_4  and  C_5
REMARK    3  A    between atoms: C_5  and  C_6
REMARK                            x       y       z     vdW  Elec       q    Type
REMARK                         _______ _______ _______ _____ _____    ______ ____
ROOT
ATOM      1  C   UNL     1     -11.333  13.767  67.378  0.00  0.00    +0.186 C 
ATOM      2  C   UNL     1     -10.175  14.643  67.330  0.00  0.00    +0.040 C 
ATOM      3  C   UNL     1     -10.902  15.990  67.840  0.00  0.00    +0.008 C 
ATOM      4  C   UNL     1      -9.453  16.670  68.375  0.00  0.00    +0.022 C 
ATOM      5  C   UNL     1      -9.015  17.132  66.813  0.00  0.00    +0.008 C 
ATOM      6  C   UNL     1      -8.250  15.731  66.523  0.00  0.00    +0.001 C 
ATOM      7  C   UNL     1      -7.675  17.894  67.294  0.00  0.00    +0.020 C 
ATOM      8  C   UNL     1      -8.270  19.228  67.617  0.00  0.00    -0.020 C 
ATOM      9  C   UNL     1      -7.614  20.320  67.343  0.00  0.00    +0.033 C 
ATOM     10  C   UNL     1      -6.393  20.305  66.546  0.00  0.00    +0.173 C 
ATOM     11  C   UNL     1      -5.686  18.993  66.470  0.00  0.00    +0.069 C 
ATOM     12  O   UNL     1      -5.978  21.275  65.879  0.00  0.00    -0.291 OA
ATOM     13  C   UNL     1      -9.375  19.142  68.580  0.00  0.00    -0.009 C 
ATOM     14  C   UNL     1      -7.048  17.225  68.439  0.00  0.00    +0.004 C 
ATOM     15  C   UNL     1      -6.723  17.939  66.146  0.00  0.00    +0.012 C 
ATOM     16  C   UNL     1     -10.142  18.062  68.664  0.00  0.00    -0.027 C 
ATOM     17  C   UNL     1     -11.214  15.299  69.268  0.00  0.00    +0.004 C 
ATOM     18  C   UNL     1      -9.276  14.168  68.470  0.00  0.00    +0.004 C 
ATOM     19  C   UNL     1      -9.459  14.898  66.083  0.00  0.00    +0.004 C 
ATOM     20  C   UNL     1     -11.622  13.885  68.870  0.00  0.00    +0.047 C 
ENDROOT
BRANCH   1  21
ATOM     21  C   UNL     1     -10.970  12.414  66.949  0.00  0.00    +0.187 C 
ATOM     22  O   UNL     1     -10.140  12.355  66.042  0.00  0.00    -0.292 OA
ATOM     23  C   UNL     1     -11.392  11.153  67.578  0.00  0.00    +0.076 C 
ENDBRANCH   1  21
BRANCH   1  24
ATOM     24  O   UNL     1     -12.518  14.150  66.748  0.00  0.00    -0.449 OA
BRANCH  24  26
ATOM     25  C   UNL     1     -12.075  14.700  64.332  0.00  0.00    +0.121 C 
ATOM     26  C   UNL     1     -12.574  13.860  65.378  0.00  0.00    +0.318 C 
ATOM     27  O   UNL     1     -13.072  12.735  65.065  0.00  0.00    -0.250 OA
ENDBRANCH  24  26
ENDBRANCH   1  24
TORSDOF 3
ENDMDL
MODEL 7
REMARK VINA RESULT:      -6.3      4.928      7.794
REMARK  Name = 
REMARK  3 active torsions:
REMARK  status: ('A' for Active; 'I' for Inactive)
REMARK    1  A    between atoms: C_2  and  O_4
REMARK    2  A    between atoms: O_4  and  C_5
REMARK    3  A    between atoms: C_5  and  C_6
REMARK                            x       y       z     vdW  Elec       q    Type
REMARK                         _______ _______ _______ _____ _____    ______ ____
ROOT
ATOM      1  C   UNL     1      -6.917  17.862  67.868  0.00  0.00    +0.186 C 
ATOM      2  C   UNL     1      -8.128  17.147  67.501  0.00  0.00    +0.040 C 
ATOM      3  C   UNL     1      -7.472  15.683  67.332  0.00  0.00    +0.008 C 
ATOM      4  C   UNL     1      -8.945  14.901  67.589  0.00  0.00    +0.022 C 
ATOM      5  C   UNL     1      -9.452  15.193  66.006  0.00  0.00    +0.008 C 
ATOM      6  C   UNL     1     -10.137  16.611  66.398  0.00  0.00    +0.001 C 
ATOM      7  C   UNL     1     -10.823  14.355  66.173  0.00  0.00    +0.020 C 
ATOM      8  C   UNL     1     -10.303  12.992  65.849  0.00  0.00    -0.020 C 
ATOM      9  C   UNL     1     -11.031  12.161  65.157  0.00  0.00    +0.033 C 
ATOM     10  C   UNL     1     -12.270  12.578  64.511  0.00  0.00    +0.173 C 
ATOM     11  C   UNL     1     -12.896  13.819  65.053  0.00  0.00    +0.069 C 
ATOM     12  O   UNL     1     -12.761  12.020  63.509  0.00  0.00    -0.291 OA
ATOM     13  C   UNL     1      -9.169  12.596  66.695  0.00  0.00    -0.009 C 
ATOM     14  C   UNL     1     -11.377  14.480  67.525  0.00  0.00    +0.004 C 
ATOM     15  C   UNL     1     -11.805  14.862  65.171  0.00  0.00    +0.012 C 
ATOM     16  C   UNL     1      -8.335  13.495  67.204  0.00  0.00    -0.027 C 
ATOM     17  C   UNL     1      -7.080  15.662  68.902  0.00  0.00    +0.004 C 
ATOM     18  C   UNL     1      -8.965  17.112  68.778  0.00  0.00    +0.004 C 
ATOM     19  C   UNL     1      -8.891  17.498  66.306  0.00  0.00    +0.004 C 
ATOM     20  C   UNL     1      -6.597  17.087  69.142  0.00  0.00    +0.047 C 
ENDROOT
BRANCH   1  21
ATOM     21  C   UNL     1      -7.208  19.280  68.094  0.00  0.00    +0.187 C 
ATOM     22  O   UNL     1      -7.189  19.640  69.270  0.00  0.00    -0.292 OA
ATOM     23  C   UNL     1      -7.383  20.313  67.060  0.00  0.00    +0.076 C 
ENDBRANCH   1  21
BRANCH   1  24
ATOM     24  O   UNL     1      -5.775  17.743  67.075  0.00  0.00    -0.449 OA
BRANCH  24  26
ATOM     25  C   UNL     1      -3.693  16.938  68.239  0.00  0.00    +0.121 C 
ATOM     26  C   UNL     1      -4.567  17.962  67.752  0.00  0.00    +0.318 C 
ATOM     27  O   UNL     1      -4.218  19.174  67.895  0.00  0.00    -0.250 OA
ENDBRANCH  24  26
ENDBRANCH   1  24
TORSDOF 3
ENDMDL
MODEL 8
REMARK VINA RESULT:      -6.3      4.734      6.976
REMARK  Name = 
REMARK  3 active torsions:
REMARK  status: ('A' for Active; 'I' for Inactive)
REMARK    1  A    between atoms: C_2  and  O_4
REMARK    2  A    between atoms: O_4  and  C_5
REMARK    3  A    between atoms: C_5  and  C_6
REMARK                            x       y       z     vdW  Elec       q    Type
REMARK                         _______ _______ _______ _____ _____    ______ ____
ROOT
ATOM      1  C   UNL     1      -9.405  18.025  67.412  0.00  0.00    +0.186 C 
ATOM      2  C   UNL     1      -9.883  16.745  66.916  0.00  0.00    +0.040 C 
ATOM      3  C   UNL     1      -8.653  15.839  67.434  0.00  0.00    +0.008 C 
ATOM      4  C   UNL     1      -9.580  14.429  67.433  0.00  0.00    +0.022 C 
ATOM      5  C   UNL     1      -9.415  14.243  65.764  0.00  0.00    +0.008 C 
ATOM      6  C   UNL     1     -10.745  15.118  65.450  0.00  0.00    +0.001 C 
ATOM      7  C   UNL     1     -10.199  12.831  65.733  0.00  0.00    +0.020 C 
ATOM      8  C   UNL     1      -9.051  11.922  66.037  0.00  0.00    -0.020 C 
ATOM      9  C   UNL     1      -8.958  10.765  65.444  0.00  0.00    +0.033 C 
ATOM     10  C   UNL     1      -9.832  10.396  64.336  0.00  0.00    +0.173 C 
ATOM     11  C   UNL     1     -11.104  11.168  64.231  0.00  0.00    +0.069 C 
ATOM     12  O   UNL     1      -9.536   9.561  63.457  0.00  0.00    -0.291 OA
ATOM     13  C   UNL     1      -8.357  12.275  67.282  0.00  0.00    -0.009 C 
ATOM     14  C   UNL     1     -11.280  12.785  66.723  0.00  0.00    +0.004 C 
ATOM     15  C   UNL     1     -10.755  12.636  64.362  0.00  0.00    +0.012 C 
ATOM     16  C   UNL     1      -8.318  13.526  67.725  0.00  0.00    -0.027 C 
ATOM     17  C   UNL     1      -9.021  16.192  68.970  0.00  0.00    +0.004 C 
ATOM     18  C   UNL     1     -11.083  16.407  67.798  0.00  0.00    +0.004 C 
ATOM     19  C   UNL     1     -10.114  16.514  65.493  0.00  0.00    +0.004 C 
ATOM     20  C   UNL     1      -9.370  17.674  68.895  0.00  0.00    +0.047 C 
ENDROOT
BRANCH   1  21
ATOM     21  C   UNL     1     -10.353  19.090  67.076  0.00  0.00    +0.187 C 
ATOM     22  O   UNL     1     -10.938  19.595  68.033  0.00  0.00    -0.292 OA
ATOM     23  C   UNL     1     -10.563  19.690  65.748  0.00  0.00    +0.076 C 
ENDBRANCH   1  21
BRANCH   1  24
ATOM     24  O   UNL     1      -8.109  18.445  67.108  0.00  0.00    -0.449 OA
BRANCH  24  26
ATOM     25  C   UNL     1      -6.826  19.193  69.141  0.00  0.00    +0.121 C 
ATOM     26  C   UNL     1      -7.599  19.434  67.961  0.00  0.00    +0.318 C 
ATOM     27  O   UNL     1      -7.816  20.636  67.615  0.00  0.00    -0.250 OA
ENDBRANCH  24  26
ENDBRANCH   1  24
TORSDOF 3
ENDMDL
MODEL 9
REMARK VINA RESULT:      -6.3      3.081      5.750
REMARK  Name = 
REMARK  3 active torsions:
REMARK  status: ('A' for Active; 'I' for Inactive)
REMARK    1  A    between atoms: C_2  and  O_4
REMARK    2  A    between atoms: O_4  and  C_5
REMARK    3  A    between atoms: C_5  and  C_6
REMARK                            x       y       z     vdW  Elec       q    Type
REMARK                         _______ _______ _______ _____ _____    ______ ____
ROOT
ATOM      1  C   UNL     1      -8.976  17.160  67.522  0.00  0.00    +0.186 C 
ATOM      2  C   UNL     1      -9.326  15.767  67.302  0.00  0.00    +0.040 C 
ATOM      3  C   UNL     1     -10.103  15.517  68.693  0.00  0.00    +0.008 C 
ATOM      4  C   UNL     1     -10.988  14.224  68.065  0.00  0.00    +0.022 C 
ATOM      5  C   UNL     1      -9.690  13.162  68.244  0.00  0.00    +0.008 C 
ATOM      6  C   UNL     1      -9.111  13.485  66.764  0.00  0.00    +0.001 C 
ATOM      7  C   UNL     1     -10.534  11.874  67.757  0.00  0.00    +0.020 C 
ATOM      8  C   UNL     1     -11.145  11.488  69.065  0.00  0.00    -0.020 C 
ATOM      9  C   UNL     1     -11.279  10.230  69.380  0.00  0.00    +0.033 C 
ATOM     10  C   UNL     1     -10.671   9.170  68.584  0.00  0.00    +0.173 C 
ATOM     11  C   UNL     1     -10.314   9.536  67.182  0.00  0.00    +0.069 C 
ATOM     12  O   UNL     1     -10.366   8.045  69.030  0.00  0.00    -0.291 OA
ATOM     13  C   UNL     1     -11.898  12.584  69.690  0.00  0.00    -0.009 C 
ATOM     14  C   UNL     1     -11.509  12.222  66.718  0.00  0.00    +0.004 C 
ATOM     15  C   UNL     1      -9.575  10.857  67.235  0.00  0.00    +0.012 C 
ATOM     16  C   UNL     1     -11.573  13.855  69.485  0.00  0.00    -0.027 C 
ATOM     17  C   UNL     1     -11.224  16.608  68.281  0.00  0.00    +0.004 C 
ATOM     18  C   UNL     1     -10.387  15.798  66.203  0.00  0.00    +0.004 C 
ATOM     19  C   UNL     1      -8.304  14.742  67.105  0.00  0.00    +0.004 C 
ATOM     20  C   UNL     1     -10.391  17.713  67.643  0.00  0.00    +0.047 C 
ENDROOT
BRANCH   1  21
ATOM     21  C   UNL     1      -8.228  17.686  66.378  0.00  0.00    +0.187 C 
ATOM     22  O   UNL     1      -8.798  18.569  65.738  0.00  0.00    -0.292 OA
ATOM     23  C   UNL     1      -6.839  17.362  66.014  0.00  0.00    +0.076 C 
ENDBRANCH   1  21
BRANCH   1  24
ATOM     24  O   UNL     1      -8.338  17.535  68.705  0.00  0.00    -0.449 OA
BRANCH  24  26
ATOM     25  C   UNL     1      -7.009  19.671  68.814  0.00  0.00    +0.121 C 
ATOM     26  C   UNL     1      -8.225  18.919  68.896  0.00  0.00    +0.318 C 
ATOM     27  O   UNL     1      -9.308  19.543  69.115  0.00  0.00    -0.250 OA
ENDBRANCH  24  26
ENDBRANCH   1  24
TORSDOF 3
ENDMDL
