MODEL 1
REMARK VINA RESULT:      -6.5      0.000      0.000
REMARK  Name = 
REMARK  6 active torsions:
REMARK  status: ('A' for Active; 'I' for Inactive)
REMARK    1  A    between atoms: C_2  and  N_5
REMARK    2  A    between atoms: N_5  and  C_6
REMARK    3  A    between atoms: C_6  and  C_7
REMARK    4  A    between atoms: C_7  and  C_9
REMARK    5  A    between atoms: C_9  and  O_10
REMARK    6  A    between atoms: O_10  and  C_11
REMARK                            x       y       z     vdW  Elec       q    Type
REMARK                         _______ _______ _______ _____ _____    ______ ____
ROOT
ATOM      1  C   UNL     1      -9.820  13.957  67.716  0.00  0.00    +0.134 A 
ATOM      2  C   UNL     1     -10.597  13.284  66.783  0.00  0.00    +0.011 A 
ATOM      3  C   UNL     1     -12.037  13.459  66.606  0.00  0.00    +0.065 C 
ATOM      4  C   UNL     1     -12.320  13.837  65.019  0.00  0.00    +0.187 C 
ATOM      5  C   UNL     1     -10.851  13.082  64.408  0.00  0.00    +0.187 C 
ATOM      6  C   UNL     1     -11.097  11.638  65.194  0.00  0.00    +0.062 C 
ATOM      7  O   UNL     1     -11.535  12.588  63.136  0.00  0.00    -0.220 OA
ATOM      8  O   UNL     1     -13.182  12.589  64.816  0.00  0.00    -0.220 OA
ATOM      9  C   UNL     1     -10.245  11.988  66.384  0.00  0.00    -0.021 A 
ATOM     10  C   UNL     1      -8.917  11.624  66.467  0.00  0.00    -0.004 A 
ATOM     11  C   UNL     1      -8.081  12.415  67.218  0.00  0.00    +0.003 A 
ATOM     12  C   UNL     1      -8.479  13.642  67.737  0.00  0.00    +0.037 A 
ENDROOT
BRANCH   1  13
ATOM     13  O   UNL     1     -10.361  15.062  68.328  0.00  0.00    -0.473 OA
BRANCH  13  14
ATOM     14  C   UNL     1     -10.010  15.316  69.671  0.00  0.00    +0.239 C 
BRANCH  14  15
ATOM     15  C   UNL     1     -11.269  16.298  70.181  0.00  0.00    +0.213 C 
ATOM     16  O   UNL     1     -11.586  16.707  68.727  0.00  0.00    -0.218 OA
BRANCH  15  17
ATOM     17  C   UNL     1     -12.355  15.023  70.096  0.00  0.00    +0.125 C 
BRANCH  17  18
ATOM     18  N   UNL     1     -12.079  14.395  71.375  0.00  0.00    -0.218 NA
BRANCH  18  20
ATOM     19  C   UNL     1     -13.573  13.508  72.402  0.00  0.00    +0.017 C 
ATOM     20  C   UNL     1     -13.231  14.361  72.242  0.00  0.00    +0.060 C 
ATOM     21  C   UNL     1     -14.375  15.168  71.699  0.00  0.00    +0.017 C 
ATOM     22  C   UNL     1     -12.820  15.023  73.544  0.00  0.00    +0.017 C 
ENDBRANCH  18  20
ENDBRANCH  17  18
ENDBRANCH  15  17
ENDBRANCH  14  15
ENDBRANCH  13  14
ENDBRANCH   1  13
TORSDOF 6
ENDMDL
MODEL 2
REMARK VINA RESULT:      -6.4      4.707      7.239
REMARK  Name = 
REMARK  6 active torsions:
REMARK  status: ('A' for Active; 'I' for Inactive)
REMARK    1  A    between atoms: C_2  and  N_5
REMARK    2  A    between atoms: N_5  and  C_6
REMARK    3  A    between atoms: C_6  and  C_7
REMARK    4  A    between atoms: C_7  and  C_9
REMARK    5  A    between atoms: C_9  and  O_10
REMARK    6  A    between atoms: O_10  and  C_11
REMARK                            x       y       z     vdW  Elec       q    Type
REMARK                         _______ _______ _______ _____ _____    ______ ____
ROOT
ATOM      1  C   UNL     1     -12.435  11.850  70.836  0.00  0.00    +0.134 A 
ATOM      2  C   UNL     1     -12.765  13.166  71.132  0.00  0.00    +0.011 A 
ATOM      3  C   UNL     1     -13.736  13.581  72.142  0.00  0.00    +0.065 C 
ATOM      4  C   UNL     1     -12.986  14.637  73.175  0.00  0.00    +0.187 C 
ATOM      5  C   UNL     1     -11.764  15.155  72.019  0.00  0.00    +0.187 C 
ATOM      6  C   UNL     1     -12.849  15.483  70.803  0.00  0.00    +0.062 C 
ATOM      7  O   UNL     1     -11.782  16.596  72.521  0.00  0.00    -0.220 OA
ATOM      8  O   UNL     1     -13.961  15.763  72.823  0.00  0.00    -0.220 OA
ATOM      9  C   UNL     1     -12.704  14.145  70.131  0.00  0.00    -0.021 A 
ATOM     10  C   UNL     1     -11.832  13.943  69.081  0.00  0.00    -0.004 A 
ATOM     11  C   UNL     1     -11.321  12.679  68.906  0.00  0.00    +0.003 A 
ATOM     12  C   UNL     1     -11.504  11.662  69.837  0.00  0.00    +0.037 A 
ENDROOT
BRANCH   1  13
ATOM     13  O   UNL     1     -12.820  10.874  71.724  0.00  0.00    -0.473 OA
BRANCH  13  14
ATOM     14  C   UNL     1     -13.518   9.756  71.220  0.00  0.00    +0.239 C 
BRANCH  14  15
ATOM     15  C   UNL     1     -13.504   8.715  72.534  0.00  0.00    +0.213 C 
ATOM     16  O   UNL     1     -14.998   8.385  72.332  0.00  0.00    -0.218 OA
BRANCH  15  17
ATOM     17  C   UNL     1     -13.052   7.426  71.562  0.00  0.00    +0.125 C 
BRANCH  17  18
ATOM     18  N   UNL     1     -11.730   7.174  72.109  0.00  0.00    -0.218 NA
BRANCH  18  20
ATOM     19  C   UNL     1     -10.008   6.442  71.353  0.00  0.00    +0.017 C 
ATOM     20  C   UNL     1     -10.734   6.965  71.087  0.00  0.00    +0.060 C 
ATOM     21  C   UNL     1     -10.151   8.255  70.588  0.00  0.00    +0.017 C 
ATOM     22  C   UNL     1     -11.443   6.329  69.906  0.00  0.00    +0.017 C 
ENDBRANCH  18  20
ENDBRANCH  17  18
ENDBRANCH  15  17
ENDBRANCH  14  15
ENDBRANCH  13  14
ENDBRANCH   1  13
TORSDOF 6
ENDMDL
MODEL 3
REMARK VINA RESULT:      -6.1      3.803      6.596
REMARK  Name = 
REMARK  6 active torsions:
REMARK  status: ('A' for Active; 'I' for Inactive)
REMARK    1  A    between atoms: C_2  and  N_5
REMARK    2  A    between atoms: N_5  and  C_6
REMARK    3  A    between atoms: C_6  and  C_7
REMARK    4  A    between atoms: C_7  and  C_9
REMARK    5  A    between atoms: C_9  and  O_10
REMARK    6  A    between atoms: O_10  and  C_11
REMARK                            x       y       z     vdW  Elec       q    Type
REMARK                         _______ _______ _______ _____ _____    ______ ____
ROOT
ATOM      1  C   UNL     1     -11.511  15.706  68.972  0.00  0.00    +0.134 A 
ATOM      2  C   UNL     1     -11.890  15.105  70.165  0.00  0.00    +0.011 A 
ATOM      3  C   UNL     1     -11.760  15.710  71.489  0.00  0.00    +0.065 C 
ATOM      4  C   UNL     1     -13.247  15.682  72.216  0.00  0.00    +0.187 C 
ATOM      5  C   UNL     1     -13.860  14.322  71.282  0.00  0.00    +0.187 C 
ATOM      6  C   UNL     1     -12.543  13.348  71.569  0.00  0.00    +0.062 C 
ATOM      7  O   UNL     1     -14.631  13.749  72.468  0.00  0.00    -0.220 OA
ATOM      8  O   UNL     1     -12.733  14.810  73.364  0.00  0.00    -0.220 OA
ATOM      9  C   UNL     1     -11.830  13.711  70.295  0.00  0.00    -0.021 A 
ATOM     10  C   UNL     1     -11.943  12.949  69.150  0.00  0.00    -0.004 A 
ATOM     11  C   UNL     1     -11.786  13.582  67.940  0.00  0.00    +0.003 A 
ATOM     12  C   UNL     1     -11.701  14.965  67.826  0.00  0.00    +0.037 A 
ENDROOT
BRANCH   1  13
ATOM     13  O   UNL     1     -11.260  17.058  68.984  0.00  0.00    -0.473 OA
BRANCH  13  14
ATOM     14  C   UNL     1     -10.010  17.504  68.506  0.00  0.00    +0.239 C 
BRANCH  14  15
ATOM     15  C   UNL     1     -10.454  18.426  67.177  0.00  0.00    +0.213 C 
ATOM     16  O   UNL     1     -10.570  19.693  68.051  0.00  0.00    -0.218 OA
BRANCH  15  17
ATOM     17  C   UNL     1      -8.852  18.771  66.826  0.00  0.00    +0.125 C 
BRANCH  17  18
ATOM     18  N   UNL     1      -8.509  19.526  68.017  0.00  0.00    -0.218 NA
BRANCH  18  20
ATOM     19  C   UNL     1      -6.808  19.709  69.089  0.00  0.00    +0.017 C 
ATOM     20  C   UNL     1      -7.085  19.669  68.198  0.00  0.00    +0.060 C 
ATOM     21  C   UNL     1      -6.549  20.909  67.543  0.00  0.00    +0.017 C 
ATOM     22  C   UNL     1      -6.433  18.495  67.491  0.00  0.00    +0.017 C 
ENDBRANCH  18  20
ENDBRANCH  17  18
ENDBRANCH  15  17
ENDBRANCH  14  15
ENDBRANCH  13  14
ENDBRANCH   1  13
TORSDOF 6
ENDMDL
MODEL 4
REMARK VINA RESULT:      -6.0      3.597      4.751
REMARK  Name = 
REMARK  6 active torsions:
REMARK  status: ('A' for Active; 'I' for Inactive)
REMARK    1  A    between atoms: C_2  and  N_5
REMARK    2  A    between atoms: N_5  and  C_6
REMARK    3  A    between atoms: C_6  and  C_7
REMARK    4  A    between atoms: C_7  and  C_9
REMARK    5  A    between atoms: C_9  and  O_10
REMARK    6  A    between atoms: O_10  and  C_11
REMARK                            x       y       z     vdW  Elec       q    Type
REMARK                         _______ _______ _______ _____ _____    ______ ____
ROOT
ATOM      1  C   UNL     1     -11.725  12.494  68.174  0.00  0.00    +0.134 A 
ATOM      2  C   UNL     1     -11.481  12.907  66.872  0.00  0.00    +0.011 A 
ATOM      3  C   UNL     1     -11.319  12.017  65.724  0.00  0.00    +0.065 C 
ATOM      4  C   UNL     1     -12.399  12.479  64.557  0.00  0.00    +0.187 C 
ATOM      5  C   UNL     1     -12.533  14.145  65.109  0.00  0.00    +0.187 C 
ATOM      6  C   UNL     1     -10.892  14.406  65.171  0.00  0.00    +0.062 C 
ATOM      7  O   UNL     1     -12.639  14.695  63.690  0.00  0.00    -0.220 OA
ATOM      8  O   UNL     1     -11.280  12.779  63.558  0.00  0.00    -0.220 OA
ATOM      9  C   UNL     1     -10.762  14.087  66.636  0.00  0.00    -0.021 A 
ATOM     10  C   UNL     1     -10.793  15.068  67.605  0.00  0.00    -0.004 A 
ATOM     11  C   UNL     1     -11.246  14.721  68.855  0.00  0.00    +0.003 A 
ATOM     12  C   UNL     1     -11.832  13.488  69.122  0.00  0.00    +0.037 A 
ENDROOT
BRANCH   1  13
ATOM     13  O   UNL     1     -12.124  11.194  68.373  0.00  0.00    -0.473 OA
BRANCH  13  14
ATOM     14  C   UNL     1     -11.618  10.509  69.498  0.00  0.00    +0.239 C 
BRANCH  14  15
ATOM     15  C   UNL     1     -10.465   9.507  68.806  0.00  0.00    +0.213 C 
ATOM     16  O   UNL     1      -9.388  10.008  69.791  0.00  0.00    -0.218 OA
BRANCH  15  17
ATOM     17  C   UNL     1     -10.875   8.251  69.837  0.00  0.00    +0.125 C 
BRANCH  17  18
ATOM     18  N   UNL     1     -11.586   9.005  70.854  0.00  0.00    -0.218 NA
BRANCH  18  20
ATOM     19  C   UNL     1     -11.481   8.024  72.614  0.00  0.00    +0.017 C 
ATOM     20  C   UNL     1     -12.087   8.172  71.920  0.00  0.00    +0.060 C 
ATOM     21  C   UNL     1     -12.499   6.812  71.434  0.00  0.00    +0.017 C 
ATOM     22  C   UNL     1     -13.345   8.840  72.443  0.00  0.00    +0.017 C 
ENDBRANCH  18  20
ENDBRANCH  17  18
ENDBRANCH  15  17
ENDBRANCH  14  15
ENDBRANCH  13  14
ENDBRANCH   1  13
TORSDOF 6
ENDMDL
MODEL 5
REMARK VINA RESULT:      -6.0      2.024      3.213
REMARK  Name = 
REMARK  6 active torsions:
REMARK  status: ('A' for Active; 'I' for Inactive)
REMARK    1  A    between atoms: C_2  and  N_5
REMARK    2  A    between atoms: N_5  and  C_6
REMARK    3  A    between atoms: C_6  and  C_7
REMARK    4  A    between atoms: C_7  and  C_9
REMARK    5  A    between atoms: C_9  and  O_10
REMARK    6  A    between atoms: O_10  and  C_11
REMARK                            x       y       z     vdW  Elec       q    Type
REMARK                         _______ _______ _______ _____ _____    ______ ____
ROOT
ATOM      1  C   UNL     1     -11.238  13.377  65.946  0.00  0.00    +0.134 A 
ATOM      2  C   UNL     1     -10.371  12.301  65.816  0.00  0.00    +0.011 A 
ATOM      3  C   UNL     1      -9.119  12.137  66.553  0.00  0.00    +0.065 C 
ATOM      4  C   UNL     1      -9.158  10.669  67.316  0.00  0.00    +0.187 C 
ATOM      5  C   UNL     1     -10.307   9.936  66.202  0.00  0.00    +0.187 C 
ATOM      6  C   UNL     1      -9.474  10.374  64.831  0.00  0.00    +0.062 C 
ATOM      7  O   UNL     1      -9.625   8.572  66.266  0.00  0.00    -0.220 OA
ATOM      8  O   UNL     1      -7.928  10.175  66.553  0.00  0.00    -0.220 OA
ATOM      9  C   UNL     1     -10.268  11.630  64.590  0.00  0.00    -0.021 A 
ATOM     10  C   UNL     1     -11.357  11.657  63.744  0.00  0.00    -0.004 A 
ATOM     11  C   UNL     1     -12.341  12.584  63.995  0.00  0.00    +0.003 A 
ATOM     12  C   UNL     1     -12.364  13.355  65.152  0.00  0.00    +0.037 A 
ENDROOT
BRANCH   1  13
ATOM     13  O   UNL     1     -11.075  14.208  67.029  0.00  0.00    -0.473 OA
BRANCH  13  14
ATOM     14  C   UNL     1     -11.961  14.062  68.117  0.00  0.00    +0.239 C 
BRANCH  14  15
ATOM     15  C   UNL     1     -11.144  14.863  69.342  0.00  0.00    +0.213 C 
ATOM     16  O   UNL     1     -12.086  16.079  69.223  0.00  0.00    -0.218 OA
BRANCH  15  17
ATOM     17  C   UNL     1     -12.127  14.170  70.511  0.00  0.00    +0.125 C 
BRANCH  17  18
ATOM     18  N   UNL     1     -12.462  15.361  71.270  0.00  0.00    -0.218 NA
BRANCH  18  20
ATOM     19  C   UNL     1     -14.038  15.592  72.509  0.00  0.00    +0.017 C 
ATOM     20  C   UNL     1     -13.266  15.075  72.433  0.00  0.00    +0.060 C 
ATOM     21  C   UNL     1     -12.507  15.275  73.713  0.00  0.00    +0.017 C 
ATOM     22  C   UNL     1     -13.618  13.599  72.370  0.00  0.00    +0.017 C 
ENDBRANCH  18  20
ENDBRANCH  17  18
ENDBRANCH  15  17
ENDBRANCH  14  15
ENDBRANCH  13  14
ENDBRANCH   1  13
TORSDOF 6
ENDMDL
MODEL 6
REMARK VINA RESULT:      -6.0      3.527      5.137
REMARK  Name = 
REMARK  6 active torsions:
REMARK  status: ('A' for Active; 'I' for Inactive)
REMARK    1  A    between atoms: C_2  and  N_5
REMARK    2  A    between atoms: N_5  and  C_6
REMARK    3  A    between atoms: C_6  and  C_7
REMARK    4  A    between atoms: C_7  and  C_9
REMARK    5  A    between atoms: C_9  and  O_10
REMARK    6  A    between atoms: O_10  and  C_11
REMARK                            x       y       z     vdW  Elec       q    Type
REMARK                         _______ _______ _______ _____ _____    ______ ____
ROOT
ATOM      1  C   UNL     1     -11.770  13.488  67.780  0.00  0.00    +0.134 A 
ATOM      2  C   UNL     1     -11.354  12.231  67.366  0.00  0.00    +0.011 A 
ATOM      3  C   UNL     1     -11.213  11.809  65.973  0.00  0.00    +0.065 C 
ATOM      4  C   UNL     1      -9.674  11.238  65.760  0.00  0.00    +0.187 C 
ATOM      5  C   UNL     1      -9.421  10.815  67.450  0.00  0.00    +0.187 C 
ATOM      6  C   UNL     1     -10.838   9.957  67.594  0.00  0.00    +0.062 C 
ATOM      7  O   UNL     1      -8.617   9.565  67.103  0.00  0.00    -0.220 OA
ATOM      8  O   UNL     1     -10.181   9.848  65.369  0.00  0.00    -0.220 OA
ATOM      9  C   UNL     1     -11.632  11.106  68.155  0.00  0.00    -0.021 A 
ATOM     10  C   UNL     1     -11.794  11.293  69.512  0.00  0.00    -0.004 A 
ATOM     11  C   UNL     1     -11.989  12.576  69.964  0.00  0.00    +0.003 A 
ATOM     12  C   UNL     1     -11.853  13.688  69.141  0.00  0.00    +0.037 A 
ENDROOT
BRANCH   1  13
ATOM     13  O   UNL     1     -11.783  14.501  66.851  0.00  0.00    -0.473 OA
BRANCH  13  14
ATOM     14  C   UNL     1     -10.950  15.617  67.074  0.00  0.00    +0.239 C 
BRANCH  14  15
ATOM     15  C   UNL     1      -9.799  15.440  65.867  0.00  0.00    +0.213 C 
ATOM     16  O   UNL     1     -10.697  16.180  64.854  0.00  0.00    -0.218 OA
BRANCH  15  17
ATOM     17  C   UNL     1      -9.053  16.875  66.308  0.00  0.00    +0.125 C 
BRANCH  17  18
ATOM     18  N   UNL     1     -10.089  17.810  65.909  0.00  0.00    -0.218 NA
BRANCH  18  20
ATOM     19  C   UNL     1     -10.395  19.801  66.029  0.00  0.00    +0.017 C 
ATOM     20  C   UNL     1      -9.875  19.138  66.429  0.00  0.00    +0.060 C 
ATOM     21  C   UNL     1      -8.449  19.585  66.277  0.00  0.00    +0.017 C 
ATOM     22  C   UNL     1     -10.147  19.074  67.920  0.00  0.00    +0.017 C 
ENDBRANCH  18  20
ENDBRANCH  17  18
ENDBRANCH  15  17
ENDBRANCH  14  15
ENDBRANCH  13  14
ENDBRANCH   1  13
TORSDOF 6
ENDMDL
MODEL 7
REMARK VINA RESULT:      -5.9      3.447      5.494
REMARK  Name = 
REMARK  6 active torsions:
REMARK  status: ('A' for Active; 'I' for Inactive)
REMARK    1  A    between atoms: C_2  and  N_5
REMARK    2  A    between atoms: N_5  and  C_6
REMARK    3  A    between atoms: C_6  and  C_7
REMARK    4  A    between atoms: C_7  and  C_9
REMARK    5  A    between atoms: C_9  and  O_10
REMARK    6  A    between atoms: O_10  and  C_11
REMARK                            x       y       z     vdW  Elec       q    Type
REMARK                         _______ _______ _______ _____ _____    ______ ____
ROOT
ATOM      1  C   UNL     1      -9.862  18.016  68.278  0.00  0.00    +0.134 A 
ATOM      2  C   UNL     1      -8.486  17.957  68.107  0.00  0.00    +0.011 A 
ATOM      3  C   UNL     1      -7.592  17.031  68.801  0.00  0.00    +0.065 C 
ATOM      4  C   UNL     1      -6.718  16.207  67.661  0.00  0.00    +0.187 C 
ATOM      5  C   UNL     1      -6.865  17.443  66.417  0.00  0.00    +0.187 C 
ATOM      6  C   UNL     1      -6.377  18.692  67.401  0.00  0.00    +0.062 C 
ATOM      7  O   UNL     1      -5.450  17.206  65.897  0.00  0.00    -0.220 OA
ATOM      8  O   UNL     1      -5.393  16.748  68.204  0.00  0.00    -0.220 OA
ATOM      9  C   UNL     1      -7.771  19.116  67.777  0.00  0.00    -0.021 A 
ATOM     10  C   UNL     1      -8.439  20.119  67.105  0.00  0.00    -0.004 A 
ATOM     11  C   UNL     1      -9.813  20.068  67.079  0.00  0.00    +0.003 A 
ATOM     12  C   UNL     1     -10.529  18.970  67.541  0.00  0.00    +0.037 A 
ENDROOT
BRANCH   1  13
ATOM     13  O   UNL     1     -10.477  16.966  68.917  0.00  0.00    -0.473 OA
BRANCH  13  14
ATOM     14  C   UNL     1     -11.385  16.179  68.176  0.00  0.00    +0.239 C 
BRANCH  14  15
ATOM     15  C   UNL     1     -11.663  14.895  69.218  0.00  0.00    +0.213 C 
ATOM     16  O   UNL     1     -10.148  14.692  69.428  0.00  0.00    -0.218 OA
BRANCH  15  17
ATOM     17  C   UNL     1     -11.744  15.927  70.537  0.00  0.00    +0.125 C 
BRANCH  17  18
ATOM     18  N   UNL     1     -13.143  15.757  70.882  0.00  0.00    -0.218 NA
BRANCH  18  20
ATOM     19  C   UNL     1     -13.973  15.800  72.721  0.00  0.00    +0.017 C 
ATOM     20  C   UNL     1     -13.335  15.317  72.242  0.00  0.00    +0.060 C 
ATOM     21  C   UNL     1     -12.070  15.393  73.048  0.00  0.00    +0.017 C 
ATOM     22  C   UNL     1     -13.714  13.849  72.178  0.00  0.00    +0.017 C 
ENDBRANCH  18  20
ENDBRANCH  17  18
ENDBRANCH  15  17
ENDBRANCH  14  15
ENDBRANCH  13  14
ENDBRANCH   1  13
TORSDOF 6
ENDMDL
MODEL 8
REMARK VINA RESULT:      -5.9      2.191      3.565
REMARK  Name = 
REMARK  6 active torsions:
REMARK  status: ('A' for Active; 'I' for Inactive)
REMARK    1  A    between atoms: C_2  and  N_5
REMARK    2  A    between atoms: N_5  and  C_6
REMARK    3  A    between atoms: C_6  and  C_7
REMARK    4  A    between atoms: C_7  and  C_9
REMARK    5  A    between atoms: C_9  and  O_10
REMARK    6  A    between atoms: O_10  and  C_11
REMARK                            x       y       z     vdW  Elec       q    Type
REMARK                         _______ _______ _______ _____ _____    ______ ____
ROOT
ATOM      1  C   UNL     1     -11.518  11.922  66.697  0.00  0.00    +0.134 A 
ATOM      2  C   UNL     1     -11.151  13.235  66.435  0.00  0.00    +0.011 A 
ATOM      3  C   UNL     1     -11.627  14.404  67.172  0.00  0.00    +0.065 C 
ATOM      4  C   UNL     1     -10.308  15.245  67.712  0.00  0.00    +0.187 C 
ATOM      5  C   UNL     1      -9.211  14.643  66.474  0.00  0.00    +0.187 C 
ATOM      6  C   UNL     1     -10.224  14.999  65.204  0.00  0.00    +0.062 C 
ATOM      7  O   UNL     1      -8.479  15.976  66.356  0.00  0.00    -0.220 OA
ATOM      8  O   UNL     1     -10.705  16.491  66.918  0.00  0.00    -0.220 OA
ATOM      9  C   UNL     1     -10.829  13.623  65.127  0.00  0.00    -0.021 A 
ATOM     10  C   UNL     1     -10.349  12.658  64.266  0.00  0.00    -0.004 A 
ATOM     11  C   UNL     1     -10.512  11.341  64.623  0.00  0.00    +0.003 A 
ATOM     12  C   UNL     1     -10.971  10.958  65.879  0.00  0.00    +0.037 A 
ENDROOT
BRANCH   1  13
ATOM     13  O   UNL     1     -12.141  11.654  67.893  0.00  0.00    -0.473 OA
BRANCH  13  14
ATOM     14  C   UNL     1     -11.447  10.874  68.842  0.00  0.00    +0.239 C 
BRANCH  14  15
ATOM     15  C   UNL     1     -12.528  10.840  70.123  0.00  0.00    +0.213 C 
ATOM     16  O   UNL     1     -11.439  10.302  71.074  0.00  0.00    -0.218 OA
BRANCH  15  17
ATOM     17  C   UNL     1     -12.156  12.423  70.535  0.00  0.00    +0.125 C 
BRANCH  17  18
ATOM     18  N   UNL     1     -13.180  12.650  71.539  0.00  0.00    -0.218 NA
BRANCH  18  20
ATOM     19  C   UNL     1     -13.098  14.209  72.817  0.00  0.00    +0.017 C 
ATOM     20  C   UNL     1     -13.290  14.036  71.920  0.00  0.00    +0.060 C 
ATOM     21  C   UNL     1     -14.667  14.585  71.681  0.00  0.00    +0.017 C 
ATOM     22  C   UNL     1     -12.355  14.816  71.015  0.00  0.00    +0.017 C 
ENDBRANCH  18  20
ENDBRANCH  17  18
ENDBRANCH  15  17
ENDBRANCH  14  15
ENDBRANCH  13  14
ENDBRANCH   1  13
TORSDOF 6
ENDMDL
MODEL 9
REMARK VINA RESULT:      -5.8      3.641      4.905
REMARK  Name = 
REMARK  6 active torsions:
REMARK  status: ('A' for Active; 'I' for Inactive)
REMARK    1  A    between atoms: C_2  and  N_5
REMARK    2  A    between atoms: N_5  and  C_6
REMARK    3  A    between atoms: C_6  and  C_7
REMARK    4  A    between atoms: C_7  and  C_9
REMARK    5  A    between atoms: C_9  and  O_10
REMARK    6  A    between atoms: O_10  and  C_11
REMARK                            x       y       z     vdW  Elec       q    Type
REMARK                         _______ _______ _______ _____ _____    ______ ____
ROOT
ATOM      1  C   UNL     1      -9.740  15.375  66.512  0.00  0.00    +0.134 A 
ATOM      2  C   UNL     1     -10.515  14.288  66.133  0.00  0.00    +0.011 A 
ATOM      3  C   UNL     1     -11.930  14.349  65.771  0.00  0.00    +0.065 C 
ATOM      4  C   UNL     1     -12.109  13.669  64.272  0.00  0.00    +0.187 C 
ATOM      5  C   UNL     1     -10.667  12.665  64.375  0.00  0.00    +0.187 C 
ATOM      6  C   UNL     1     -11.048  12.023  65.861  0.00  0.00    +0.062 C 
ATOM      7  O   UNL     1     -11.321  11.506  63.628  0.00  0.00    -0.220 OA
ATOM      8  O   UNL     1     -13.043  12.585  64.812  0.00  0.00    -0.220 OA
ATOM      9  C   UNL     1     -10.233  13.015  66.646  0.00  0.00    -0.021 A 
ATOM     10  C   UNL     1      -8.938  12.749  67.042  0.00  0.00    -0.004 A 
ATOM     11  C   UNL     1      -8.087  13.816  67.210  0.00  0.00    +0.003 A 
ATOM     12  C   UNL     1      -8.426  15.110  66.830  0.00  0.00    +0.037 A 
ENDROOT
BRANCH   1  13
ATOM     13  O   UNL     1     -10.235  16.635  66.268  0.00  0.00    -0.473 OA
BRANCH  13  14
ATOM     14  C   UNL     1     -10.430  17.496  67.369  0.00  0.00    +0.239 C 
BRANCH  14  15
ATOM     15  C   UNL     1     -10.612  18.984  66.619  0.00  0.00    +0.213 C 
ATOM     16  O   UNL     1     -10.576  19.713  67.979  0.00  0.00    -0.218 OA
BRANCH  15  17
ATOM     17  C   UNL     1      -8.953  19.149  66.446  0.00  0.00    +0.125 C 
BRANCH  17  18
ATOM     18  N   UNL     1      -8.638  19.719  67.743  0.00  0.00    -0.218 NA
BRANCH  18  20
ATOM     19  C   UNL     1      -7.079  19.412  68.988  0.00  0.00    +0.017 C 
ATOM     20  C   UNL     1      -7.243  19.590  68.087  0.00  0.00    +0.060 C 
ATOM     21  C   UNL     1      -6.460  20.830  67.762  0.00  0.00    +0.017 C 
ATOM     22  C   UNL     1      -6.677  18.485  67.214  0.00  0.00    +0.017 C 
ENDBRANCH  18  20
ENDBRANCH  17  18
ENDBRANCH  15  17
ENDBRANCH  14  15
ENDBRANCH  13  14
ENDBRANCH   1  13
TORSDOF 6
ENDMDL
