MODEL 1
REMARK VINA RESULT:      -6.9      0.000      0.000
REMARK  Name = 
REMARK  0 active torsions:
REMARK  status: ('A' for Active; 'I' for Inactive)
REMARK                            x       y       z     vdW  Elec       q    Type
REMARK                         _______ _______ _______ _____ _____    ______ ____
ROOT
ATOM      1  C   UNL     1      -8.746  11.482  66.467  0.00  0.00    +0.003 C 
ATOM      2  C   UNL     1     -10.016  11.966  66.085  0.00  0.00    +0.028 C 
ATOM      3  C   UNL     1     -10.555  11.086  64.766  0.00  0.00    +0.152 C 
ATOM      4  O   UNL     1      -9.232  11.336  63.996  0.00  0.00    -0.223 OA
ATOM      5  C   UNL     1      -9.946   9.664  65.433  0.00  0.00    +0.033 C 
ATOM      6  C   UNL     1     -10.328   9.823  66.873  0.00  0.00    +0.003 C 
ATOM      7  C   UNL     1     -11.248  11.178  66.830  0.00  0.00    +0.003 C 
ATOM      8  C   UNL     1     -10.765  11.767  68.356  0.00  0.00    +0.004 C 
ATOM      9  C   UNL     1     -11.716  13.154  68.037  0.00  0.00    +0.022 C 
ATOM     10  C   UNL     1     -11.442  13.796  69.501  0.00  0.00    -0.026 A 
ATOM     11  C   UNL     1     -12.258  13.084  70.376  0.00  0.00    -0.023 A 
ATOM     12  C   UNL     1     -11.985  11.617  70.507  0.00  0.00    +0.026 C 
ATOM     13  C   UNL     1     -13.070  13.674  71.312  0.00  0.00    +0.037 A 
ATOM     14  C   UNL     1     -13.241  15.032  71.323  0.00  0.00    +0.195 A 
ATOM     15  O   UNL     1     -14.367  15.644  71.885  0.00  0.00    -0.287 OA
ATOM     16  C   UNL     1     -12.415  15.780  70.531  0.00  0.00    +0.042 A 
ATOM     17  C   UNL     1     -11.740  15.156  69.501  0.00  0.00    -0.001 A 
ATOM     18  C   UNL     1     -10.438  13.929  67.345  0.00  0.00    +0.004 C 
ATOM     19  C   UNL     1     -11.964  11.002  69.111  0.00  0.00    +0.005 C 
ATOM     20  C   UNL     1     -10.383  13.348  65.925  0.00  0.00    +0.003 C 
ENDROOT
TORSDOF 0
ENDMDL
MODEL 2
REMARK VINA RESULT:      -6.9      3.547      5.621
REMARK  Name = 
REMARK  0 active torsions:
REMARK  status: ('A' for Active; 'I' for Inactive)
REMARK                            x       y       z     vdW  Elec       q    Type
REMARK                         _______ _______ _______ _____ _____    ______ ____
ROOT
ATOM      1  C   UNL     1     -10.321  18.376  66.179  0.00  0.00    +0.003 C 
ATOM      2  C   UNL     1      -9.305  17.534  66.678  0.00  0.00    +0.028 C 
ATOM      3  C   UNL     1      -7.969  18.469  67.062  0.00  0.00    +0.152 C 
ATOM      4  O   UNL     1      -7.973  19.137  65.661  0.00  0.00    -0.223 OA
ATOM      5  C   UNL     1      -8.963  19.678  67.685  0.00  0.00    +0.033 C 
ATOM      6  C   UNL     1      -9.984  18.871  68.428  0.00  0.00    +0.003 C 
ATOM      7  C   UNL     1      -9.368  17.357  68.308  0.00  0.00    +0.003 C 
ATOM      8  C   UNL     1     -10.874  16.563  68.211  0.00  0.00    +0.004 C 
ATOM      9  C   UNL     1     -10.004  15.105  67.990  0.00  0.00    +0.022 C 
ATOM     10  C   UNL     1     -11.346  14.193  67.990  0.00  0.00    -0.026 A 
ATOM     11  C   UNL     1     -11.728  14.098  69.325  0.00  0.00    -0.023 A 
ATOM     12  C   UNL     1     -12.095  15.378  70.012  0.00  0.00    +0.026 C 
ATOM     13  C   UNL     1     -12.064  12.918  69.940  0.00  0.00    +0.037 A 
ATOM     14  C   UNL     1     -11.880  11.725  69.296  0.00  0.00    +0.195 A 
ATOM     15  O   UNL     1     -11.734  10.515  69.982  0.00  0.00    -0.287 OA
ATOM     16  C   UNL     1     -11.571  11.765  67.965  0.00  0.00    +0.042 A 
ATOM     17  C   UNL     1     -11.087  12.943  67.433  0.00  0.00    -0.001 A 
ATOM     18  C   UNL     1     -10.010  15.295  66.353  0.00  0.00    +0.004 C 
ATOM     19  C   UNL     1     -10.961  16.378  69.808  0.00  0.00    +0.005 C 
ATOM     20  C   UNL     1      -8.871  16.291  66.096  0.00  0.00    +0.003 C 
ENDROOT
TORSDOF 0
ENDMDL
MODEL 3
REMARK VINA RESULT:      -6.7      1.386      2.902
REMARK  Name = 
REMARK  0 active torsions:
REMARK  status: ('A' for Active; 'I' for Inactive)
REMARK                            x       y       z     vdW  Elec       q    Type
REMARK                         _______ _______ _______ _____ _____    ______ ____
ROOT
ATOM      1  C   UNL     1     -12.146  12.469  65.612  0.00  0.00    +0.003 C 
ATOM      2  C   UNL     1     -11.129  12.190  66.551  0.00  0.00    +0.028 C 
ATOM      3  C   UNL     1      -9.711  11.851  65.726  0.00  0.00    +0.152 C 
ATOM      4  O   UNL     1     -10.423  10.798  64.836  0.00  0.00    -0.223 OA
ATOM      5  C   UNL     1     -10.037  13.072  64.612  0.00  0.00    +0.033 C 
ATOM      6  C   UNL     1     -10.551  14.160  65.505  0.00  0.00    +0.003 C 
ATOM      7  C   UNL     1     -10.287  13.527  66.993  0.00  0.00    +0.003 C 
ATOM      8  C   UNL     1     -11.667  14.213  67.723  0.00  0.00    +0.004 C 
ATOM      9  C   UNL     1     -11.246  13.359  69.145  0.00  0.00    +0.022 C 
ATOM     10  C   UNL     1     -12.450  14.016  70.010  0.00  0.00    -0.026 A 
ATOM     11  C   UNL     1     -12.026  15.306  70.315  0.00  0.00    -0.023 A 
ATOM     12  C   UNL     1     -11.794  16.229  69.158  0.00  0.00    +0.026 C 
ATOM     13  C   UNL     1     -12.092  15.854  71.571  0.00  0.00    +0.037 A 
ATOM     14  C   UNL     1     -12.440  15.081  72.647  0.00  0.00    +0.195 A 
ATOM     15  O   UNL     1     -12.074  15.407  73.957  0.00  0.00    -0.287 OA
ATOM     16  C   UNL     1     -12.928  13.830  72.394  0.00  0.00    +0.042 A 
ATOM     17  C   UNL     1     -12.694  13.264  71.157  0.00  0.00    -0.001 A 
ATOM     18  C   UNL     1     -12.147  12.058  68.687  0.00  0.00    +0.004 C 
ATOM     19  C   UNL     1     -10.865  15.536  68.166  0.00  0.00    +0.005 C 
ATOM     20  C   UNL     1     -11.243  11.319  67.691  0.00  0.00    +0.003 C 
ENDROOT
TORSDOF 0
ENDMDL
MODEL 4
REMARK VINA RESULT:      -6.5      2.345      3.401
REMARK  Name = 
REMARK  0 active torsions:
REMARK  status: ('A' for Active; 'I' for Inactive)
REMARK                            x       y       z     vdW  Elec       q    Type
REMARK                         _______ _______ _______ _____ _____    ______ ____
ROOT
ATOM      1  C   UNL     1      -9.682  13.896  66.436  0.00  0.00    +0.003 C 
ATOM      2  C   UNL     1     -11.048  13.544  66.396  0.00  0.00    +0.028 C 
ATOM      3  C   UNL     1     -11.573  13.598  64.806  0.00  0.00    +0.152 C 
ATOM      4  O   UNL     1     -11.011  15.032  64.618  0.00  0.00    -0.223 OA
ATOM      5  C   UNL     1     -10.126  12.918  64.277  0.00  0.00    +0.033 C 
ATOM      6  C   UNL     1      -9.894  11.865  65.318  0.00  0.00    +0.003 C 
ATOM      7  C   UNL     1     -11.285  11.934  66.182  0.00  0.00    +0.003 C 
ATOM      8  C   UNL     1     -10.571  11.581  67.690  0.00  0.00    +0.004 C 
ATOM      9  C   UNL     1     -12.117  11.813  68.390  0.00  0.00    +0.022 C 
ATOM     10  C   UNL     1     -11.615  11.390  69.872  0.00  0.00    -0.026 A 
ATOM     11  C   UNL     1     -11.518  10.001  69.848  0.00  0.00    -0.023 A 
ATOM     12  C   UNL     1     -10.527   9.413  68.889  0.00  0.00    +0.026 C 
ATOM     13  C   UNL     1     -12.037   9.183  70.819  0.00  0.00    +0.037 A 
ATOM     14  C   UNL     1     -12.836   9.698  71.804  0.00  0.00    +0.195 A 
ATOM     15  O   UNL     1     -13.762   8.919  72.506  0.00  0.00    -0.287 OA
ATOM     16  C   UNL     1     -12.909  11.059  71.912  0.00  0.00    +0.042 A 
ATOM     17  C   UNL     1     -12.516  11.831  70.838  0.00  0.00    -0.001 A 
ATOM     18  C   UNL     1     -11.817  13.415  68.634  0.00  0.00    +0.004 C 
ATOM     19  C   UNL     1     -10.789   9.997  67.504  0.00  0.00    +0.005 C 
ATOM     20  C   UNL     1     -12.080  14.050  67.261  0.00  0.00    +0.003 C 
ENDROOT
TORSDOF 0
ENDMDL
MODEL 5
REMARK VINA RESULT:      -6.4      2.833      4.429
REMARK  Name = 
REMARK  0 active torsions:
REMARK  status: ('A' for Active; 'I' for Inactive)
REMARK                            x       y       z     vdW  Elec       q    Type
REMARK                         _______ _______ _______ _____ _____    ______ ____
ROOT
ATOM      1  C   UNL     1      -9.808  13.751  66.881  0.00  0.00    +0.003 C 
ATOM      2  C   UNL     1     -11.135  13.275  66.949  0.00  0.00    +0.028 C 
ATOM      3  C   UNL     1     -11.934  13.704  65.540  0.00  0.00    +0.152 C 
ATOM      4  O   UNL     1     -11.505  15.187  65.690  0.00  0.00    -0.223 OA
ATOM      5  C   UNL     1     -10.562  13.358  64.626  0.00  0.00    +0.033 C 
ATOM      6  C   UNL     1     -10.085  12.092  65.272  0.00  0.00    +0.003 C 
ATOM      7  C   UNL     1     -11.304  11.769  66.319  0.00  0.00    +0.003 C 
ATOM      8  C   UNL     1     -10.315  11.097  67.536  0.00  0.00    +0.004 C 
ATOM      9  C   UNL     1     -11.725  10.959  68.497  0.00  0.00    +0.022 C 
ATOM     10  C   UNL     1     -10.944  10.204  69.702  0.00  0.00    -0.026 A 
ATOM     11  C   UNL     1     -10.766   8.894  69.264  0.00  0.00    -0.023 A 
ATOM     12  C   UNL     1      -9.925   8.703  68.039  0.00  0.00    +0.026 C 
ATOM     13  C   UNL     1     -11.054   7.790  70.026  0.00  0.00    +0.037 A 
ATOM     14  C   UNL     1     -11.698   7.925  71.226  0.00  0.00    +0.195 A 
ATOM     15  O   UNL     1     -12.435   6.886  71.805  0.00  0.00    -0.287 OA
ATOM     16  C   UNL     1     -11.836   9.188  71.731  0.00  0.00    +0.042 A 
ATOM     17  C   UNL     1     -11.687  10.263  70.878  0.00  0.00    -0.001 A 
ATOM     18  C   UNL     1     -11.488  12.455  69.144  0.00  0.00    +0.004 C 
ATOM     19  C   UNL     1     -10.463   9.611  66.937  0.00  0.00    +0.005 C 
ATOM     20  C   UNL     1     -12.028  13.409  68.069  0.00  0.00    +0.003 C 
ENDROOT
TORSDOF 0
ENDMDL
MODEL 6
REMARK VINA RESULT:      -6.3      2.720      4.926
REMARK  Name = 
REMARK  0 active torsions:
REMARK  status: ('A' for Active; 'I' for Inactive)
REMARK                            x       y       z     vdW  Elec       q    Type
REMARK                         _______ _______ _______ _____ _____    ______ ____
ROOT
ATOM      1  C   UNL     1      -8.934   9.128  69.896  0.00  0.00    +0.003 C 
ATOM      2  C   UNL     1     -10.023   8.788  69.066  0.00  0.00    +0.028 C 
ATOM      3  C   UNL     1     -10.896   7.559  69.796  0.00  0.00    +0.152 C 
ATOM      4  O   UNL     1      -9.618   6.702  69.994  0.00  0.00    -0.223 OA
ATOM      5  C   UNL     1     -10.696   8.279  71.306  0.00  0.00    +0.033 C 
ATOM      6  C   UNL     1     -10.907   9.725  70.976  0.00  0.00    +0.003 C 
ATOM      7  C   UNL     1     -11.378   9.648  69.408  0.00  0.00    +0.003 C 
ATOM      8  C   UNL     1     -10.631  11.105  68.930  0.00  0.00    +0.004 C 
ATOM      9  C   UNL     1     -11.142  10.753  67.334  0.00  0.00    +0.022 C 
ATOM     10  C   UNL     1     -10.582  12.156  66.744  0.00  0.00    -0.026 A 
ATOM     11  C   UNL     1     -11.509  13.118  67.135  0.00  0.00    -0.023 A 
ATOM     12  C   UNL     1     -11.681  13.326  68.609  0.00  0.00    +0.026 C 
ATOM     13  C   UNL     1     -12.036  14.059  66.287  0.00  0.00    +0.037 A 
ATOM     14  C   UNL     1     -11.790  13.995  64.942  0.00  0.00    +0.195 A 
ATOM     15  O   UNL     1     -12.636  14.579  63.993  0.00  0.00    -0.287 OA
ATOM     16  C   UNL     1     -10.837  13.113  64.515  0.00  0.00    +0.042 A 
ATOM     17  C   UNL     1     -10.457  12.088  65.359  0.00  0.00    -0.001 A 
ATOM     18  C   UNL     1      -9.743   9.943  67.015  0.00  0.00    +0.004 C 
ATOM     19  C   UNL     1     -11.947  11.972  69.260  0.00  0.00    +0.005 C 
ATOM     20  C   UNL     1      -9.968   8.562  67.646  0.00  0.00    +0.003 C 
ENDROOT
TORSDOF 0
ENDMDL
MODEL 7
REMARK VINA RESULT:      -6.3      3.635      5.152
REMARK  Name = 
REMARK  0 active torsions:
REMARK  status: ('A' for Active; 'I' for Inactive)
REMARK                            x       y       z     vdW  Elec       q    Type
REMARK                         _______ _______ _______ _____ _____    ______ ____
ROOT
ATOM      1  C   UNL     1     -11.675   6.459  69.905  0.00  0.00    +0.003 C 
ATOM      2  C   UNL     1     -10.968   7.139  70.920  0.00  0.00    +0.028 C 
ATOM      3  C   UNL     1      -9.534   6.326  71.218  0.00  0.00    +0.152 C 
ATOM      4  O   UNL     1     -10.279   4.977  71.395  0.00  0.00    -0.223 OA
ATOM      5  C   UNL     1      -9.325   6.040  69.571  0.00  0.00    +0.033 C 
ATOM      6  C   UNL     1      -9.735   7.356  68.985  0.00  0.00    +0.003 C 
ATOM      7  C   UNL     1      -9.939   8.273  70.328  0.00  0.00    +0.003 C 
ATOM      8  C   UNL     1     -11.235   9.197  69.714  0.00  0.00    +0.004 C 
ATOM      9  C   UNL     1     -11.330   9.945  71.251  0.00  0.00    +0.022 C 
ATOM     10  C   UNL     1     -12.493  10.974  70.784  0.00  0.00    -0.026 A 
ATOM     11  C   UNL     1     -11.845  11.949  70.030  0.00  0.00    -0.023 A 
ATOM     12  C   UNL     1     -11.168  11.488  68.775  0.00  0.00    +0.026 C 
ATOM     13  C   UNL     1     -12.033  13.297  70.203  0.00  0.00    +0.037 A 
ATOM     14  C   UNL     1     -12.767  13.764  71.259  0.00  0.00    +0.195 A 
ATOM     15  O   UNL     1     -12.610  15.056  71.772  0.00  0.00    -0.287 OA
ATOM     16  C   UNL     1     -13.478  12.852  71.988  0.00  0.00    +0.042 A 
ATOM     17  C   UNL     1     -13.138  11.517  71.892  0.00  0.00    -0.001 A 
ATOM     18  C   UNL     1     -12.402   8.815  71.787  0.00  0.00    +0.004 C 
ATOM     19  C   UNL     1     -10.248  10.322  69.122  0.00  0.00    +0.005 C 
ATOM     20  C   UNL     1     -11.517   7.618  72.161  0.00  0.00    +0.003 C 
ENDROOT
TORSDOF 0
ENDMDL
MODEL 8
REMARK VINA RESULT:      -6.1      2.467      3.324
REMARK  Name = 
REMARK  0 active torsions:
REMARK  status: ('A' for Active; 'I' for Inactive)
REMARK                            x       y       z     vdW  Elec       q    Type
REMARK                         _______ _______ _______ _____ _____    ______ ____
ROOT
ATOM      1  C   UNL     1      -8.975  12.044  66.356  0.00  0.00    +0.003 C 
ATOM      2  C   UNL     1     -10.307  11.608  66.189  0.00  0.00    +0.028 C 
ATOM      3  C   UNL     1     -10.523  11.131  64.598  0.00  0.00    +0.152 C 
ATOM      4  O   UNL     1      -9.945  12.469  64.067  0.00  0.00    -0.223 OA
ATOM      5  C   UNL     1      -8.997  10.417  64.578  0.00  0.00    +0.033 C 
ATOM      6  C   UNL     1      -8.959   9.757  65.922  0.00  0.00    +0.003 C 
ATOM      7  C   UNL     1     -10.488   9.999  66.459  0.00  0.00    +0.003 C 
ATOM      8  C   UNL     1     -10.070  10.180  68.103  0.00  0.00    +0.004 C 
ATOM      9  C   UNL     1     -11.721  10.516  68.407  0.00  0.00    +0.022 C 
ATOM     10  C   UNL     1     -11.506  10.608  70.012  0.00  0.00    -0.026 A 
ATOM     11  C   UNL     1     -11.397   9.290  70.447  0.00  0.00    -0.023 A 
ATOM     12  C   UNL     1     -10.240   8.500  69.916  0.00  0.00    +0.026 C 
ATOM     13  C   UNL     1     -12.085   8.782  71.519  0.00  0.00    +0.037 A 
ATOM     14  C   UNL     1     -13.059   9.523  72.132  0.00  0.00    +0.195 A 
ATOM     15  O   UNL     1     -14.095   8.941  72.870  0.00  0.00    -0.287 OA
ATOM     16  C   UNL     1     -13.160  10.842  71.788  0.00  0.00    +0.042 A 
ATOM     17  C   UNL     1     -12.576  11.267  70.611  0.00  0.00    -0.001 A 
ATOM     18  C   UNL     1     -11.484  12.130  68.179  0.00  0.00    +0.004 C 
ATOM     19  C   UNL     1     -10.239   8.606  68.394  0.00  0.00    +0.005 C 
ATOM     20  C   UNL     1     -11.487  12.289  66.652  0.00  0.00    +0.003 C 
ENDROOT
TORSDOF 0
ENDMDL
MODEL 9
REMARK VINA RESULT:      -6.1      4.701      6.130
REMARK  Name = 
REMARK  0 active torsions:
REMARK  status: ('A' for Active; 'I' for Inactive)
REMARK                            x       y       z     vdW  Elec       q    Type
REMARK                         _______ _______ _______ _____ _____    ______ ____
ROOT
ATOM      1  C   UNL     1     -10.980  14.164  68.737  0.00  0.00    +0.003 C 
ATOM      2  C   UNL     1      -9.784  14.208  67.990  0.00  0.00    +0.028 C 
ATOM      3  C   UNL     1      -9.751  12.898  66.946  0.00  0.00    +0.152 C 
ATOM      4  O   UNL     1     -10.049  11.907  68.102  0.00  0.00    -0.223 OA
ATOM      5  C   UNL     1     -11.394  13.080  66.624  0.00  0.00    +0.033 C 
ATOM      6  C   UNL     1     -11.511  14.570  66.508  0.00  0.00    +0.003 C 
ATOM      7  C   UNL     1      -9.942  15.038  66.583  0.00  0.00    +0.003 C 
ATOM      8  C   UNL     1     -10.234  16.495  67.420  0.00  0.00    +0.004 C 
ATOM      9  C   UNL     1      -8.537  16.716  67.471  0.00  0.00    +0.022 C 
ATOM     10  C   UNL     1      -8.653  18.175  68.169  0.00  0.00    -0.026 A 
ATOM     11  C   UNL     1      -9.024  19.046  67.149  0.00  0.00    -0.023 A 
ATOM     12  C   UNL     1     -10.348  18.791  66.496  0.00  0.00    +0.026 C 
ATOM     13  C   UNL     1      -8.413  20.252  66.915  0.00  0.00    +0.037 A 
ATOM     14  C   UNL     1      -7.274  20.594  67.592  0.00  0.00    +0.195 A 
ATOM     15  O   UNL     1      -6.355  21.525  67.097  0.00  0.00    -0.287 OA
ATOM     16  C   UNL     1      -6.906  19.808  68.649  0.00  0.00    +0.042 A 
ATOM     17  C   UNL     1      -7.439  18.538  68.747  0.00  0.00    -0.001 A 
ATOM     18  C   UNL     1      -8.430  15.922  68.911  0.00  0.00    +0.004 C 
ATOM     19  C   UNL     1     -10.397  17.331  66.054  0.00  0.00    +0.005 C 
ATOM     20  C   UNL     1      -8.464  14.439  68.515  0.00  0.00    +0.003 C 
ENDROOT
TORSDOF 0
ENDMDL
