MODEL 1
REMARK VINA RESULT:      -8.3      0.000      0.000
REMARK  Name = 
REMARK  10 active torsions:
REMARK  status: ('A' for Active; 'I' for Inactive)
REMARK    1  A    between atoms: C_2  and  O_3
REMARK    2  A    between atoms: O_3  and  N_4
REMARK    3  A    between atoms: C_5  and  C_6
REMARK    4  A    between atoms: C_5  and  C_34
REMARK    5  A    between atoms: N_8  and  CA_9
REMARK    6  A    between atoms: CA_13  and  C_14
REMARK    7  A    between atoms: C_17  and  S_18
REMARK    8  A    between atoms: S_18  and  C_19
REMARK    9  A    between atoms: C_21  and  C_22
REMARK   10  A    between atoms: N_38  and  P_39
REMARK                            x       y       z     vdW  Elec       q    Type
REMARK                         _______ _______ _______ _____ _____    ______ ____
ROOT
ATOM      1  CA  UNL     1      -7.634  18.601  66.140  0.00  0.00    +0.201 C 
ATOM      2  C   UNL     1      -7.379  16.947  66.380  0.00  0.00    +0.157 C 
ATOM      3  N   UNL     1      -8.870  16.870  66.096  0.00  0.00    -0.241 N 
ATOM      4  CA  UNL     1      -9.349  15.531  66.264  0.00  0.00    +0.138 C 
ATOM      5  C   UNL     1      -8.710  14.627  67.010  0.00  0.00    +0.040 C 
ATOM      6  C   UNL     1      -8.197  14.989  68.370  0.00  0.00    +0.093 C 
ATOM      7  S   UNL     1      -7.637  16.713  68.255  0.00  0.00    -0.113 S 
ATOM      8  C   UNL     1      -9.167  18.222  66.518  0.00  0.00    +0.253 C 
ATOM      9  O   UNL     1     -10.036  18.891  65.858  0.00  0.00    -0.273 OA
ENDROOT
BRANCH   4  10
ATOM     10  C   UNL     1     -10.647  15.247  65.633  0.00  0.00    +0.401 C 
ATOM     11  OXT UNL     1     -10.878  15.965  64.454  0.00  0.00    -0.239 OA
ATOM     12  O   UNL     1     -11.644  15.226  66.420  0.00  0.00    -0.239 OA
ENDBRANCH   4  10
BRANCH   1  14
ATOM     13  C   UNL     1      -6.768  20.409  67.552  0.00  0.00    +0.289 C 
ATOM     14  N   UNL     1      -7.190  19.067  67.595  0.00  0.00    -0.190 NA
ATOM     15  O   UNL     1      -7.722  21.194  67.383  0.00  0.00    -0.266 OA
BRANCH  13  17
ATOM     16  N   UNL     1      -4.545  21.051  67.254  0.00  0.00    -0.075 NA
ATOM     17  C   UNL     1      -5.522  20.925  68.105  0.00  0.00    +0.210 C 
BRANCH  17  18
ATOM     18  C   UNL     1      -5.253  20.530  69.500  0.00  0.00    +0.197 A 
ATOM     19  N   UNL     1      -5.878  19.436  70.005  0.00  0.00    -0.200 NA
ATOM     20  C   UNL     1      -5.133  18.869  70.979  0.00  0.00    +0.207 A 
ATOM     21  N   UNL     1      -4.980  17.483  71.310  0.00  0.00    -0.114 NA
ATOM     22  S   UNL     1      -4.563  20.296  71.742  0.00  0.00    +0.051 S 
ATOM     23  N   UNL     1      -4.951  21.393  70.504  0.00  0.00    -0.185 NA
BRANCH  21  24
ATOM     24  P   UNL     1      -4.133  16.440  70.172  0.00  0.00    +0.502 P 
ATOM     25  O   UNL     1      -4.128  17.264  68.686  0.00  0.00    -0.121 OA
ATOM     26  O   UNL     1      -4.922  14.978  69.965  0.00  0.00    -0.121 OA
ATOM     27  O   UNL     1      -2.702  16.287  70.608  0.00  0.00    -0.230 OA
ENDBRANCH  21  24
ENDBRANCH  17  18
BRANCH  16  28
ATOM     28  O   UNL     1      -4.597  20.606  65.959  0.00  0.00    -0.377 OA
BRANCH  28  30
ATOM     29  C   UNL     1      -4.229  18.554  64.965  0.00  0.00    +0.054 C 
ATOM     30  C   UNL     1      -3.675  19.615  65.511  0.00  0.00    +0.239 C 
ENDBRANCH  28  30
ENDBRANCH  16  28
ENDBRANCH  13  17
ENDBRANCH   1  14
BRANCH   5  31
ATOM     31  S   UNL     1      -9.201  12.920  66.751  0.00  0.00    -0.064 S 
BRANCH  31  32
ATOM     32  C   UNL     1     -10.350  12.550  68.072  0.00  0.00    +0.140 A 
ATOM     33  S   UNL     1     -11.079  11.097  68.607  0.00  0.00    -0.059 S 
ATOM     34  C   UNL     1     -11.939  11.769  69.936  0.00  0.00    +0.056 A 
ATOM     35  C   UNL     1     -11.849  13.123  69.632  0.00  0.00    +0.089 A 
ATOM     36  N   UNL     1     -10.749  13.422  68.967  0.00  0.00    -0.232 NA
BRANCH  35  37
ATOM     37  C   UNL     1     -12.522  14.134  70.472  0.00  0.00    +0.030 A 
ATOM     38  C   UNL     1     -11.804  15.275  70.814  0.00  0.00    +0.077 A 
ATOM     39  C   UNL     1     -12.067  15.991  71.977  0.00  0.00    +0.290 A 
ATOM     40  N   UNL     1     -12.512  15.268  73.034  0.00  0.00    -0.153 N 
ATOM     41  C   UNL     1     -12.363  15.708  74.402  0.00  0.00    +0.408 C 
ATOM     42  C   UNL     1     -13.402  14.292  72.723  0.00  0.00    +0.290 A 
ATOM     43  C   UNL     1     -13.443  13.752  71.442  0.00  0.00    +0.077 A 
ENDBRANCH  35  37
ENDBRANCH  31  32
ENDBRANCH   5  31
TORSDOF 10
ENDMDL
MODEL 2
REMARK VINA RESULT:      -8.1      3.997      5.476
REMARK  Name = 
REMARK  10 active torsions:
REMARK  status: ('A' for Active; 'I' for Inactive)
REMARK    1  A    between atoms: C_2  and  O_3
REMARK    2  A    between atoms: O_3  and  N_4
REMARK    3  A    between atoms: C_5  and  C_6
REMARK    4  A    between atoms: C_5  and  C_34
REMARK    5  A    between atoms: N_8  and  CA_9
REMARK    6  A    between atoms: CA_13  and  C_14
REMARK    7  A    between atoms: C_17  and  S_18
REMARK    8  A    between atoms: S_18  and  C_19
REMARK    9  A    between atoms: C_21  and  C_22
REMARK   10  A    between atoms: N_38  and  P_39
REMARK                            x       y       z     vdW  Elec       q    Type
REMARK                         _______ _______ _______ _____ _____    ______ ____
ROOT
ATOM      1  CA  UNL     1      -8.632  15.067  66.736  0.00  0.00    +0.201 C 
ATOM      2  C   UNL     1      -9.177  14.100  68.012  0.00  0.00    +0.157 C 
ATOM      3  N   UNL     1     -10.034  13.477  66.921  0.00  0.00    -0.241 N 
ATOM      4  CA  UNL     1     -10.924  12.501  67.472  0.00  0.00    +0.138 C 
ATOM      5  C   UNL     1     -11.281  12.498  68.759  0.00  0.00    +0.040 C 
ATOM      6  C   UNL     1     -11.692  13.769  69.437  0.00  0.00    +0.093 C 
ATOM      7  S   UNL     1     -10.650  15.077  68.729  0.00  0.00    -0.113 S 
ATOM      8  C   UNL     1     -10.049  14.645  66.066  0.00  0.00    +0.253 C 
ATOM      9  O   UNL     1      -9.985  14.475  64.799  0.00  0.00    -0.273 OA
ENDROOT
BRANCH   4  10
ATOM     10  C   UNL     1     -11.495  11.555  66.501  0.00  0.00    +0.401 C 
ATOM     11  OXT UNL     1     -10.580  10.611  66.019  0.00  0.00    -0.239 OA
ATOM     12  O   UNL     1     -12.218  12.072  65.595  0.00  0.00    -0.239 OA
ENDBRANCH   4  10
BRANCH   1  14
ATOM     13  C   UNL     1      -8.079  17.402  67.236  0.00  0.00    +0.289 C 
ATOM     14  N   UNL     1      -9.115  16.456  67.342  0.00  0.00    -0.190 NA
ATOM     15  O   UNL     1      -7.892  17.763  66.058  0.00  0.00    -0.266 OA
BRANCH  13  17
ATOM     16  N   UNL     1      -8.453  19.108  68.784  0.00  0.00    -0.075 NA
ATOM     17  C   UNL     1      -7.591  18.252  68.317  0.00  0.00    +0.210 C 
BRANCH  17  18
ATOM     18  C   UNL     1      -6.161  18.600  68.234  0.00  0.00    +0.197 A 
ATOM     19  N   UNL     1      -5.788  19.895  68.399  0.00  0.00    -0.200 NA
ATOM     20  C   UNL     1      -4.532  19.970  68.889  0.00  0.00    +0.207 A 
ATOM     21  N   UNL     1      -3.975  20.919  69.806  0.00  0.00    -0.114 NA
ATOM     22  S   UNL     1      -3.818  18.696  67.987  0.00  0.00    +0.051 S 
ATOM     23  N   UNL     1      -5.251  17.953  67.458  0.00  0.00    -0.185 NA
BRANCH  21  24
ATOM     24  P   UNL     1      -4.533  20.896  71.477  0.00  0.00    +0.502 P 
ATOM     25  O   UNL     1      -4.498  22.508  72.011  0.00  0.00    -0.121 OA
ATOM     26  O   UNL     1      -3.522  19.990  72.456  0.00  0.00    -0.121 OA
ATOM     27  O   UNL     1      -5.965  20.439  71.516  0.00  0.00    -0.230 OA
ENDBRANCH  21  24
ENDBRANCH  17  18
BRANCH  16  28
ATOM     28  O   UNL     1      -9.688  19.328  68.233  0.00  0.00    -0.377 OA
BRANCH  28  30
ATOM     29  C   UNL     1     -10.488  19.949  66.157  0.00  0.00    +0.054 C 
ATOM     30  C   UNL     1      -9.854  20.340  67.241  0.00  0.00    +0.239 C 
ENDBRANCH  28  30
ENDBRANCH  16  28
ENDBRANCH  13  17
ENDBRANCH   1  14
BRANCH   5  31
ATOM     31  S   UNL     1     -12.028  10.978  69.354  0.00  0.00    -0.064 S 
BRANCH  31  32
ATOM     32  C   UNL     1     -10.700  10.067  70.133  0.00  0.00    +0.140 A 
ATOM     33  S   UNL     1      -9.107   9.683  69.640  0.00  0.00    -0.059 S 
ATOM     34  C   UNL     1      -8.635   8.860  71.075  0.00  0.00    +0.056 A 
ATOM     35  C   UNL     1      -9.876   8.663  71.670  0.00  0.00    +0.089 A 
ATOM     36  N   UNL     1     -10.742   9.611  71.363  0.00  0.00    -0.232 NA
BRANCH  35  37
ATOM     37  C   UNL     1     -10.000   7.909  72.932  0.00  0.00    +0.030 A 
ATOM     38  C   UNL     1      -8.871   7.802  73.738  0.00  0.00    +0.077 A 
ATOM     39  C   UNL     1      -8.681   6.729  74.602  0.00  0.00    +0.290 A 
ATOM     40  N   UNL     1      -9.202   5.543  74.203  0.00  0.00    -0.153 N 
ATOM     41  C   UNL     1      -8.704   4.271  74.674  0.00  0.00    +0.408 C 
ATOM     42  C   UNL     1     -10.423   5.624  73.619  0.00  0.00    +0.290 A 
ATOM     43  C   UNL     1     -10.846   6.807  73.021  0.00  0.00    +0.077 A 
ENDBRANCH  35  37
ENDBRANCH  31  32
ENDBRANCH   5  31
TORSDOF 10
ENDMDL
MODEL 3
REMARK VINA RESULT:      -8.0      4.982      9.145
REMARK  Name = 
REMARK  10 active torsions:
REMARK  status: ('A' for Active; 'I' for Inactive)
REMARK    1  A    between atoms: C_2  and  O_3
REMARK    2  A    between atoms: O_3  and  N_4
REMARK    3  A    between atoms: C_5  and  C_6
REMARK    4  A    between atoms: C_5  and  C_34
REMARK    5  A    between atoms: N_8  and  CA_9
REMARK    6  A    between atoms: CA_13  and  C_14
REMARK    7  A    between atoms: C_17  and  S_18
REMARK    8  A    between atoms: S_18  and  C_19
REMARK    9  A    between atoms: C_21  and  C_22
REMARK   10  A    between atoms: N_38  and  P_39
REMARK                            x       y       z     vdW  Elec       q    Type
REMARK                         _______ _______ _______ _____ _____    ______ ____
ROOT
ATOM      1  CA  UNL     1      -8.742   8.676  68.958  0.00  0.00    +0.201 C 
ATOM      2  C   UNL     1      -9.605  10.014  69.527  0.00  0.00    +0.157 C 
ATOM      3  N   UNL     1     -10.435   8.944  70.218  0.00  0.00    -0.241 N 
ATOM      4  CA  UNL     1     -11.553   9.529  70.894  0.00  0.00    +0.138 C 
ATOM      5  C   UNL     1     -12.048  10.724  70.564  0.00  0.00    +0.040 C 
ATOM      6  C   UNL     1     -12.282  11.080  69.127  0.00  0.00    +0.093 C 
ATOM      7  S   UNL     1     -10.934  10.303  68.191  0.00  0.00    -0.113 S 
ATOM      8  C   UNL     1     -10.128   7.891  69.273  0.00  0.00    +0.253 C 
ATOM      9  O   UNL     1      -9.953   6.704  69.717  0.00  0.00    -0.273 OA
ENDROOT
BRANCH   4  10
ATOM     10  C   UNL     1     -12.180   8.679  71.918  0.00  0.00    +0.401 C 
ATOM     11  OXT UNL     1     -11.269   8.063  72.784  0.00  0.00    -0.239 OA
ATOM     12  O   UNL     1     -13.091   7.900  71.498  0.00  0.00    -0.239 OA
ENDBRANCH   4  10
BRANCH   1  14
ATOM     13  C   UNL     1      -7.791   9.098  66.738  0.00  0.00    +0.289 C 
ATOM     14  N   UNL     1      -9.015   8.929  67.411  0.00  0.00    -0.190 NA
ATOM     15  O   UNL     1      -7.154   8.030  66.647  0.00  0.00    -0.266 OA
BRANCH  13  17
ATOM     16  N   UNL     1      -7.154  11.316  66.394  0.00  0.00    -0.075 NA
ATOM     17  C   UNL     1      -7.468  10.189  65.825  0.00  0.00    +0.210 C 
BRANCH  17  18
ATOM     18  C   UNL     1      -8.215  10.174  64.554  0.00  0.00    +0.197 A 
ATOM     19  N   UNL     1      -9.563  10.016  64.585  0.00  0.00    -0.200 NA
ATOM     20  C   UNL     1     -10.136  10.604  63.513  0.00  0.00    +0.207 A 
ATOM     21  N   UNL     1     -11.396  11.280  63.419  0.00  0.00    -0.114 NA
ATOM     22  S   UNL     1      -8.977  10.175  62.323  0.00  0.00    +0.051 S 
ATOM     23  N   UNL     1      -7.724   9.714  63.373  0.00  0.00    -0.185 NA
BRANCH  21  24
ATOM     24  P   UNL     1     -11.584  12.819  64.256  0.00  0.00    +0.502 P 
ATOM     25  O   UNL     1     -12.330  12.462  65.741  0.00  0.00    -0.121 OA
ATOM     26  O   UNL     1     -12.570  13.871  63.406  0.00  0.00    -0.121 OA
ATOM     27  O   UNL     1     -10.227  13.390  64.559  0.00  0.00    -0.230 OA
ENDBRANCH  21  24
ENDBRANCH  17  18
BRANCH  16  28
ATOM     28  O   UNL     1      -7.251  11.546  67.741  0.00  0.00    -0.377 OA
BRANCH  28  30
ATOM     29  C   UNL     1      -6.288  12.044  69.780  0.00  0.00    +0.054 C 
ATOM     30  C   UNL     1      -6.081  11.855  68.495  0.00  0.00    +0.239 C 
ENDBRANCH  28  30
ENDBRANCH  16  28
ENDBRANCH  13  17
ENDBRANCH   1  14
BRANCH   5  31
ATOM     31  S   UNL     1     -13.137  11.475  71.777  0.00  0.00    -0.064 S 
BRANCH  31  32
ATOM     32  C   UNL     1     -12.837  13.236  71.662  0.00  0.00    +0.140 A 
ATOM     33  S   UNL     1     -13.202  14.549  72.696  0.00  0.00    -0.059 S 
ATOM     34  C   UNL     1     -12.462  15.777  71.747  0.00  0.00    +0.056 A 
ATOM     35  C   UNL     1     -12.298  15.099  70.544  0.00  0.00    +0.089 A 
ATOM     36  N   UNL     1     -12.128  13.801  70.713  0.00  0.00    -0.232 NA
BRANCH  35  37
ATOM     37  C   UNL     1     -11.750  15.784  69.357  0.00  0.00    +0.030 A 
ATOM     38  C   UNL     1     -11.736  15.086  68.154  0.00  0.00    +0.077 A 
ATOM     39  C   UNL     1     -10.804  15.353  67.158  0.00  0.00    +0.290 A 
ATOM     40  N   UNL     1      -9.585  15.773  67.578  0.00  0.00    -0.153 N 
ATOM     41  C   UNL     1      -8.387  15.620  66.785  0.00  0.00    +0.408 C 
ATOM     42  C   UNL     1      -9.611  16.647  68.616  0.00  0.00    +0.290 A 
ATOM     43  C   UNL     1     -10.700  16.688  69.481  0.00  0.00    +0.077 A 
ENDBRANCH  35  37
ENDBRANCH  31  32
ENDBRANCH   5  31
TORSDOF 10
ENDMDL
MODEL 4
REMARK VINA RESULT:      -8.0      2.996      3.744
REMARK  Name = 
REMARK  10 active torsions:
REMARK  status: ('A' for Active; 'I' for Inactive)
REMARK    1  A    between atoms: C_2  and  O_3
REMARK    2  A    between atoms: O_3  and  N_4
REMARK    3  A    between atoms: C_5  and  C_6
REMARK    4  A    between atoms: C_5  and  C_34
REMARK    5  A    between atoms: N_8  and  CA_9
REMARK    6  A    between atoms: CA_13  and  C_14
REMARK    7  A    between atoms: C_17  and  S_18
REMARK    8  A    between atoms: S_18  and  C_19
REMARK    9  A    between atoms: C_21  and  C_22
REMARK   10  A    between atoms: N_38  and  P_39
REMARK                            x       y       z     vdW  Elec       q    Type
REMARK                         _______ _______ _______ _____ _____    ______ ____
ROOT
ATOM      1  CA  UNL     1      -9.011  17.698  66.590  0.00  0.00    +0.201 C 
ATOM      2  C   UNL     1      -8.657  16.112  66.123  0.00  0.00    +0.157 C 
ATOM      3  N   UNL     1      -9.952  15.809  66.859  0.00  0.00    -0.241 N 
ATOM      4  CA  UNL     1     -10.191  14.398  66.904  0.00  0.00    +0.138 C 
ATOM      5  C   UNL     1      -9.215  13.499  66.763  0.00  0.00    +0.040 C 
ATOM      6  C   UNL     1      -7.921  13.658  67.502  0.00  0.00    +0.093 C 
ATOM      7  S   UNL     1      -7.588  15.443  67.553  0.00  0.00    -0.113 S 
ATOM      8  C   UNL     1      -9.891  16.959  67.737  0.00  0.00    +0.253 C 
ATOM      9  O   UNL     1     -10.979  17.570  68.019  0.00  0.00    -0.273 OA
ENDROOT
BRANCH   4  10
ATOM     10  C   UNL     1     -11.575  14.007  67.211  0.00  0.00    +0.401 C 
ATOM     11  OXT UNL     1     -12.485  14.276  66.181  0.00  0.00    -0.239 OA
ATOM     12  O   UNL     1     -11.996  14.341  68.362  0.00  0.00    -0.239 OA
ENDBRANCH   4  10
BRANCH   1  14
ATOM     13  C   UNL     1      -7.274  19.257  67.338  0.00  0.00    +0.289 C 
ATOM     14  N   UNL     1      -7.705  17.924  67.469  0.00  0.00    -0.190 NA
ATOM     15  O   UNL     1      -8.035  20.056  67.919  0.00  0.00    -0.266 OA
BRANCH  13  17
ATOM     16  N   UNL     1      -5.735  20.136  65.821  0.00  0.00    -0.075 NA
ATOM     17  C   UNL     1      -5.914  19.683  67.027  0.00  0.00    +0.210 C 
BRANCH  17  18
ATOM     18  C   UNL     1      -4.854  18.911  67.702  0.00  0.00    +0.197 A 
ATOM     19  N   UNL     1      -3.775  19.569  68.197  0.00  0.00    -0.200 NA
ATOM     20  C   UNL     1      -3.248  18.899  69.244  0.00  0.00    +0.207 A 
ATOM     21  N   UNL     1      -2.636  19.416  70.432  0.00  0.00    -0.114 NA
ATOM     22  S   UNL     1      -3.419  17.299  68.650  0.00  0.00    +0.051 S 
ATOM     23  N   UNL     1      -4.513  17.632  67.394  0.00  0.00    -0.185 NA
BRANCH  21  24
ATOM     24  P   UNL     1      -3.652  20.264  71.595  0.00  0.00    +0.502 P 
ATOM     25  O   UNL     1      -4.964  19.234  71.918  0.00  0.00    -0.121 OA
ATOM     26  O   UNL     1      -4.244  21.699  70.970  0.00  0.00    -0.121 OA
ATOM     27  O   UNL     1      -2.893  20.444  72.880  0.00  0.00    -0.230 OA
ENDBRANCH  21  24
ENDBRANCH  17  18
BRANCH  16  28
ATOM     28  O   UNL     1      -6.690  20.097  64.839  0.00  0.00    -0.377 OA
BRANCH  28  30
ATOM     29  C   UNL     1      -5.290  20.710  63.108  0.00  0.00    +0.054 C 
ATOM     30  C   UNL     1      -6.494  20.822  63.627  0.00  0.00    +0.239 C 
ENDBRANCH  28  30
ENDBRANCH  16  28
ENDBRANCH  13  17
ENDBRANCH   1  14
BRANCH   5  31
ATOM     31  S   UNL     1      -9.749  11.822  66.408  0.00  0.00    -0.064 S 
BRANCH  31  32
ATOM     32  C   UNL     1      -9.416  10.890  67.898  0.00  0.00    +0.140 A 
ATOM     33  S   UNL     1      -8.108   9.900  68.384  0.00  0.00    -0.059 S 
ATOM     34  C   UNL     1      -8.694   9.533  69.959  0.00  0.00    +0.056 A 
ATOM     35  C   UNL     1     -10.018   9.938  69.834  0.00  0.00    +0.089 A 
ATOM     36  N   UNL     1     -10.165  10.930  68.975  0.00  0.00    -0.232 NA
BRANCH  35  37
ATOM     37  C   UNL     1     -10.976   9.749  70.940  0.00  0.00    +0.030 A 
ATOM     38  C   UNL     1     -11.070   8.483  71.508  0.00  0.00    +0.077 A 
ATOM     39  C   UNL     1     -12.236   8.033  72.117  0.00  0.00    +0.290 A 
ATOM     40  N   UNL     1     -13.398   8.507  71.604  0.00  0.00    -0.153 N 
ATOM     41  C   UNL     1     -14.657   7.813  71.744  0.00  0.00    +0.408 C 
ATOM     42  C   UNL     1     -13.376   9.820  71.262  0.00  0.00    +0.290 A 
ATOM     43  C   UNL     1     -12.174  10.456  70.970  0.00  0.00    +0.077 A 
ENDBRANCH  35  37
ENDBRANCH  31  32
ENDBRANCH   5  31
TORSDOF 10
ENDMDL
MODEL 5
REMARK VINA RESULT:      -7.9      2.488      3.173
REMARK  Name = 
REMARK  10 active torsions:
REMARK  status: ('A' for Active; 'I' for Inactive)
REMARK    1  A    between atoms: C_2  and  O_3
REMARK    2  A    between atoms: O_3  and  N_4
REMARK    3  A    between atoms: C_5  and  C_6
REMARK    4  A    between atoms: C_5  and  C_34
REMARK    5  A    between atoms: N_8  and  CA_9
REMARK    6  A    between atoms: CA_13  and  C_14
REMARK    7  A    between atoms: C_17  and  S_18
REMARK    8  A    between atoms: S_18  and  C_19
REMARK    9  A    between atoms: C_21  and  C_22
REMARK   10  A    between atoms: N_38  and  P_39
REMARK                            x       y       z     vdW  Elec       q    Type
REMARK                         _______ _______ _______ _____ _____    ______ ____
ROOT
ATOM      1  CA  UNL     1      -9.498  17.564  66.876  0.00  0.00    +0.201 C 
ATOM      2  C   UNL     1      -8.922  16.075  66.320  0.00  0.00    +0.157 C 
ATOM      3  N   UNL     1     -10.200  15.557  66.961  0.00  0.00    -0.241 N 
ATOM      4  CA  UNL     1     -10.257  14.129  66.894  0.00  0.00    +0.138 C 
ATOM      5  C   UNL     1      -9.168  13.372  66.744  0.00  0.00    +0.040 C 
ATOM      6  C   UNL     1      -7.941  13.634  67.563  0.00  0.00    +0.093 C 
ATOM      7  S   UNL     1      -7.842  15.438  67.756  0.00  0.00    -0.113 S 
ATOM      8  C   UNL     1     -10.326  16.636  67.919  0.00  0.00    +0.253 C 
ATOM      9  O   UNL     1     -11.496  17.084  68.184  0.00  0.00    -0.273 OA
ENDROOT
BRANCH   4  10
ATOM     10  C   UNL     1     -11.592  13.546  67.097  0.00  0.00    +0.401 C 
ATOM     11  OXT UNL     1     -12.545  13.963  66.160  0.00  0.00    -0.239 OA
ATOM     12  O   UNL     1     -12.017  13.555  68.294  0.00  0.00    -0.239 OA
ENDBRANCH   4  10
BRANCH   1  14
ATOM     13  C   UNL     1      -8.229  19.266  68.103  0.00  0.00    +0.289 C 
ATOM     14  N   UNL     1      -8.273  17.884  67.839  0.00  0.00    -0.190 NA
ATOM     15  O   UNL     1      -9.158  19.631  68.849  0.00  0.00    -0.266 OA
BRANCH  13  17
ATOM     16  N   UNL     1      -6.569  20.232  66.778  0.00  0.00    -0.075 NA
ATOM     17  C   UNL     1      -7.050  20.116  67.982  0.00  0.00    +0.210 C 
BRANCH  17  18
ATOM     18  C   UNL     1      -6.150  20.096  69.149  0.00  0.00    +0.197 A 
ATOM     19  N   UNL     1      -6.423  19.250  70.176  0.00  0.00    -0.200 NA
ATOM     20  C   UNL     1      -5.289  18.903  70.822  0.00  0.00    +0.207 A 
ATOM     21  N   UNL     1      -4.943  17.654  71.433  0.00  0.00    -0.114 NA
ATOM     22  S   UNL     1      -4.491  20.422  70.792  0.00  0.00    +0.051 S 
ATOM     23  N   UNL     1      -5.453  21.168  69.608  0.00  0.00    -0.185 NA
BRANCH  21  24
ATOM     24  P   UNL     1      -4.675  16.259  70.391  0.00  0.00    +0.502 P 
ATOM     25  O   UNL     1      -4.718  16.843  68.796  0.00  0.00    -0.121 OA
ATOM     26  O   UNL     1      -5.882  15.112  70.569  0.00  0.00    -0.121 OA
ATOM     27  O   UNL     1      -3.296  15.713  70.635  0.00  0.00    -0.230 OA
ENDBRANCH  21  24
ENDBRANCH  17  18
BRANCH  16  28
ATOM     28  O   UNL     1      -7.016  19.511  65.703  0.00  0.00    -0.377 OA
BRANCH  28  30
ATOM     29  C   UNL     1      -5.018  18.357  65.601  0.00  0.00    +0.054 C 
ATOM     30  C   UNL     1      -6.102  18.718  64.949  0.00  0.00    +0.239 C 
ENDBRANCH  28  30
ENDBRANCH  16  28
ENDBRANCH  13  17
ENDBRANCH   1  14
BRANCH   5  31
ATOM     31  S   UNL     1      -9.466  11.673  66.245  0.00  0.00    -0.064 S 
BRANCH  31  32
ATOM     32  C   UNL     1      -9.253  10.695  67.728  0.00  0.00    +0.140 A 
ATOM     33  S   UNL     1      -8.118   9.497  68.178  0.00  0.00    -0.059 S 
ATOM     34  C   UNL     1      -8.712   9.232  69.771  0.00  0.00    +0.056 A 
ATOM     35  C   UNL     1      -9.951   9.856  69.683  0.00  0.00    +0.089 A 
ATOM     36  N   UNL     1      -9.953  10.860  68.826  0.00  0.00    -0.232 NA
BRANCH  35  37
ATOM     37  C   UNL     1     -10.895   9.830  70.817  0.00  0.00    +0.030 A 
ATOM     38  C   UNL     1     -11.011   8.646  71.538  0.00  0.00    +0.077 A 
ATOM     39  C   UNL     1     -12.178   8.306  72.213  0.00  0.00    +0.290 A 
ATOM     40  N   UNL     1     -13.336   8.745  71.661  0.00  0.00    -0.153 N 
ATOM     41  C   UNL     1     -14.610   8.107  71.903  0.00  0.00    +0.408 C 
ATOM     42  C   UNL     1     -13.287  10.005  71.160  0.00  0.00    +0.290 A 
ATOM     43  C   UNL     1     -12.075  10.568  70.776  0.00  0.00    +0.077 A 
ENDBRANCH  35  37
ENDBRANCH  31  32
ENDBRANCH   5  31
TORSDOF 10
ENDMDL
MODEL 6
REMARK VINA RESULT:      -7.9      3.553      9.549
REMARK  Name = 
REMARK  10 active torsions:
REMARK  status: ('A' for Active; 'I' for Inactive)
REMARK    1  A    between atoms: C_2  and  O_3
REMARK    2  A    between atoms: O_3  and  N_4
REMARK    3  A    between atoms: C_5  and  C_6
REMARK    4  A    between atoms: C_5  and  C_34
REMARK    5  A    between atoms: N_8  and  CA_9
REMARK    6  A    between atoms: CA_13  and  C_14
REMARK    7  A    between atoms: C_17  and  S_18
REMARK    8  A    between atoms: S_18  and  C_19
REMARK    9  A    between atoms: C_21  and  C_22
REMARK   10  A    between atoms: N_38  and  P_39
REMARK                            x       y       z     vdW  Elec       q    Type
REMARK                         _______ _______ _______ _____ _____    ______ ____
ROOT
ATOM      1  CA  UNL     1     -11.549  15.020  66.084  0.00  0.00    +0.201 C 
ATOM      2  C   UNL     1     -10.539  15.506  67.350  0.00  0.00    +0.157 C 
ATOM      3  N   UNL     1     -10.321  16.717  66.457  0.00  0.00    -0.241 N 
ATOM      4  CA  UNL     1      -9.340  17.593  67.021  0.00  0.00    +0.138 C 
ATOM      5  C   UNL     1      -8.431  17.179  67.908  0.00  0.00    +0.040 C 
ATOM      6  C   UNL     1      -7.676  15.904  67.684  0.00  0.00    +0.093 C 
ATOM      7  S   UNL     1      -8.844  14.759  66.895  0.00  0.00    -0.113 S 
ATOM      8  C   UNL     1     -10.629  16.037  65.216  0.00  0.00    +0.253 C 
ATOM      9  O   UNL     1     -11.280  16.673  64.316  0.00  0.00    -0.273 OA
ENDROOT
BRANCH   4  10
ATOM     10  C   UNL     1      -9.340  18.962  66.484  0.00  0.00    +0.401 C 
ATOM     11  OXT UNL     1     -10.618  19.484  66.255  0.00  0.00    -0.239 OA
ATOM     12  O   UNL     1      -8.524  19.178  65.535  0.00  0.00    -0.239 OA
ENDBRANCH   4  10
BRANCH   1  14
ATOM     13  C   UNL     1     -11.551  12.569  66.024  0.00  0.00    +0.289 C 
ATOM     14  N   UNL     1     -10.756  13.689  65.720  0.00  0.00    -0.190 NA
ATOM     15  O   UNL     1     -12.507  12.443  65.234  0.00  0.00    -0.266 OA
BRANCH  13  17
ATOM     16  N   UNL     1     -11.562  11.366  68.023  0.00  0.00    -0.075 NA
ATOM     17  C   UNL     1     -11.123  11.409  66.799  0.00  0.00    +0.210 C 
BRANCH  17  18
ATOM     18  C   UNL     1      -9.778  10.906  66.468  0.00  0.00    +0.197 A 
ATOM     19  N   UNL     1      -9.661   9.850  65.622  0.00  0.00    -0.200 NA
ATOM     20  C   UNL     1      -8.481   9.895  64.965  0.00  0.00    +0.207 A 
ATOM     21  N   UNL     1      -8.179   9.501  63.622  0.00  0.00    -0.114 NA
ATOM     22  S   UNL     1      -7.480  10.425  66.254  0.00  0.00    +0.051 S 
ATOM     23  N   UNL     1      -8.708  10.946  67.305  0.00  0.00    -0.185 NA
BRANCH  21  24
ATOM     24  P   UNL     1      -8.852  10.450  62.300  0.00  0.00    +0.502 P 
ATOM     25  O   UNL     1      -7.546  11.282  61.600  0.00  0.00    -0.121 OA
ATOM     26  O   UNL     1      -9.964  11.575  62.848  0.00  0.00    -0.121 OA
ATOM     27  O   UNL     1      -9.409   9.524  61.255  0.00  0.00    -0.230 OA
ENDBRANCH  21  24
ENDBRANCH  17  18
BRANCH  16  28
ATOM     28  O   UNL     1     -12.255  12.384  68.624  0.00  0.00    -0.377 OA
BRANCH  28  30
ATOM     29  C   UNL     1     -12.429  14.020  70.244  0.00  0.00    +0.054 C 
ATOM     30  C   UNL     1     -11.756  12.972  69.824  0.00  0.00    +0.239 C 
ENDBRANCH  28  30
ENDBRANCH  16  28
ENDBRANCH  13  17
ENDBRANCH   1  14
BRANCH   5  31
ATOM     31  S   UNL     1      -7.590  18.476  68.820  0.00  0.00    -0.064 S 
BRANCH  31  32
ATOM     32  C   UNL     1      -5.946  18.563  68.117  0.00  0.00    +0.140 A 
ATOM     33  S   UNL     1      -4.382  18.427  68.796  0.00  0.00    -0.059 S 
ATOM     34  C   UNL     1      -3.500  18.585  67.328  0.00  0.00    +0.056 A 
ATOM     35  C   UNL     1      -4.496  19.072  66.489  0.00  0.00    +0.089 A 
ATOM     36  N   UNL     1      -5.698  18.649  66.831  0.00  0.00    -0.232 NA
BRANCH  35  37
ATOM     37  C   UNL     1      -4.196  19.444  65.093  0.00  0.00    +0.030 A 
ATOM     38  C   UNL     1      -4.208  20.796  64.764  0.00  0.00    +0.077 A 
ATOM     39  C   UNL     1      -4.493  21.238  63.477  0.00  0.00    +0.290 A 
ATOM     40  N   UNL     1      -5.357  20.477  62.762  0.00  0.00    -0.153 N 
ATOM     41  C   UNL     1      -6.138  21.000  61.664  0.00  0.00    +0.408 C 
ATOM     42  C   UNL     1      -5.191  19.138  62.905  0.00  0.00    +0.290 A 
ATOM     43  C   UNL     1      -4.578  18.618  64.040  0.00  0.00    +0.077 A 
ENDBRANCH  35  37
ENDBRANCH  31  32
ENDBRANCH   5  31
TORSDOF 10
ENDMDL
MODEL 7
REMARK VINA RESULT:      -7.7      3.395      4.513
REMARK  Name = 
REMARK  10 active torsions:
REMARK  status: ('A' for Active; 'I' for Inactive)
REMARK    1  A    between atoms: C_2  and  O_3
REMARK    2  A    between atoms: O_3  and  N_4
REMARK    3  A    between atoms: C_5  and  C_6
REMARK    4  A    between atoms: C_5  and  C_34
REMARK    5  A    between atoms: N_8  and  CA_9
REMARK    6  A    between atoms: CA_13  and  C_14
REMARK    7  A    between atoms: C_17  and  S_18
REMARK    8  A    between atoms: S_18  and  C_19
REMARK    9  A    between atoms: C_21  and  C_22
REMARK   10  A    between atoms: N_38  and  P_39
REMARK                            x       y       z     vdW  Elec       q    Type
REMARK                         _______ _______ _______ _____ _____    ______ ____
ROOT
ATOM      1  CA  UNL     1      -8.912  16.295  65.752  0.00  0.00    +0.201 C 
ATOM      2  C   UNL     1      -9.070  14.831  66.583  0.00  0.00    +0.157 C 
ATOM      3  N   UNL     1     -10.383  14.759  65.820  0.00  0.00    -0.241 N 
ATOM      4  CA  UNL     1     -11.140  13.613  66.221  0.00  0.00    +0.138 C 
ATOM      5  C   UNL     1     -10.954  13.003  67.394  0.00  0.00    +0.040 C 
ATOM      6  C   UNL     1     -10.834  13.802  68.656  0.00  0.00    +0.093 C 
ATOM      7  S   UNL     1      -9.942  15.319  68.207  0.00  0.00    -0.113 S 
ATOM      8  C   UNL     1     -10.528  16.189  65.650  0.00  0.00    +0.253 C 
ATOM      9  O   UNL     1     -11.000  16.628  64.545  0.00  0.00    -0.273 OA
ENDROOT
BRANCH   4  10
ATOM     10  C   UNL     1     -12.205  13.208  65.291  0.00  0.00    +0.401 C 
ATOM     11  OXT UNL     1     -11.737  12.745  64.055  0.00  0.00    -0.239 OA
ATOM     12  O   UNL     1     -13.183  14.012  65.196  0.00  0.00    -0.239 OA
ENDBRANCH   4  10
BRANCH   1  14
ATOM     13  C   UNL     1      -8.316  18.479  66.693  0.00  0.00    +0.289 C 
ATOM     14  N   UNL     1      -8.863  17.229  67.039  0.00  0.00    -0.190 NA
ATOM     15  O   UNL     1      -9.096  19.155  65.995  0.00  0.00    -0.266 OA
BRANCH  13  17
ATOM     16  N   UNL     1      -6.625  20.086  66.725  0.00  0.00    -0.075 NA
ATOM     17  C   UNL     1      -7.237  19.158  67.402  0.00  0.00    +0.210 C 
BRANCH  17  18
ATOM     18  C   UNL     1      -6.495  18.314  68.356  0.00  0.00    +0.197 A 
ATOM     19  N   UNL     1      -5.157  18.497  68.493  0.00  0.00    -0.200 NA
ATOM     20  C   UNL     1      -4.752  18.142  69.732  0.00  0.00    +0.207 A 
ATOM     21  N   UNL     1      -3.729  18.722  70.550  0.00  0.00    -0.114 NA
ATOM     22  S   UNL     1      -5.728  16.745  69.939  0.00  0.00    +0.051 S 
ATOM     23  N   UNL     1      -6.820  17.033  68.671  0.00  0.00    -0.185 NA
BRANCH  21  24
ATOM     24  P   UNL     1      -3.988  20.341  71.192  0.00  0.00    +0.502 P 
ATOM     25  O   UNL     1      -3.120  20.417  72.651  0.00  0.00    -0.121 OA
ATOM     26  O   UNL     1      -5.605  20.626  71.521  0.00  0.00    -0.121 OA
ATOM     27  O   UNL     1      -3.385  21.350  70.256  0.00  0.00    -0.230 OA
ENDBRANCH  21  24
ENDBRANCH  17  18
BRANCH  16  28
ATOM     28  O   UNL     1      -6.846  20.336  65.397  0.00  0.00    -0.377 OA
BRANCH  28  30
ATOM     29  C   UNL     1      -5.947  20.610  63.287  0.00  0.00    +0.054 C 
ATOM     30  C   UNL     1      -5.867  19.963  64.430  0.00  0.00    +0.239 C 
ENDBRANCH  28  30
ENDBRANCH  16  28
ENDBRANCH  13  17
ENDBRANCH   1  14
BRANCH   5  31
ATOM     31  S   UNL     1     -11.662  11.359  67.535  0.00  0.00    -0.064 S 
BRANCH  31  32
ATOM     32  C   UNL     1     -10.690  10.527  68.787  0.00  0.00    +0.140 A 
ATOM     33  S   UNL     1      -9.015  10.217  68.944  0.00  0.00    -0.059 S 
ATOM     34  C   UNL     1      -9.087   9.442  70.478  0.00  0.00    +0.056 A 
ATOM     35  C   UNL     1     -10.452   9.191  70.568  0.00  0.00    +0.089 A 
ATOM     36  N   UNL     1     -11.175  10.089  69.925  0.00  0.00    -0.232 NA
BRANCH  35  37
ATOM     37  C   UNL     1     -11.012   8.451  71.715  0.00  0.00    +0.030 A 
ATOM     38  C   UNL     1     -10.142   8.077  72.734  0.00  0.00    +0.077 A 
ATOM     39  C   UNL     1     -10.381   6.967  73.536  0.00  0.00    +0.290 A 
ATOM     40  N   UNL     1     -11.036   5.935  72.948  0.00  0.00    -0.153 N 
ATOM     41  C   UNL     1     -10.936   4.573  73.419  0.00  0.00    +0.408 C 
ATOM     42  C   UNL     1     -12.050   6.300  72.123  0.00  0.00    +0.290 A 
ATOM     43  C   UNL     1     -12.068   7.562  71.538  0.00  0.00    +0.077 A 
ENDBRANCH  35  37
ENDBRANCH  31  32
ENDBRANCH   5  31
TORSDOF 10
ENDMDL
MODEL 8
REMARK VINA RESULT:      -7.7      3.443      5.438
REMARK  Name = 
REMARK  10 active torsions:
REMARK  status: ('A' for Active; 'I' for Inactive)
REMARK    1  A    between atoms: C_2  and  O_3
REMARK    2  A    between atoms: O_3  and  N_4
REMARK    3  A    between atoms: C_5  and  C_6
REMARK    4  A    between atoms: C_5  and  C_34
REMARK    5  A    between atoms: N_8  and  CA_9
REMARK    6  A    between atoms: CA_13  and  C_14
REMARK    7  A    between atoms: C_17  and  S_18
REMARK    8  A    between atoms: S_18  and  C_19
REMARK    9  A    between atoms: C_21  and  C_22
REMARK   10  A    between atoms: N_38  and  P_39
REMARK                            x       y       z     vdW  Elec       q    Type
REMARK                         _______ _______ _______ _____ _____    ______ ____
ROOT
ATOM      1  CA  UNL     1      -8.186  19.160  66.972  0.00  0.00    +0.201 C 
ATOM      2  C   UNL     1      -8.082  17.473  66.899  0.00  0.00    +0.157 C 
ATOM      3  N   UNL     1      -9.254  17.550  67.864  0.00  0.00    -0.241 N 
ATOM      4  CA  UNL     1      -9.624  16.244  68.317  0.00  0.00    +0.138 C 
ATOM      5  C   UNL     1      -8.784  15.207  68.285  0.00  0.00    +0.040 C 
ATOM      6  C   UNL     1      -7.373  15.356  68.765  0.00  0.00    +0.093 C 
ATOM      7  S   UNL     1      -6.855  17.031  68.291  0.00  0.00    -0.113 S 
ATOM      8  C   UNL     1      -8.924  18.860  68.386  0.00  0.00    +0.253 C 
ATOM      9  O   UNL     1      -9.879  19.673  68.645  0.00  0.00    -0.273 OA
ENDROOT
BRANCH   4  10
ATOM     10  C   UNL     1     -10.967  16.144  68.908  0.00  0.00    +0.401 C 
ATOM     11  OXT UNL     1     -11.979  16.715  68.127  0.00  0.00    -0.239 OA
ATOM     12  O   UNL     1     -11.046  16.443  70.140  0.00  0.00    -0.239 OA
ENDBRANCH   4  10
BRANCH   1  14
ATOM     13  C   UNL     1      -6.133  20.499  66.912  0.00  0.00    +0.289 C 
ATOM     14  N   UNL     1      -6.730  19.405  67.566  0.00  0.00    -0.190 NA
ATOM     15  O   UNL     1      -6.658  21.583  67.237  0.00  0.00    -0.266 OA
BRANCH  13  17
ATOM     16  N   UNL     1      -4.745  20.255  65.053  0.00  0.00    -0.075 NA
ATOM     17  C   UNL     1      -4.797  20.513  66.328  0.00  0.00    +0.210 C 
BRANCH  17  18
ATOM     18  C   UNL     1      -3.723  20.056  67.228  0.00  0.00    +0.197 A 
ATOM     19  N   UNL     1      -3.168  20.943  68.093  0.00  0.00    -0.200 NA
ATOM     20  C   UNL     1      -2.697  20.309  69.189  0.00  0.00    +0.207 A 
ATOM     21  N   UNL     1      -2.671  20.755  70.550  0.00  0.00    -0.114 NA
ATOM     22  S   UNL     1      -2.046  18.915  68.430  0.00  0.00    +0.051 S 
ATOM     23  N   UNL     1      -2.825  19.080  66.930  0.00  0.00    -0.185 NA
BRANCH  21  24
ATOM     24  P   UNL     1      -4.201  20.918  71.407  0.00  0.00    +0.502 P 
ATOM     25  O   UNL     1      -5.385  21.180  70.217  0.00  0.00    -0.121 OA
ATOM     26  O   UNL     1      -4.194  22.231  72.446  0.00  0.00    -0.121 OA
ATOM     27  O   UNL     1      -4.528  19.621  72.092  0.00  0.00    -0.230 OA
ENDBRANCH  21  24
ENDBRANCH  17  18
BRANCH  16  28
ATOM     28  O   UNL     1      -5.823  19.853  64.310  0.00  0.00    -0.377 OA
BRANCH  28  30
ATOM     29  C   UNL     1      -5.168  21.268  62.607  0.00  0.00    +0.054 C 
ATOM     30  C   UNL     1      -6.139  20.526  63.093  0.00  0.00    +0.239 C 
ENDBRANCH  28  30
ENDBRANCH  16  28
ENDBRANCH  13  17
ENDBRANCH   1  14
BRANCH   5  31
ATOM     31  S   UNL     1      -9.541  13.589  68.468  0.00  0.00    -0.064 S 
BRANCH  31  32
ATOM     32  C   UNL     1     -10.274  13.222  66.878  0.00  0.00    +0.140 A 
ATOM     33  S   UNL     1     -11.660  13.817  66.070  0.00  0.00    -0.059 S 
ATOM     34  C   UNL     1     -11.465  12.910  64.622  0.00  0.00    +0.056 A 
ATOM     35  C   UNL     1     -10.527  11.973  65.037  0.00  0.00    +0.089 A 
ATOM     36  N   UNL     1      -9.727  12.439  65.978  0.00  0.00    -0.232 NA
BRANCH  35  37
ATOM     37  C   UNL     1     -10.081  10.895  64.133  0.00  0.00    +0.030 A 
ATOM     38  C   UNL     1      -9.374   9.833  64.689  0.00  0.00    +0.077 A 
ATOM     39  C   UNL     1      -8.459   9.090  63.950  0.00  0.00    +0.290 A 
ATOM     40  N   UNL     1      -7.797   9.759  62.974  0.00  0.00    -0.153 N 
ATOM     41  C   UNL     1      -6.514   9.333  62.465  0.00  0.00    +0.408 C 
ATOM     42  C   UNL     1      -8.554  10.638  62.270  0.00  0.00    +0.290 A 
ATOM     43  C   UNL     1      -9.712  11.176  62.821  0.00  0.00    +0.077 A 
ENDBRANCH  35  37
ENDBRANCH  31  32
ENDBRANCH   5  31
TORSDOF 10
ENDMDL
MODEL 9
REMARK VINA RESULT:      -7.7      3.799      9.553
REMARK  Name = 
REMARK  10 active torsions:
REMARK  status: ('A' for Active; 'I' for Inactive)
REMARK    1  A    between atoms: C_2  and  O_3
REMARK    2  A    between atoms: O_3  and  N_4
REMARK    3  A    between atoms: C_5  and  C_6
REMARK    4  A    between atoms: C_5  and  C_34
REMARK    5  A    between atoms: N_8  and  CA_9
REMARK    6  A    between atoms: CA_13  and  C_14
REMARK    7  A    between atoms: C_17  and  S_18
REMARK    8  A    between atoms: S_18  and  C_19
REMARK    9  A    between atoms: C_21  and  C_22
REMARK   10  A    between atoms: N_38  and  P_39
REMARK                            x       y       z     vdW  Elec       q    Type
REMARK                         _______ _______ _______ _____ _____    ______ ____
ROOT
ATOM      1  CA  UNL     1     -11.415  15.016  66.501  0.00  0.00    +0.201 C 
ATOM      2  C   UNL     1     -10.692  15.845  67.786  0.00  0.00    +0.157 C 
ATOM      3  N   UNL     1     -10.404  16.877  66.708  0.00  0.00    -0.241 N 
ATOM      4  CA  UNL     1      -9.609  17.947  67.230  0.00  0.00    +0.138 C 
ATOM      5  C   UNL     1      -8.851  17.813  68.321  0.00  0.00    +0.040 C 
ATOM      6  C   UNL     1      -7.976  16.610  68.496  0.00  0.00    +0.093 C 
ATOM      7  S   UNL     1      -8.893  15.213  67.783  0.00  0.00    -0.113 S 
ATOM      8  C   UNL     1     -10.428  15.941  65.603  0.00  0.00    +0.253 C 
ATOM      9  O   UNL     1     -10.948  16.316  64.496  0.00  0.00    -0.273 OA
ENDROOT
BRANCH   4  10
ATOM     10  C   UNL     1      -9.612  19.179  66.427  0.00  0.00    +0.401 C 
ATOM     11  OXT UNL     1     -10.876  19.545  65.947  0.00  0.00    -0.239 OA
ATOM     12  O   UNL     1      -8.693  19.265  65.555  0.00  0.00    -0.239 OA
ENDBRANCH   4  10
BRANCH   1  14
ATOM     13  C   UNL     1     -11.154  12.678  67.190  0.00  0.00    +0.289 C 
ATOM     14  N   UNL     1     -10.473  13.735  66.559  0.00  0.00    -0.190 NA
ATOM     15  O   UNL     1     -12.064  12.213  66.476  0.00  0.00    -0.266 OA
BRANCH  13  17
ATOM     16  N   UNL     1      -9.889  10.858  67.918  0.00  0.00    -0.075 NA
ATOM     17  C   UNL     1     -10.632  11.862  68.281  0.00  0.00    +0.210 C 
BRANCH  17  18
ATOM     18  C   UNL     1     -11.522  11.751  69.451  0.00  0.00    +0.197 A 
ATOM     19  N   UNL     1     -12.311  10.652  69.575  0.00  0.00    -0.200 NA
ATOM     20  C   UNL     1     -12.571  10.397  70.875  0.00  0.00    +0.207 A 
ATOM     21  N   UNL     1     -12.725   9.136  71.536  0.00  0.00    -0.114 NA
ATOM     22  S   UNL     1     -12.786  12.009  71.424  0.00  0.00    +0.051 S 
ATOM     23  N   UNL     1     -12.094  12.803  70.092  0.00  0.00    -0.185 NA
BRANCH  21  24
ATOM     24  P   UNL     1     -11.308   8.103  71.706  0.00  0.00    +0.502 P 
ATOM     25  O   UNL     1      -9.957   9.114  71.504  0.00  0.00    -0.121 OA
ATOM     26  O   UNL     1     -11.262   6.914  70.529  0.00  0.00    -0.121 OA
ATOM     27  O   UNL     1     -11.256   7.556  73.105  0.00  0.00    -0.230 OA
ENDBRANCH  21  24
ENDBRANCH  17  18
BRANCH  16  28
ATOM     28  O   UNL     1      -9.706  10.473  66.616  0.00  0.00    -0.377 OA
BRANCH  28  30
ATOM     29  C   UNL     1     -10.447   8.355  67.160  0.00  0.00    +0.054 C 
ATOM     30  C   UNL     1     -10.145   9.186  66.187  0.00  0.00    +0.239 C 
ENDBRANCH  28  30
ENDBRANCH  16  28
ENDBRANCH  13  17
ENDBRANCH   1  14
BRANCH   5  31
ATOM     31  S   UNL     1      -8.289  19.346  69.067  0.00  0.00    -0.064 S 
BRANCH  31  32
ATOM     32  C   UNL     1      -6.598  19.551  68.518  0.00  0.00    +0.140 A 
ATOM     33  S   UNL     1      -5.158  19.996  69.327  0.00  0.00    -0.059 S 
ATOM     34  C   UNL     1      -4.102  19.844  67.977  0.00  0.00    +0.056 A 
ATOM     35  C   UNL     1      -5.028  19.792  66.941  0.00  0.00    +0.089 A 
ATOM     36  N   UNL     1      -6.174  19.255  67.312  0.00  0.00    -0.232 NA
BRANCH  35  37
ATOM     37  C   UNL     1      -4.586  19.732  65.534  0.00  0.00    +0.030 A 
ATOM     38  C   UNL     1      -4.125  20.907  64.948  0.00  0.00    +0.077 A 
ATOM     39  C   UNL     1      -4.211  21.130  63.578  0.00  0.00    +0.290 A 
ATOM     40  N   UNL     1      -5.269  20.563  62.946  0.00  0.00    -0.153 N 
ATOM     41  C   UNL     1      -5.797  21.065  61.699  0.00  0.00    +0.408 C 
ATOM     42  C   UNL     1      -5.576  19.310  63.363  0.00  0.00    +0.290 A 
ATOM     43  C   UNL     1      -5.206  18.873  64.631  0.00  0.00    +0.077 A 
ENDBRANCH  35  37
ENDBRANCH  31  32
ENDBRANCH   5  31
TORSDOF 10
ENDMDL
