MODEL 1
REMARK VINA RESULT:      -6.1      0.000      0.000
REMARK  Name = 
REMARK  5 active torsions:
REMARK  status: ('A' for Active; 'I' for Inactive)
REMARK    1  A    between atoms: C_2  and  C_4
REMARK    2  A    between atoms: C_4  and  C_5
REMARK    3  A    between atoms: C_5  and  C_6
REMARK    4  A    between atoms: C_6  and  C_7
REMARK    5  A    between atoms: C_7  and  C_8
REMARK                            x       y       z     vdW  Elec       q    Type
REMARK                         _______ _______ _______ _____ _____    ______ ____
ROOT
ATOM      1  C   UNL     1     -11.584  13.084  67.336  0.00  0.00    +0.070 C 
ATOM      2  C   UNL     1     -12.411  14.167  66.363  0.00  0.00    +0.130 C 
ATOM      3  C   UNL     1     -12.296  13.142  64.979  0.00  0.00    +0.139 C 
ATOM      4  N   UNL     1     -12.493  14.429  64.085  0.00  0.00    -0.219 NA
ATOM      5  C   UNL     1     -11.739  15.321  64.570  0.00  0.00    +0.350 C 
ATOM      6  O   UNL     1     -11.581  16.553  63.917  0.00  0.00    -0.246 OA
ATOM      7  C   UNL     1     -10.664  13.275  64.827  0.00  0.00    +0.084 C 
ATOM      8  N   UNL     1     -11.190  15.013  65.854  0.00  0.00    -0.184 NA
ATOM      9  S   UNL     1      -9.987  13.001  66.369  0.00  0.00    -0.137 S 
ENDROOT
BRANCH   1  10
ATOM     10  C   UNL     1     -11.105  14.197  68.343  0.00  0.00    +0.013 C 
BRANCH  10  11
ATOM     11  C   UNL     1     -12.045  14.081  69.512  0.00  0.00    +0.002 C 
BRANCH  11  12
ATOM     12  C   UNL     1     -12.442  15.417  70.063  0.00  0.00    +0.012 C 
BRANCH  12  13
ATOM     13  C   UNL     1     -12.659  15.422  71.548  0.00  0.00    +0.114 C 
BRANCH  13  15
ATOM     14  O   UNL     1     -14.708  15.547  71.543  0.00  0.00    -0.246 OA
ATOM     15  C   UNL     1     -14.076  15.073  71.815  0.00  0.00    +0.365 C 
ATOM     16  O   UNL     1     -14.358  13.840  72.400  0.00  0.00    -0.246 OA
ENDBRANCH  13  15
ENDBRANCH  12  13
ENDBRANCH  11  12
ENDBRANCH  10  11
ENDBRANCH   1  10
TORSDOF 5
ENDMDL
MODEL 2
REMARK VINA RESULT:      -5.7      1.313      1.513
REMARK  Name = 
REMARK  5 active torsions:
REMARK  status: ('A' for Active; 'I' for Inactive)
REMARK    1  A    between atoms: C_2  and  C_4
REMARK    2  A    between atoms: C_4  and  C_5
REMARK    3  A    between atoms: C_5  and  C_6
REMARK    4  A    between atoms: C_6  and  C_7
REMARK    5  A    between atoms: C_7  and  C_8
REMARK                            x       y       z     vdW  Elec       q    Type
REMARK                         _______ _______ _______ _____ _____    ______ ____
ROOT
ATOM      1  C   UNL     1     -10.892  13.896  68.568  0.00  0.00    +0.070 C 
ATOM      2  C   UNL     1     -12.158  13.821  67.476  0.00  0.00    +0.130 C 
ATOM      3  C   UNL     1     -11.589  12.344  66.788  0.00  0.00    +0.139 C 
ATOM      4  N   UNL     1     -12.402  12.709  65.484  0.00  0.00    -0.219 NA
ATOM      5  C   UNL     1     -12.164  13.927  65.243  0.00  0.00    +0.350 C 
ATOM      6  O   UNL     1     -12.634  14.526  64.064  0.00  0.00    -0.246 OA
ATOM      7  C   UNL     1     -10.228  12.995  66.134  0.00  0.00    +0.084 C 
ATOM      8  N   UNL     1     -11.509  14.634  66.299  0.00  0.00    -0.184 NA
ATOM      9  S   UNL     1      -9.473  13.920  67.352  0.00  0.00    -0.137 S 
ENDROOT
BRANCH   1  10
ATOM     10  C   UNL     1     -10.991  15.459  68.733  0.00  0.00    +0.013 C 
BRANCH  10  11
ATOM     11  C   UNL     1     -12.057  15.665  69.773  0.00  0.00    +0.002 C 
BRANCH  11  12
ATOM     12  C   UNL     1     -11.632  15.194  71.131  0.00  0.00    +0.012 C 
BRANCH  12  13
ATOM     13  C   UNL     1     -12.164  16.029  72.258  0.00  0.00    +0.114 C 
BRANCH  13  15
ATOM     14  O   UNL     1     -14.190  15.997  72.587  0.00  0.00    -0.246 OA
ATOM     15  C   UNL     1     -13.508  15.517  72.625  0.00  0.00    +0.365 C 
ATOM     16  O   UNL     1     -13.652  14.157  72.888  0.00  0.00    -0.246 OA
ENDBRANCH  13  15
ENDBRANCH  12  13
ENDBRANCH  11  12
ENDBRANCH  10  11
ENDBRANCH   1  10
TORSDOF 5
ENDMDL
MODEL 3
REMARK VINA RESULT:      -5.6      1.402      1.623
REMARK  Name = 
REMARK  5 active torsions:
REMARK  status: ('A' for Active; 'I' for Inactive)
REMARK    1  A    between atoms: C_2  and  C_4
REMARK    2  A    between atoms: C_4  and  C_5
REMARK    3  A    between atoms: C_5  and  C_6
REMARK    4  A    between atoms: C_6  and  C_7
REMARK    5  A    between atoms: C_7  and  C_8
REMARK                            x       y       z     vdW  Elec       q    Type
REMARK                         _______ _______ _______ _____ _____    ______ ____
ROOT
ATOM      1  C   UNL     1     -10.839  14.067  68.355  0.00  0.00    +0.070 C 
ATOM      2  C   UNL     1     -11.526  14.396  66.864  0.00  0.00    +0.130 C 
ATOM      3  C   UNL     1     -10.187  13.726  66.005  0.00  0.00    +0.139 C 
ATOM      4  N   UNL     1     -10.614  14.613  64.769  0.00  0.00    -0.219 NA
ATOM      5  C   UNL     1     -10.863  15.766  65.225  0.00  0.00    +0.350 C 
ATOM      6  O   UNL     1     -11.143  16.831  64.356  0.00  0.00    -0.246 OA
ATOM      7  C   UNL     1      -9.112  14.879  66.474  0.00  0.00    +0.084 C 
ATOM      8  N   UNL     1     -10.955  15.843  66.650  0.00  0.00    -0.184 NA
ATOM      9  S   UNL     1      -9.266  15.058  68.164  0.00  0.00    -0.137 S 
ENDROOT
BRANCH   1  10
ATOM     10  C   UNL     1     -11.652  15.197  69.093  0.00  0.00    +0.013 C 
BRANCH  10  11
ATOM     11  C   UNL     1     -11.276  15.051  70.541  0.00  0.00    +0.002 C 
BRANCH  11  12
ATOM     12  C   UNL     1     -11.829  16.155  71.392  0.00  0.00    +0.012 C 
BRANCH  12  13
ATOM     13  C   UNL     1     -12.413  15.687  72.692  0.00  0.00    +0.114 C 
BRANCH  13  15
ATOM     14  O   UNL     1     -14.388  15.799  72.144  0.00  0.00    -0.246 OA
ATOM     15  C   UNL     1     -13.818  15.272  72.452  0.00  0.00    +0.365 C 
ATOM     16  O   UNL     1     -14.147  13.926  72.597  0.00  0.00    -0.246 OA
ENDBRANCH  13  15
ENDBRANCH  12  13
ENDBRANCH  11  12
ENDBRANCH  10  11
ENDBRANCH   1  10
TORSDOF 5
ENDMDL
MODEL 4
REMARK VINA RESULT:      -5.4      2.183      2.674
REMARK  Name = 
REMARK  5 active torsions:
REMARK  status: ('A' for Active; 'I' for Inactive)
REMARK    1  A    between atoms: C_2  and  C_4
REMARK    2  A    between atoms: C_4  and  C_5
REMARK    3  A    between atoms: C_5  and  C_6
REMARK    4  A    between atoms: C_6  and  C_7
REMARK    5  A    between atoms: C_7  and  C_8
REMARK                            x       y       z     vdW  Elec       q    Type
REMARK                         _______ _______ _______ _____ _____    ______ ____
ROOT
ATOM      1  C   UNL     1     -11.511  12.423  66.760  0.00  0.00    +0.070 C 
ATOM      2  C   UNL     1     -12.266  13.783  66.141  0.00  0.00    +0.130 C 
ATOM      3  C   UNL     1     -12.363  13.110  64.555  0.00  0.00    +0.139 C 
ATOM      4  N   UNL     1     -12.466  14.586  64.001  0.00  0.00    -0.219 NA
ATOM      5  C   UNL     1     -11.582  15.258  64.606  0.00  0.00    +0.350 C 
ATOM      6  O   UNL     1     -11.323  16.588  64.241  0.00  0.00    -0.246 OA
ATOM      7  C   UNL     1     -10.740  13.113  64.288  0.00  0.00    +0.084 C 
ATOM      8  N   UNL     1     -10.990  14.601  65.730  0.00  0.00    -0.184 NA
ATOM      9  S   UNL     1     -10.001  12.415  65.658  0.00  0.00    -0.137 S 
ENDROOT
BRANCH   1  10
ATOM     10  C   UNL     1     -10.839  13.212  67.948  0.00  0.00    +0.013 C 
BRANCH  10  11
ATOM     11  C   UNL     1     -11.647  12.834  69.159  0.00  0.00    +0.002 C 
BRANCH  11  12
ATOM     12  C   UNL     1     -11.970  11.370  69.199  0.00  0.00    +0.012 C 
BRANCH  12  13
ATOM     13  C   UNL     1     -11.575  10.696  70.480  0.00  0.00    +0.114 C 
BRANCH  13  15
ATOM     14  O   UNL     1     -13.106  11.170  71.762  0.00  0.00    -0.246 OA
ATOM     15  C   UNL     1     -12.788  10.537  71.320  0.00  0.00    +0.365 C 
ATOM     16  O   UNL     1     -13.499   9.343  71.240  0.00  0.00    -0.246 OA
ENDBRANCH  13  15
ENDBRANCH  12  13
ENDBRANCH  11  12
ENDBRANCH  10  11
ENDBRANCH   1  10
TORSDOF 5
ENDMDL
MODEL 5
REMARK VINA RESULT:      -5.4      2.039      2.463
REMARK  Name = 
REMARK  5 active torsions:
REMARK  status: ('A' for Active; 'I' for Inactive)
REMARK    1  A    between atoms: C_2  and  C_4
REMARK    2  A    between atoms: C_4  and  C_5
REMARK    3  A    between atoms: C_5  and  C_6
REMARK    4  A    between atoms: C_6  and  C_7
REMARK    5  A    between atoms: C_7  and  C_8
REMARK                            x       y       z     vdW  Elec       q    Type
REMARK                         _______ _______ _______ _____ _____    ______ ____
ROOT
ATOM      1  C   UNL     1     -11.521  12.489  66.829  0.00  0.00    +0.070 C 
ATOM      2  C   UNL     1     -12.237  13.887  66.250  0.00  0.00    +0.130 C 
ATOM      3  C   UNL     1     -12.464  13.220  64.675  0.00  0.00    +0.139 C 
ATOM      4  N   UNL     1     -12.518  14.699  64.122  0.00  0.00    -0.219 NA
ATOM      5  C   UNL     1     -11.565  15.322  64.672  0.00  0.00    +0.350 C 
ATOM      6  O   UNL     1     -11.256  16.636  64.287  0.00  0.00    -0.246 OA
ATOM      7  C   UNL     1     -10.861  13.134  64.313  0.00  0.00    +0.084 C 
ATOM      8  N   UNL     1     -10.945  14.635  65.762  0.00  0.00    -0.184 NA
ATOM      9  S   UNL     1     -10.082  12.398  65.640  0.00  0.00    -0.137 S 
ENDROOT
BRANCH   1  10
ATOM     10  C   UNL     1     -10.739  13.240  67.972  0.00  0.00    +0.013 C 
BRANCH  10  11
ATOM     11  C   UNL     1     -11.637  13.142  69.174  0.00  0.00    +0.002 C 
BRANCH  11  12
ATOM     12  C   UNL     1     -11.795  14.455  69.882  0.00  0.00    +0.012 C 
BRANCH  12  13
ATOM     13  C   UNL     1     -10.586  15.340  69.796  0.00  0.00    +0.114 C 
BRANCH  13  15
ATOM     14  O   UNL     1     -11.706  16.652  68.683  0.00  0.00    -0.246 OA
ATOM     15  C   UNL     1     -10.941  16.541  68.999  0.00  0.00    +0.365 C 
ATOM     16  O   UNL     1     -10.016  17.579  68.914  0.00  0.00    -0.246 OA
ENDBRANCH  13  15
ENDBRANCH  12  13
ENDBRANCH  11  12
ENDBRANCH  10  11
ENDBRANCH   1  10
TORSDOF 5
ENDMDL
MODEL 6
REMARK VINA RESULT:      -5.3      3.448      4.017
REMARK  Name = 
REMARK  5 active torsions:
REMARK  status: ('A' for Active; 'I' for Inactive)
REMARK    1  A    between atoms: C_2  and  C_4
REMARK    2  A    between atoms: C_4  and  C_5
REMARK    3  A    between atoms: C_5  and  C_6
REMARK    4  A    between atoms: C_6  and  C_7
REMARK    5  A    between atoms: C_7  and  C_8
REMARK                            x       y       z     vdW  Elec       q    Type
REMARK                         _______ _______ _______ _____ _____    ______ ____
ROOT
ATOM      1  C   UNL     1     -10.311  12.213  68.103  0.00  0.00    +0.070 C 
ATOM      2  C   UNL     1     -10.521  11.956  66.462  0.00  0.00    +0.130 C 
ATOM      3  C   UNL     1     -10.282  13.623  66.085  0.00  0.00    +0.139 C 
ATOM      4  N   UNL     1     -11.085  13.372  64.747  0.00  0.00    -0.219 NA
ATOM      5  C   UNL     1     -12.102  12.691  65.063  0.00  0.00    +0.350 C 
ATOM      6  O   UNL     1     -13.097  12.414  64.113  0.00  0.00    -0.246 OA
ATOM      7  C   UNL     1     -11.656  14.145  66.823  0.00  0.00    +0.084 C 
ATOM      8  N   UNL     1     -12.078  12.148  66.386  0.00  0.00    -0.184 NA
ATOM      9  S   UNL     1     -11.697  13.438  68.375  0.00  0.00    -0.137 S 
ENDROOT
BRANCH   1  10
ATOM     10  C   UNL     1     -11.140  10.938  68.513  0.00  0.00    +0.013 C 
BRANCH  10  11
ATOM     11  C   UNL     1     -11.905  11.359  69.738  0.00  0.00    +0.002 C 
BRANCH  11  12
ATOM     12  C   UNL     1     -11.915  10.301  70.800  0.00  0.00    +0.012 C 
BRANCH  12  13
ATOM     13  C   UNL     1     -13.087  10.388  71.733  0.00  0.00    +0.114 C 
BRANCH  13  15
ATOM     14  O   UNL     1     -12.749   8.492  72.443  0.00  0.00    -0.246 OA
ATOM     15  C   UNL     1     -13.362   9.031  72.268  0.00  0.00    +0.365 C 
ATOM     16  O   UNL     1     -14.668   8.713  72.632  0.00  0.00    -0.246 OA
ENDBRANCH  13  15
ENDBRANCH  12  13
ENDBRANCH  11  12
ENDBRANCH  10  11
ENDBRANCH   1  10
TORSDOF 5
ENDMDL
MODEL 7
REMARK VINA RESULT:      -5.1      7.108      7.745
REMARK  Name = 
REMARK  5 active torsions:
REMARK  status: ('A' for Active; 'I' for Inactive)
REMARK    1  A    between atoms: C_2  and  C_4
REMARK    2  A    between atoms: C_4  and  C_5
REMARK    3  A    between atoms: C_5  and  C_6
REMARK    4  A    between atoms: C_6  and  C_7
REMARK    5  A    between atoms: C_7  and  C_8
REMARK                            x       y       z     vdW  Elec       q    Type
REMARK                         _______ _______ _______ _____ _____    ______ ____
ROOT
ATOM      1  C   UNL     1      -7.827  18.841  67.428  0.00  0.00    +0.070 C 
ATOM      2  C   UNL     1      -8.565  17.427  67.938  0.00  0.00    +0.130 C 
ATOM      3  C   UNL     1      -9.283  17.145  66.395  0.00  0.00    +0.139 C 
ATOM      4  N   UNL     1     -10.365  16.257  67.128  0.00  0.00    -0.219 NA
ATOM      5  C   UNL     1     -10.730  16.908  68.149  0.00  0.00    +0.350 C 
ATOM      6  O   UNL     1     -11.789  16.448  68.946  0.00  0.00    -0.246 OA
ATOM      7  C   UNL     1     -10.292  18.442  66.456  0.00  0.00    +0.084 C 
ATOM      8  N   UNL     1      -9.912  18.037  68.468  0.00  0.00    -0.184 NA
ATOM      9  S   UNL     1      -9.357  19.790  66.924  0.00  0.00    -0.137 S 
ENDROOT
BRANCH   1  10
ATOM     10  C   UNL     1      -7.737  19.440  68.882  0.00  0.00    +0.013 C 
BRANCH  10  11
ATOM     11  C   UNL     1      -6.380  20.086  68.944  0.00  0.00    +0.002 C 
BRANCH  11  12
ATOM     12  C   UNL     1      -5.631  19.728  70.192  0.00  0.00    +0.012 C 
BRANCH  12  13
ATOM     13  C   UNL     1      -4.364  20.508  70.385  0.00  0.00    +0.114 C 
BRANCH  13  15
ATOM     14  O   UNL     1      -3.895  20.226  72.364  0.00  0.00    -0.246 OA
ATOM     15  C   UNL     1      -4.205  20.792  71.833  0.00  0.00    +0.365 C 
ATOM     16  O   UNL     1      -4.431  22.091  72.284  0.00  0.00    -0.246 OA
ENDBRANCH  13  15
ENDBRANCH  12  13
ENDBRANCH  11  12
ENDBRANCH  10  11
ENDBRANCH   1  10
TORSDOF 5
ENDMDL
MODEL 8
REMARK VINA RESULT:      -5.1      3.837      4.661
REMARK  Name = 
REMARK  5 active torsions:
REMARK  status: ('A' for Active; 'I' for Inactive)
REMARK    1  A    between atoms: C_2  and  C_4
REMARK    2  A    between atoms: C_4  and  C_5
REMARK    3  A    between atoms: C_5  and  C_6
REMARK    4  A    between atoms: C_6  and  C_7
REMARK    5  A    between atoms: C_7  and  C_8
REMARK                            x       y       z     vdW  Elec       q    Type
REMARK                         _______ _______ _______ _____ _____    ______ ____
ROOT
ATOM      1  C   UNL     1     -10.708  15.384  66.465  0.00  0.00    +0.070 C 
ATOM      2  C   UNL     1     -10.918  14.874  64.885  0.00  0.00    +0.130 C 
ATOM      3  C   UNL     1     -12.511  14.288  65.196  0.00  0.00    +0.139 C 
ATOM      4  N   UNL     1     -12.341  13.339  63.944  0.00  0.00    -0.219 NA
ATOM      5  C   UNL     1     -11.192  12.821  64.041  0.00  0.00    +0.350 C 
ATOM      6  O   UNL     1     -10.784  11.819  63.147  0.00  0.00    -0.246 OA
ATOM      7  C   UNL     1     -12.034  13.071  66.194  0.00  0.00    +0.084 C 
ATOM      8  N   UNL     1     -10.342  13.419  65.023  0.00  0.00    -0.184 NA
ATOM      9  S   UNL     1     -10.946  13.741  67.324  0.00  0.00    -0.137 S 
ENDROOT
BRANCH   1  10
ATOM     10  C   UNL     1      -9.136  15.302  66.392  0.00  0.00    +0.013 C 
BRANCH  10  11
ATOM     11  C   UNL     1      -8.685  16.733  66.298  0.00  0.00    +0.002 C 
BRANCH  11  12
ATOM     12  C   UNL     1      -8.869  17.479  67.585  0.00  0.00    +0.012 C 
BRANCH  12  13
ATOM     13  C   UNL     1      -9.048  18.958  67.411  0.00  0.00    +0.114 C 
BRANCH  13  15
ATOM     14  O   UNL     1     -11.092  19.126  67.505  0.00  0.00    -0.246 OA
ATOM     15  C   UNL     1     -10.446  19.213  66.983  0.00  0.00    +0.365 C 
ATOM     16  O   UNL     1     -10.664  19.765  65.722  0.00  0.00    -0.246 OA
ENDBRANCH  13  15
ENDBRANCH  12  13
ENDBRANCH  11  12
ENDBRANCH  10  11
ENDBRANCH   1  10
TORSDOF 5
ENDMDL
MODEL 9
REMARK VINA RESULT:      -5.1      2.966      3.329
REMARK  Name = 
REMARK  5 active torsions:
REMARK  status: ('A' for Active; 'I' for Inactive)
REMARK    1  A    between atoms: C_2  and  C_4
REMARK    2  A    between atoms: C_4  and  C_5
REMARK    3  A    between atoms: C_5  and  C_6
REMARK    4  A    between atoms: C_6  and  C_7
REMARK    5  A    between atoms: C_7  and  C_8
REMARK                            x       y       z     vdW  Elec       q    Type
REMARK                         _______ _______ _______ _____ _____    ______ ____
ROOT
ATOM      1  C   UNL     1     -10.538  15.256  67.995  0.00  0.00    +0.070 C 
ATOM      2  C   UNL     1     -10.875  16.500  66.928  0.00  0.00    +0.130 C 
ATOM      3  C   UNL     1      -9.232  16.622  66.417  0.00  0.00    +0.139 C 
ATOM      4  N   UNL     1      -9.543  18.105  65.972  0.00  0.00    -0.219 NA
ATOM      5  C   UNL     1     -10.200  18.632  66.916  0.00  0.00    +0.350 C 
ATOM      6  O   UNL     1     -10.517  19.998  66.888  0.00  0.00    -0.246 OA
ATOM      7  C   UNL     1      -8.662  17.165  67.861  0.00  0.00    +0.084 C 
ATOM      8  N   UNL     1     -10.675  17.714  67.905  0.00  0.00    -0.184 NA
ATOM      9  S   UNL     1      -9.290  16.139  69.071  0.00  0.00    -0.137 S 
ENDROOT
BRANCH   1  10
ATOM     10  C   UNL     1     -11.784  15.562  68.909  0.00  0.00    +0.013 C 
BRANCH  10  11
ATOM     11  C   UNL     1     -12.048  14.273  69.636  0.00  0.00    +0.002 C 
BRANCH  11  12
ATOM     12  C   UNL     1     -12.060  14.447  71.125  0.00  0.00    +0.012 C 
BRANCH  12  13
ATOM     13  C   UNL     1     -12.358  15.848  71.571  0.00  0.00    +0.114 C 
BRANCH  13  15
ATOM     14  O   UNL     1     -14.119  15.975  72.619  0.00  0.00    -0.246 OA
ATOM     15  C   UNL     1     -13.310  15.785  72.708  0.00  0.00    +0.365 C 
ATOM     16  O   UNL     1     -12.871  15.244  73.913  0.00  0.00    -0.246 OA
ENDBRANCH  13  15
ENDBRANCH  12  13
ENDBRANCH  11  12
ENDBRANCH  10  11
ENDBRANCH   1  10
TORSDOF 5
ENDMDL
