MODEL 1
REMARK VINA RESULT:      -6.1      0.000      0.000
REMARK  Name = 
REMARK  4 active torsions:
REMARK  status: ('A' for Active; 'I' for Inactive)
REMARK    1  A    between atoms: C_2  and  C_3
REMARK    2  A    between atoms: C_3  and  N_4
REMARK    3  A    between atoms: C_9  and  C_10
REMARK    4  A    between atoms: N_12  and  C_13
REMARK                            x       y       z     vdW  Elec       q    Type
REMARK                         _______ _______ _______ _____ _____    ______ ____
ROOT
ATOM      1  C   UNL     1     -11.473  12.831  67.355  0.00  0.00    +0.260 C 
ATOM      2  N   UNL     1     -11.052  12.796  68.698  0.00  0.00    -0.179 NA
ATOM      3  O   UNL     1     -12.200  11.860  66.986  0.00  0.00    -0.272 OA
ENDROOT
BRANCH   2   4
ATOM      4  C   UNL     1     -11.656  12.051  69.752  0.00  0.00    +0.065 A 
ATOM      5  C   UNL     1     -12.451  12.737  70.664  0.00  0.00    -0.007 A 
ATOM      6  C   UNL     1     -12.646  14.194  70.451  0.00  0.00    +0.032 C 
ATOM      7  C   UNL     1     -13.005  12.114  71.774  0.00  0.00    -0.003 A 
ATOM      8  C   UNL     1     -13.068  10.747  71.739  0.00  0.00    -0.001 A 
ATOM      9  C   UNL     1     -12.297  10.038  70.827  0.00  0.00    -0.003 A 
ATOM     10  C   UNL     1     -11.490  10.694  69.908  0.00  0.00    -0.007 A 
ATOM     11  C   UNL     1     -10.180  10.136  69.474  0.00  0.00    +0.032 C 
ENDBRANCH   2   4
BRANCH   1  13
ATOM     12  N   UNL     1     -10.783  14.913  66.351  0.00  0.00    -0.267 NA
ATOM     13  C   UNL     1     -12.143  14.270  66.897  0.00  0.00    +0.137 C 
ATOM     14  C   UNL     1     -12.563  13.729  65.369  0.00  0.00    +0.025 C 
ATOM     15  C   UNL     1     -11.544  12.781  64.921  0.00  0.00    +0.003 C 
ATOM     16  C   UNL     1     -10.150  13.304  64.770  0.00  0.00    +0.017 C 
ATOM     17  C   UNL     1      -9.839  13.923  66.130  0.00  0.00    +0.072 C 
BRANCH  12  18
ATOM     18  C   UNL     1     -10.469  15.940  67.306  0.00  0.00    +0.072 C 
BRANCH  18  20
ATOM     19  C   UNL     1     -10.535  18.406  67.314  0.00  0.00    +0.001 C 
ATOM     20  C   UNL     1     -10.206  17.184  66.524  0.00  0.00    +0.017 C 
ENDBRANCH  18  20
ENDBRANCH  12  18
ENDBRANCH   1  13
TORSDOF 4
ENDMDL
MODEL 2
REMARK VINA RESULT:      -5.8      2.215      6.249
REMARK  Name = 
REMARK  4 active torsions:
REMARK  status: ('A' for Active; 'I' for Inactive)
REMARK    1  A    between atoms: C_2  and  C_3
REMARK    2  A    between atoms: C_3  and  N_4
REMARK    3  A    between atoms: C_9  and  C_10
REMARK    4  A    between atoms: N_12  and  C_13
REMARK                            x       y       z     vdW  Elec       q    Type
REMARK                         _______ _______ _______ _____ _____    ______ ____
ROOT
ATOM      1  C   UNL     1     -10.284  15.757  66.383  0.00  0.00    +0.260 C 
ATOM      2  N   UNL     1     -10.134  16.528  67.551  0.00  0.00    -0.179 NA
ATOM      3  O   UNL     1      -9.889  16.308  65.311  0.00  0.00    -0.272 OA
ENDROOT
BRANCH   2   4
ATOM      4  C   UNL     1      -9.256  17.637  67.723  0.00  0.00    +0.065 A 
ATOM      5  C   UNL     1      -8.090  17.437  68.454  0.00  0.00    -0.007 A 
ATOM      6  C   UNL     1      -7.823  16.070  68.970  0.00  0.00    +0.032 C 
ATOM      7  C   UNL     1      -7.219  18.477  68.752  0.00  0.00    -0.003 A 
ATOM      8  C   UNL     1      -7.338  19.610  67.991  0.00  0.00    -0.001 A 
ATOM      9  C   UNL     1      -8.485  19.825  67.239  0.00  0.00    -0.003 A 
ATOM     10  C   UNL     1      -9.506  18.885  67.204  0.00  0.00    -0.007 A 
ATOM     11  C   UNL     1     -10.937  19.284  67.105  0.00  0.00    +0.032 C 
ENDBRANCH   2   4
BRANCH   1  13
ATOM     12  N   UNL     1     -10.966  13.607  67.236  0.00  0.00    -0.267 NA
ATOM     13  C   UNL     1      -9.682  14.224  66.507  0.00  0.00    +0.137 C 
ATOM     14  C   UNL     1     -10.244  13.749  65.002  0.00  0.00    +0.025 C 
ATOM     15  C   UNL     1     -11.512  14.433  64.749  0.00  0.00    +0.003 C 
ATOM     16  C   UNL     1     -12.640  14.138  65.686  0.00  0.00    +0.017 C 
ATOM     17  C   UNL     1     -12.061  14.439  67.066  0.00  0.00    +0.072 C 
BRANCH  12  18
ATOM     18  C   UNL     1     -10.520  13.349  68.578  0.00  0.00    +0.072 C 
BRANCH  18  20
ATOM     19  C   UNL     1     -12.062  12.386  70.246  0.00  0.00    +0.001 C 
ATOM     20  C   UNL     1     -11.687  13.606  69.473  0.00  0.00    +0.017 C 
ENDBRANCH  18  20
ENDBRANCH  12  18
ENDBRANCH   1  13
TORSDOF 4
ENDMDL
MODEL 3
REMARK VINA RESULT:      -5.7      1.665      2.084
REMARK  Name = 
REMARK  4 active torsions:
REMARK  status: ('A' for Active; 'I' for Inactive)
REMARK    1  A    between atoms: C_2  and  C_3
REMARK    2  A    between atoms: C_3  and  N_4
REMARK    3  A    between atoms: C_9  and  C_10
REMARK    4  A    between atoms: N_12  and  C_13
REMARK                            x       y       z     vdW  Elec       q    Type
REMARK                         _______ _______ _______ _____ _____    ______ ____
ROOT
ATOM      1  C   UNL     1     -11.321  12.234  68.163  0.00  0.00    +0.260 C 
ATOM      2  N   UNL     1     -10.862  11.759  69.405  0.00  0.00    -0.179 NA
ATOM      3  O   UNL     1     -12.056  11.433  67.510  0.00  0.00    -0.272 OA
ENDROOT
BRANCH   2   4
ATOM      4  C   UNL     1     -11.434  10.697  70.166  0.00  0.00    +0.065 A 
ATOM      5  C   UNL     1     -12.436  11.014  71.077  0.00  0.00    -0.007 A 
ATOM      6  C   UNL     1     -12.867  12.433  71.164  0.00  0.00    +0.032 C 
ATOM      7  C   UNL     1     -12.987  10.064  71.926  0.00  0.00    -0.003 A 
ATOM      8  C   UNL     1     -12.797   8.752  71.580  0.00  0.00    -0.001 A 
ATOM      9  C   UNL     1     -11.814   8.411  70.660  0.00  0.00    -0.003 A 
ATOM     10  C   UNL     1     -11.043   9.385  70.041  0.00  0.00    -0.007 A 
ATOM     11  C   UNL     1      -9.613   9.152  69.696  0.00  0.00    +0.032 C 
ENDBRANCH   2   4
BRANCH   1  13
ATOM     12  N   UNL     1     -10.626  14.542  68.239  0.00  0.00    -0.267 NA
ATOM     13  C   UNL     1     -12.008  13.735  68.228  0.00  0.00    +0.137 C 
ATOM     14  C   UNL     1     -12.142  13.882  66.565  0.00  0.00    +0.025 C 
ATOM     15  C   UNL     1     -11.001  13.203  65.951  0.00  0.00    +0.003 C 
ATOM     16  C   UNL     1      -9.641  13.737  66.272  0.00  0.00    +0.017 C 
ATOM     17  C   UNL     1      -9.593  13.732  67.797  0.00  0.00    +0.072 C 
BRANCH  12  18
ATOM     18  C   UNL     1     -10.540  15.077  69.571  0.00  0.00    +0.072 C 
BRANCH  18  20
ATOM     19  C   UNL     1     -12.006  16.019  71.316  0.00  0.00    +0.001 C 
ATOM     20  C   UNL     1     -11.862  15.706  69.865  0.00  0.00    +0.017 C 
ENDBRANCH  18  20
ENDBRANCH  12  18
ENDBRANCH   1  13
TORSDOF 4
ENDMDL
MODEL 4
REMARK VINA RESULT:      -5.7      2.363      5.756
REMARK  Name = 
REMARK  4 active torsions:
REMARK  status: ('A' for Active; 'I' for Inactive)
REMARK    1  A    between atoms: C_2  and  C_3
REMARK    2  A    between atoms: C_3  and  N_4
REMARK    3  A    between atoms: C_9  and  C_10
REMARK    4  A    between atoms: N_12  and  C_13
REMARK                            x       y       z     vdW  Elec       q    Type
REMARK                         _______ _______ _______ _____ _____    ______ ____
ROOT
ATOM      1  C   UNL     1     -10.330  14.318  67.634  0.00  0.00    +0.260 C 
ATOM      2  N   UNL     1      -9.609  15.309  66.942  0.00  0.00    -0.179 NA
ATOM      3  O   UNL     1     -10.805  14.672  68.756  0.00  0.00    -0.272 OA
ENDROOT
BRANCH   2   4
ATOM      4  C   UNL     1      -9.695  16.717  67.153  0.00  0.00    +0.065 A 
ATOM      5  C   UNL     1     -10.354  17.480  66.195  0.00  0.00    -0.007 A 
ATOM      6  C   UNL     1     -10.957  16.768  65.039  0.00  0.00    +0.032 C 
ATOM      7  C   UNL     1     -10.409  18.866  66.266  0.00  0.00    -0.003 A 
ATOM      8  C   UNL     1     -10.136  19.425  67.486  0.00  0.00    -0.001 A 
ATOM      9  C   UNL     1      -9.494  18.680  68.466  0.00  0.00    -0.003 A 
ATOM     10  C   UNL     1      -9.160  17.350  68.250  0.00  0.00    -0.007 A 
ATOM     11  C   UNL     1      -7.923  16.748  68.821  0.00  0.00    +0.032 C 
ENDBRANCH   2   4
BRANCH   1  13
ATOM     12  N   UNL     1     -10.467  12.625  65.922  0.00  0.00    -0.267 NA
ATOM     13  C   UNL     1     -11.484  13.566  66.723  0.00  0.00    +0.137 C 
ATOM     14  C   UNL     1     -11.779  12.372  67.859  0.00  0.00    +0.025 C 
ATOM     15  C   UNL     1     -10.522  12.066  68.540  0.00  0.00    +0.003 C 
ATOM     16  C   UNL     1      -9.409  11.525  67.700  0.00  0.00    +0.017 C 
ATOM     17  C   UNL     1      -9.253  12.556  66.586  0.00  0.00    +0.072 C 
BRANCH  12  18
ATOM     18  C   UNL     1     -10.475  13.152  64.585  0.00  0.00    +0.072 C 
BRANCH  18  20
ATOM     19  C   UNL     1     -12.363  12.053  63.440  0.00  0.00    +0.001 C 
ATOM     20  C   UNL     1     -11.907  13.266  64.178  0.00  0.00    +0.017 C 
ENDBRANCH  18  20
ENDBRANCH  12  18
ENDBRANCH   1  13
TORSDOF 4
ENDMDL
MODEL 5
REMARK VINA RESULT:      -5.6      1.757      3.764
REMARK  Name = 
REMARK  4 active torsions:
REMARK  status: ('A' for Active; 'I' for Inactive)
REMARK    1  A    between atoms: C_2  and  C_3
REMARK    2  A    between atoms: C_3  and  N_4
REMARK    3  A    between atoms: C_9  and  C_10
REMARK    4  A    between atoms: N_12  and  C_13
REMARK                            x       y       z     vdW  Elec       q    Type
REMARK                         _______ _______ _______ _____ _____    ______ ____
ROOT
ATOM      1  C   UNL     1     -10.454  15.119  69.066  0.00  0.00    +0.260 C 
ATOM      2  N   UNL     1     -11.619  14.340  68.937  0.00  0.00    -0.179 NA
ATOM      3  O   UNL     1     -10.066  15.327  70.255  0.00  0.00    -0.272 OA
ENDROOT
BRANCH   2   4
ATOM      4  C   UNL     1     -12.155  13.455  69.918  0.00  0.00    +0.065 A 
ATOM      5  C   UNL     1     -12.011  12.088  69.709  0.00  0.00    -0.007 A 
ATOM      6  C   UNL     1     -11.274  11.647  68.498  0.00  0.00    +0.032 C 
ATOM      7  C   UNL     1     -12.579  11.148  70.560  0.00  0.00    -0.003 A 
ATOM      8  C   UNL     1     -12.949  11.594  71.801  0.00  0.00    -0.001 A 
ATOM      9  C   UNL     1     -13.084  12.955  72.040  0.00  0.00    -0.003 A 
ATOM     10  C   UNL     1     -12.803  13.888  71.051  0.00  0.00    -0.007 A 
ATOM     11  C   UNL     1     -13.572  15.157  70.928  0.00  0.00    +0.032 C 
ENDBRANCH   2   4
BRANCH   1  13
ATOM     12  N   UNL     1      -9.741  15.269  66.767  0.00  0.00    -0.267 NA
ATOM     13  C   UNL     1      -9.198  14.612  68.122  0.00  0.00    +0.137 C 
ATOM     14  C   UNL     1      -8.248  15.950  68.452  0.00  0.00    +0.025 C 
ATOM     15  C   UNL     1      -9.125  17.109  68.612  0.00  0.00    +0.003 C 
ATOM     16  C   UNL     1      -9.945  17.508  67.426  0.00  0.00    +0.017 C 
ATOM     17  C   UNL     1     -10.695  16.233  67.050  0.00  0.00    +0.072 C 
BRANCH  12  18
ATOM     18  C   UNL     1     -10.138  14.145  65.963  0.00  0.00    +0.072 C 
BRANCH  18  20
ATOM     19  C   UNL     1     -12.416  13.393  65.391  0.00  0.00    +0.001 C 
ATOM     20  C   UNL     1     -11.435  14.514  65.324  0.00  0.00    +0.017 C 
ENDBRANCH  18  20
ENDBRANCH  12  18
ENDBRANCH   1  13
TORSDOF 4
ENDMDL
MODEL 6
REMARK VINA RESULT:      -5.6      1.610      3.156
REMARK  Name = 
REMARK  4 active torsions:
REMARK  status: ('A' for Active; 'I' for Inactive)
REMARK    1  A    between atoms: C_2  and  C_3
REMARK    2  A    between atoms: C_3  and  N_4
REMARK    3  A    between atoms: C_9  and  C_10
REMARK    4  A    between atoms: N_12  and  C_13
REMARK                            x       y       z     vdW  Elec       q    Type
REMARK                         _______ _______ _______ _____ _____    ______ ____
ROOT
ATOM      1  C   UNL     1     -10.363  14.331  68.165  0.00  0.00    +0.260 C 
ATOM      2  N   UNL     1     -11.644  13.809  68.426  0.00  0.00    -0.179 NA
ATOM      3  O   UNL     1      -9.684  14.645  69.189  0.00  0.00    -0.272 OA
ENDROOT
BRANCH   2   4
ATOM      4  C   UNL     1     -12.088  13.234  69.653  0.00  0.00    +0.065 A 
ATOM      5  C   UNL     1     -12.587  14.089  70.629  0.00  0.00    -0.007 A 
ATOM      6  C   UNL     1     -12.660  15.537  70.309  0.00  0.00    +0.032 C 
ATOM      7  C   UNL     1     -12.958  13.633  71.888  0.00  0.00    -0.003 A 
ATOM      8  C   UNL     1     -13.179  12.287  72.009  0.00  0.00    -0.001 A 
ATOM      9  C   UNL     1     -12.705  11.414  71.039  0.00  0.00    -0.003 A 
ATOM     10  C   UNL     1     -12.045  11.884  69.912  0.00  0.00    -0.007 A 
ATOM     11  C   UNL     1     -10.929  11.126  69.282  0.00  0.00    +0.032 C 
ENDBRANCH   2   4
BRANCH   1  13
ATOM     12  N   UNL     1     -10.187  13.930  65.794  0.00  0.00    -0.267 NA
ATOM     13  C   UNL     1      -9.463  13.417  67.125  0.00  0.00    +0.137 C 
ATOM     14  C   UNL     1      -8.251  14.562  66.972  0.00  0.00    +0.025 C 
ATOM     15  C   UNL     1      -8.861  15.889  67.049  0.00  0.00    +0.003 C 
ATOM     16  C   UNL     1      -9.855  16.242  65.987  0.00  0.00    +0.017 C 
ATOM     17  C   UNL     1     -10.874  15.107  66.044  0.00  0.00    +0.072 C 
BRANCH  12  18
ATOM     18  C   UNL     1     -10.941  12.794  65.341  0.00  0.00    +0.072 C 
BRANCH  18  20
ATOM     19  C   UNL     1     -12.468  12.193  63.499  0.00  0.00    +0.001 C 
ATOM     20  C   UNL     1     -11.912  13.302  64.326  0.00  0.00    +0.017 C 
ENDBRANCH  18  20
ENDBRANCH  12  18
ENDBRANCH   1  13
TORSDOF 4
ENDMDL
MODEL 7
REMARK VINA RESULT:      -5.6      1.552      2.520
REMARK  Name = 
REMARK  4 active torsions:
REMARK  status: ('A' for Active; 'I' for Inactive)
REMARK    1  A    between atoms: C_2  and  C_3
REMARK    2  A    between atoms: C_3  and  N_4
REMARK    3  A    between atoms: C_9  and  C_10
REMARK    4  A    between atoms: N_12  and  C_13
REMARK                            x       y       z     vdW  Elec       q    Type
REMARK                         _______ _______ _______ _____ _____    ______ ____
ROOT
ATOM      1  C   UNL     1     -11.347  13.787  67.427  0.00  0.00    +0.260 C 
ATOM      2  N   UNL     1     -10.835  13.951  68.727  0.00  0.00    -0.179 NA
ATOM      3  O   UNL     1     -12.601  13.613  67.353  0.00  0.00    -0.272 OA
ENDROOT
BRANCH   2   4
ATOM      4  C   UNL     1     -11.573  14.339  69.883  0.00  0.00    +0.065 A 
ATOM      5  C   UNL     1     -11.405  15.634  70.359  0.00  0.00    -0.007 A 
ATOM      6  C   UNL     1     -10.496  16.536  69.606  0.00  0.00    +0.032 C 
ATOM      7  C   UNL     1     -12.011  16.074  71.529  0.00  0.00    -0.003 A 
ATOM      8  C   UNL     1     -13.068  15.332  71.985  0.00  0.00    -0.001 A 
ATOM      9  C   UNL     1     -13.268  14.042  71.512  0.00  0.00    -0.003 A 
ATOM     10  C   UNL     1     -12.438  13.497  70.543  0.00  0.00    -0.007 A 
ATOM     11  C   UNL     1     -12.087  12.050  70.532  0.00  0.00    +0.032 C 
ENDBRANCH   2   4
BRANCH   1  13
ATOM     12  N   UNL     1      -9.412  14.309  66.086  0.00  0.00    -0.267 NA
ATOM     13  C   UNL     1     -10.855  14.945  66.357  0.00  0.00    +0.137 C 
ATOM     14  C   UNL     1     -11.506  14.168  65.025  0.00  0.00    +0.025 C 
ATOM     15  C   UNL     1     -11.395  12.725  65.235  0.00  0.00    +0.003 C 
ATOM     16  C   UNL     1     -10.015  12.163  65.366  0.00  0.00    +0.017 C 
ATOM     17  C   UNL     1      -9.388  12.984  66.490  0.00  0.00    +0.072 C 
BRANCH  12  18
ATOM     18  C   UNL     1      -8.498  15.221  66.719  0.00  0.00    +0.072 C 
BRANCH  18  20
ATOM     19  C   UNL     1      -8.106  17.644  66.964  0.00  0.00    +0.001 C 
ATOM     20  C   UNL     1      -8.832  16.584  66.207  0.00  0.00    +0.017 C 
ENDBRANCH  18  20
ENDBRANCH  12  18
ENDBRANCH   1  13
TORSDOF 4
ENDMDL
MODEL 8
REMARK VINA RESULT:      -5.5      3.205      5.616
REMARK  Name = 
REMARK  4 active torsions:
REMARK  status: ('A' for Active; 'I' for Inactive)
REMARK    1  A    between atoms: C_2  and  C_3
REMARK    2  A    between atoms: C_3  and  N_4
REMARK    3  A    between atoms: C_9  and  C_10
REMARK    4  A    between atoms: N_12  and  C_13
REMARK                            x       y       z     vdW  Elec       q    Type
REMARK                         _______ _______ _______ _____ _____    ______ ____
ROOT
ATOM      1  C   UNL     1      -8.165  16.871  68.571  0.00  0.00    +0.260 C 
ATOM      2  N   UNL     1      -9.542  16.905  68.285  0.00  0.00    -0.179 NA
ATOM      3  O   UNL     1      -7.758  15.830  69.171  0.00  0.00    -0.272 OA
ENDROOT
BRANCH   2   4
ATOM      4  C   UNL     1     -10.420  15.784  68.224  0.00  0.00    +0.065 A 
ATOM      5  C   UNL     1     -10.738  15.273  66.970  0.00  0.00    -0.007 A 
ATOM      6  C   UNL     1     -10.109  15.908  65.785  0.00  0.00    +0.032 C 
ATOM      7  C   UNL     1     -11.655  14.242  66.806  0.00  0.00    -0.003 A 
ATOM      8  C   UNL     1     -11.940  13.495  67.918  0.00  0.00    -0.001 A 
ATOM      9  C   UNL     1     -11.617  13.976  69.180  0.00  0.00    -0.003 A 
ATOM     10  C   UNL     1     -10.962  15.189  69.339  0.00  0.00    -0.007 A 
ATOM     11  C   UNL     1     -11.238  16.084  70.497  0.00  0.00    +0.032 C 
ENDBRANCH   2   4
BRANCH   1  13
ATOM     12  N   UNL     1      -7.356  18.800  67.372  0.00  0.00    -0.267 NA
ATOM     13  C   UNL     1      -7.199  17.211  67.275  0.00  0.00    +0.137 C 
ATOM     14  C   UNL     1      -5.789  17.242  68.177  0.00  0.00    +0.025 C 
ATOM     15  C   UNL     1      -6.103  17.773  69.503  0.00  0.00    +0.003 C 
ATOM     16  C   UNL     1      -6.627  19.173  69.567  0.00  0.00    +0.017 C 
ATOM     17  C   UNL     1      -7.827  19.161  68.624  0.00  0.00    +0.072 C 
BRANCH  12  18
ATOM     18  C   UNL     1      -8.154  19.147  66.227  0.00  0.00    +0.072 C 
BRANCH  18  20
ATOM     19  C   UNL     1     -10.567  19.637  66.068  0.00  0.00    +0.001 C 
ATOM     20  C   UNL     1      -9.278  19.992  66.730  0.00  0.00    +0.017 C 
ENDBRANCH  18  20
ENDBRANCH  12  18
ENDBRANCH   1  13
TORSDOF 4
ENDMDL
MODEL 9
REMARK VINA RESULT:      -5.5      1.925      4.019
REMARK  Name = 
REMARK  4 active torsions:
REMARK  status: ('A' for Active; 'I' for Inactive)
REMARK    1  A    between atoms: C_2  and  C_3
REMARK    2  A    between atoms: C_3  and  N_4
REMARK    3  A    between atoms: C_9  and  C_10
REMARK    4  A    between atoms: N_12  and  C_13
REMARK                            x       y       z     vdW  Elec       q    Type
REMARK                         _______ _______ _______ _____ _____    ______ ____
ROOT
ATOM      1  C   UNL     1     -10.345  12.582  67.539  0.00  0.00    +0.260 C 
ATOM      2  N   UNL     1     -11.229  11.490  67.610  0.00  0.00    -0.179 NA
ATOM      3  O   UNL     1      -9.184  12.375  68.005  0.00  0.00    -0.272 OA
ENDROOT
BRANCH   2   4
ATOM      4  C   UNL     1     -10.868  10.119  67.759  0.00  0.00    +0.065 A 
ATOM      5  C   UNL     1     -10.831   9.591  69.045  0.00  0.00    -0.007 A 
ATOM      6  C   UNL     1     -11.210  10.484  70.170  0.00  0.00    +0.032 C 
ATOM      7  C   UNL     1     -10.403   8.295  69.298  0.00  0.00    -0.003 A 
ATOM      8  C   UNL     1     -10.387   7.438  68.229  0.00  0.00    -0.001 A 
ATOM      9  C   UNL     1     -10.440   7.939  66.935  0.00  0.00    -0.003 A 
ATOM     10  C   UNL     1     -10.557   9.302  66.698  0.00  0.00    -0.007 A 
ATOM     11  C   UNL     1      -9.901   9.955  65.532  0.00  0.00    +0.032 C 
ENDBRANCH   2   4
BRANCH   1  13
ATOM     12  N   UNL     1     -11.601  14.138  66.192  0.00  0.00    -0.267 NA
ATOM     13  C   UNL     1     -10.257  13.282  66.046  0.00  0.00    +0.137 C 
ATOM     14  C   UNL     1      -9.319  14.568  66.567  0.00  0.00    +0.025 C 
ATOM     15  C   UNL     1      -9.717  14.902  67.934  0.00  0.00    +0.003 C 
ATOM     16  C   UNL     1     -11.129  15.354  68.138  0.00  0.00    +0.017 C 
ATOM     17  C   UNL     1     -11.967  14.235  67.525  0.00  0.00    +0.072 C 
BRANCH  12  18
ATOM     18  C   UNL     1     -12.523  13.507  65.286  0.00  0.00    +0.072 C 
BRANCH  18  20
ATOM     19  C   UNL     1     -12.426  11.973  63.357  0.00  0.00    +0.001 C 
ATOM     20  C   UNL     1     -11.722  13.049  64.113  0.00  0.00    +0.017 C 
ENDBRANCH  18  20
ENDBRANCH  12  18
ENDBRANCH   1  13
TORSDOF 4
ENDMDL
