MODEL 1
REMARK VINA RESULT:      -4.3      0.000      0.000
REMARK  Name = 
REMARK  4 active torsions:
REMARK  status: ('A' for Active; 'I' for Inactive)
REMARK    1  A    between atoms: N_2  and  C_5
REMARK    2  A    between atoms: C_5  and  C_6
REMARK    3  A    between atoms: C_6  and  C_8
REMARK    4  A    between atoms: C_8  and  C_9
REMARK                            x       y       z     vdW  Elec       q    Type
REMARK                         _______ _______ _______ _____ _____    ______ ____
ROOT
ATOM      1  C   UNL     1     -12.157  14.165  66.140  0.00  0.00    +0.218 C 
ATOM      2  O   UNL     1     -13.171  13.743  65.089  0.00  0.00    -0.216 OA
ENDROOT
BRANCH   1   3
ATOM      3  C   UNL     1     -11.677  12.608  66.385  0.00  0.00    +0.143 C 
BRANCH   3   5
ATOM      4  C   UNL     1     -11.708  11.724  68.117  0.00  0.00    +0.171 C 
ATOM      5  N   UNL     1     -11.375  12.492  67.788  0.00  0.00    +0.313 N 
ATOM      6  C   UNL     1      -9.929  12.433  68.044  0.00  0.00    +0.171 C 
ATOM      7  C   UNL     1     -11.872  13.637  68.554  0.00  0.00    +0.171 C 
ENDBRANCH   3   5
ENDBRANCH   1   3
BRANCH   1   8
ATOM      8  C   UNL     1     -11.000  14.406  64.989  0.00  0.00    +0.153 C 
BRANCH   8   9
ATOM      9  C   UNL     1     -10.920  15.882  64.878  0.00  0.00    +0.368 C 
ATOM     10  O   UNL     1     -11.617  16.612  63.917  0.00  0.00    -0.246 OA
ATOM     11  O   UNL     1      -9.965  16.501  65.436  0.00  0.00    -0.246 OA
ENDBRANCH   8   9
ENDBRANCH   1   8
TORSDOF 4
ENDMDL
MODEL 2
REMARK VINA RESULT:      -4.1      0.896      1.380
REMARK  Name = 
REMARK  4 active torsions:
REMARK  status: ('A' for Active; 'I' for Inactive)
REMARK    1  A    between atoms: N_2  and  C_5
REMARK    2  A    between atoms: C_5  and  C_6
REMARK    3  A    between atoms: C_6  and  C_8
REMARK    4  A    between atoms: C_8  and  C_9
REMARK                            x       y       z     vdW  Elec       q    Type
REMARK                         _______ _______ _______ _____ _____    ______ ____
ROOT
ATOM      1  C   UNL     1     -12.164  13.914  66.022  0.00  0.00    +0.218 C 
ATOM      2  O   UNL     1     -12.694  12.658  65.347  0.00  0.00    -0.216 OA
ENDROOT
BRANCH   1   3
ATOM      3  C   UNL     1     -10.983  13.067  66.797  0.00  0.00    +0.143 C 
BRANCH   3   5
ATOM      4  C   UNL     1     -10.152  13.726  68.428  0.00  0.00    +0.171 C 
ATOM      5  N   UNL     1     -10.987  13.524  68.163  0.00  0.00    +0.313 N 
ATOM      6  C   UNL     1     -11.760  14.763  68.333  0.00  0.00    +0.171 C 
ATOM      7  C   UNL     1     -11.592  12.547  69.069  0.00  0.00    +0.171 C 
ENDBRANCH   3   5
ENDBRANCH   1   3
BRANCH   1   8
ATOM      8  C   UNL     1     -11.176  14.237  64.740  0.00  0.00    +0.153 C 
BRANCH   8   9
ATOM      9  C   UNL     1     -10.998  15.707  64.799  0.00  0.00    +0.368 C 
ATOM     10  O   UNL     1     -11.638  16.587  63.928  0.00  0.00    -0.246 OA
ATOM     11  O   UNL     1     -10.008  16.194  65.424  0.00  0.00    -0.246 OA
ENDBRANCH   8   9
ENDBRANCH   1   8
TORSDOF 4
ENDMDL
MODEL 3
REMARK VINA RESULT:      -4.1      5.385      6.645
REMARK  Name = 
REMARK  4 active torsions:
REMARK  status: ('A' for Active; 'I' for Inactive)
REMARK    1  A    between atoms: N_2  and  C_5
REMARK    2  A    between atoms: C_5  and  C_6
REMARK    3  A    between atoms: C_6  and  C_8
REMARK    4  A    between atoms: C_8  and  C_9
REMARK                            x       y       z     vdW  Elec       q    Type
REMARK                         _______ _______ _______ _____ _____    ______ ____
ROOT
ATOM      1  C   UNL     1     -12.651  15.056  71.595  0.00  0.00    +0.218 C 
ATOM      2  O   UNL     1     -14.019  15.712  71.495  0.00  0.00    -0.216 OA
ENDROOT
BRANCH   1   3
ATOM      3  C   UNL     1     -12.142  15.774  70.202  0.00  0.00    +0.143 C 
BRANCH   3   5
ATOM      4  C   UNL     1     -10.606  14.775  69.549  0.00  0.00    +0.171 C 
ATOM      5  N   UNL     1     -11.496  14.745  69.428  0.00  0.00    +0.313 N 
ATOM      6  C   UNL     1     -11.903  13.396  69.849  0.00  0.00    +0.171 C 
ATOM      7  C   UNL     1     -11.825  14.838  68.005  0.00  0.00    +0.171 C 
ENDBRANCH   3   5
ENDBRANCH   1   3
BRANCH   1   8
ATOM      8  C   UNL     1     -12.075  16.298  72.517  0.00  0.00    +0.153 C 
BRANCH   8   9
ATOM      9  C   UNL     1     -12.415  15.892  73.901  0.00  0.00    +0.368 C 
ATOM     10  O   UNL     1     -12.454  16.787  74.970  0.00  0.00    -0.246 OA
ATOM     11  O   UNL     1     -12.361  14.667  74.226  0.00  0.00    -0.246 OA
ENDBRANCH   8   9
ENDBRANCH   1   8
TORSDOF 4
ENDMDL
MODEL 4
REMARK VINA RESULT:      -4.0      2.584      3.439
REMARK  Name = 
REMARK  4 active torsions:
REMARK  status: ('A' for Active; 'I' for Inactive)
REMARK    1  A    between atoms: N_2  and  C_5
REMARK    2  A    between atoms: C_5  and  C_6
REMARK    3  A    between atoms: C_6  and  C_8
REMARK    4  A    between atoms: C_8  and  C_9
REMARK                            x       y       z     vdW  Elec       q    Type
REMARK                         _______ _______ _______ _____ _____    ______ ____
ROOT
ATOM      1  C   UNL     1     -11.469  13.447  64.302  0.00  0.00    +0.218 C 
ATOM      2  O   UNL     1     -12.600  14.198  63.616  0.00  0.00    -0.216 OA
ENDROOT
BRANCH   1   3
ATOM      3  C   UNL     1     -12.414  13.101  65.607  0.00  0.00    +0.143 C 
BRANCH   3   5
ATOM      4  C   UNL     1     -11.952  13.950  67.294  0.00  0.00    +0.171 C 
ATOM      5  N   UNL     1     -11.593  13.315  66.770  0.00  0.00    +0.313 N 
ATOM      6  C   UNL     1     -11.502  12.115  67.615  0.00  0.00    +0.171 C 
ATOM      7  C   UNL     1     -10.215  13.660  66.415  0.00  0.00    +0.171 C 
ENDBRANCH   3   5
ENDBRANCH   1   3
BRANCH   1   8
ATOM      8  C   UNL     1     -11.889  12.040  63.548  0.00  0.00    +0.153 C 
BRANCH   8   9
ATOM      9  C   UNL     1     -10.644  11.238  63.587  0.00  0.00    +0.368 C 
ATOM     10  O   UNL     1     -10.347  10.344  64.615  0.00  0.00    -0.246 OA
ATOM     11  O   UNL     1      -9.658  11.575  62.865  0.00  0.00    -0.246 OA
ENDBRANCH   8   9
ENDBRANCH   1   8
TORSDOF 4
ENDMDL
MODEL 5
REMARK VINA RESULT:      -3.9      1.678      2.968
REMARK  Name = 
REMARK  4 active torsions:
REMARK  status: ('A' for Active; 'I' for Inactive)
REMARK    1  A    between atoms: N_2  and  C_5
REMARK    2  A    between atoms: C_5  and  C_6
REMARK    3  A    between atoms: C_6  and  C_8
REMARK    4  A    between atoms: C_8  and  C_9
REMARK                            x       y       z     vdW  Elec       q    Type
REMARK                         _______ _______ _______ _____ _____    ______ ____
ROOT
ATOM      1  C   UNL     1     -10.640  14.533  64.979  0.00  0.00    +0.218 C 
ATOM      2  O   UNL     1     -10.708  16.037  64.771  0.00  0.00    -0.216 OA
ENDROOT
BRANCH   1   3
ATOM      3  C   UNL     1     -11.289  14.655  66.489  0.00  0.00    +0.143 C 
BRANCH   3   5
ATOM      4  C   UNL     1     -10.548  13.873  68.108  0.00  0.00    +0.171 C 
ATOM      5  N   UNL     1     -10.705  13.594  67.268  0.00  0.00    +0.313 N 
ATOM      6  C   UNL     1     -11.607  12.440  67.402  0.00  0.00    +0.171 C 
ATOM      7  C   UNL     1      -9.478  13.076  66.661  0.00  0.00    +0.171 C 
ENDBRANCH   3   5
ENDBRANCH   1   3
BRANCH   1   8
ATOM      8  C   UNL     1     -12.125  14.326  64.291  0.00  0.00    +0.153 C 
BRANCH   8   9
ATOM      9  C   UNL     1     -12.035  12.988  63.661  0.00  0.00    +0.368 C 
ATOM     10  O   UNL     1     -13.115  12.110  63.582  0.00  0.00    -0.246 OA
ATOM     11  O   UNL     1     -10.898  12.461  63.468  0.00  0.00    -0.246 OA
ENDBRANCH   8   9
ENDBRANCH   1   8
TORSDOF 4
ENDMDL
MODEL 6
REMARK VINA RESULT:      -3.9      2.392      3.473
REMARK  Name = 
REMARK  4 active torsions:
REMARK  status: ('A' for Active; 'I' for Inactive)
REMARK    1  A    between atoms: N_2  and  C_5
REMARK    2  A    between atoms: C_5  and  C_6
REMARK    3  A    between atoms: C_6  and  C_8
REMARK    4  A    between atoms: C_8  and  C_9
REMARK                            x       y       z     vdW  Elec       q    Type
REMARK                         _______ _______ _______ _____ _____    ______ ____
ROOT
ATOM      1  C   UNL     1     -12.094  14.133  65.161  0.00  0.00    +0.218 C 
ATOM      2  O   UNL     1     -13.587  14.120  65.448  0.00  0.00    -0.216 OA
ENDROOT
BRANCH   1   3
ATOM      3  C   UNL     1     -11.731  14.346  66.754  0.00  0.00    +0.143 C 
BRANCH   3   5
ATOM      4  C   UNL     1     -10.681  15.808  67.492  0.00  0.00    +0.171 C 
ATOM      5  N   UNL     1     -10.606  15.244  66.797  0.00  0.00    +0.313 N 
ATOM      6  C   UNL     1      -9.335  14.534  67.006  0.00  0.00    +0.171 C 
ATOM      7  C   UNL     1     -10.448  15.988  65.546  0.00  0.00    +0.171 C 
ENDBRANCH   3   5
ENDBRANCH   1   3
BRANCH   1   8
ATOM      8  C   UNL     1     -12.010  12.491  65.298  0.00  0.00    +0.153 C 
BRANCH   8   9
ATOM      9  C   UNL     1     -11.851  12.031  63.899  0.00  0.00    +0.368 C 
ATOM     10  O   UNL     1     -10.638  12.080  63.214  0.00  0.00    -0.246 OA
ATOM     11  O   UNL     1     -12.876  11.883  63.167  0.00  0.00    -0.246 OA
ENDBRANCH   8   9
ENDBRANCH   1   8
TORSDOF 4
ENDMDL
MODEL 7
REMARK VINA RESULT:      -3.8      2.793      3.919
REMARK  Name = 
REMARK  4 active torsions:
REMARK  status: ('A' for Active; 'I' for Inactive)
REMARK    1  A    between atoms: N_2  and  C_5
REMARK    2  A    between atoms: C_5  and  C_6
REMARK    3  A    between atoms: C_6  and  C_8
REMARK    4  A    between atoms: C_8  and  C_9
REMARK                            x       y       z     vdW  Elec       q    Type
REMARK                         _______ _______ _______ _____ _____    ______ ____
ROOT
ATOM      1  C   UNL     1     -10.326  15.066  66.701  0.00  0.00    +0.218 C 
ATOM      2  O   UNL     1      -9.158  14.112  66.894  0.00  0.00    -0.216 OA
ENDROOT
BRANCH   1   3
ATOM      3  C   UNL     1      -9.332  16.380  66.729  0.00  0.00    +0.143 C 
BRANCH   3   5
ATOM      4  C   UNL     1      -9.255  17.593  68.247  0.00  0.00    +0.171 C 
ATOM      5  N   UNL     1      -9.894  17.292  67.691  0.00  0.00    +0.313 N 
ATOM      6  C   UNL     1     -10.456  18.494  67.056  0.00  0.00    +0.171 C 
ATOM      7  C   UNL     1     -10.992  16.688  68.447  0.00  0.00    +0.171 C 
ENDBRANCH   3   5
ENDBRANCH   1   3
BRANCH   1   8
ATOM      8  C   UNL     1     -10.214  14.939  65.059  0.00  0.00    +0.153 C 
BRANCH   8   9
ATOM      9  C   UNL     1     -11.516  15.459  64.579  0.00  0.00    +0.368 C 
ATOM     10  O   UNL     1     -12.643  14.655  64.413  0.00  0.00    -0.246 OA
ATOM     11  O   UNL     1     -11.564  16.582  63.992  0.00  0.00    -0.246 OA
ENDBRANCH   8   9
ENDBRANCH   1   8
TORSDOF 4
ENDMDL
MODEL 8
REMARK VINA RESULT:      -3.8      3.640      5.317
REMARK  Name = 
REMARK  4 active torsions:
REMARK  status: ('A' for Active; 'I' for Inactive)
REMARK    1  A    between atoms: N_2  and  C_5
REMARK    2  A    between atoms: C_5  and  C_6
REMARK    3  A    between atoms: C_6  and  C_8
REMARK    4  A    between atoms: C_8  and  C_9
REMARK                            x       y       z     vdW  Elec       q    Type
REMARK                         _______ _______ _______ _____ _____    ______ ____
ROOT
ATOM      1  C   UNL     1     -10.377  17.206  66.516  0.00  0.00    +0.218 C 
ATOM      2  O   UNL     1     -10.321  16.493  67.859  0.00  0.00    -0.216 OA
ENDROOT
BRANCH   1   3
ATOM      3  C   UNL     1      -8.802  17.676  66.636  0.00  0.00    +0.143 C 
BRANCH   3   5
ATOM      4  C   UNL     1      -8.185  19.456  66.151  0.00  0.00    +0.171 C 
ATOM      5  N   UNL     1      -8.813  19.115  66.696  0.00  0.00    +0.313 N 
ATOM      6  C   UNL     1     -10.086  19.682  66.228  0.00  0.00    +0.171 C 
ATOM      7  C   UNL     1      -8.632  19.611  68.061  0.00  0.00    +0.171 C 
ENDBRANCH   3   5
ENDBRANCH   1   3
BRANCH   1   8
ATOM      8  C   UNL     1      -9.966  15.822  65.717  0.00  0.00    +0.153 C 
BRANCH   8   9
ATOM      9  C   UNL     1     -11.061  15.648  64.734  0.00  0.00    +0.368 C 
ATOM     10  O   UNL     1     -11.570  16.697  63.968  0.00  0.00    -0.246 OA
ATOM     11  O   UNL     1     -11.796  14.617  64.789  0.00  0.00    -0.246 OA
ENDBRANCH   8   9
ENDBRANCH   1   8
TORSDOF 4
ENDMDL
MODEL 9
REMARK VINA RESULT:      -3.8      2.674      3.811
REMARK  Name = 
REMARK  4 active torsions:
REMARK  status: ('A' for Active; 'I' for Inactive)
REMARK    1  A    between atoms: N_2  and  C_5
REMARK    2  A    between atoms: C_5  and  C_6
REMARK    3  A    between atoms: C_6  and  C_8
REMARK    4  A    between atoms: C_8  and  C_9
REMARK                            x       y       z     vdW  Elec       q    Type
REMARK                         _______ _______ _______ _____ _____    ______ ____
ROOT
ATOM      1  C   UNL     1     -10.872  15.033  66.406  0.00  0.00    +0.218 C 
ATOM      2  O   UNL     1      -9.606  14.255  66.079  0.00  0.00    -0.216 OA
ENDROOT
BRANCH   1   3
ATOM      3  C   UNL     1     -10.046  16.457  66.481  0.00  0.00    +0.143 C 
BRANCH   3   5
ATOM      4  C   UNL     1     -10.489  17.809  67.807  0.00  0.00    +0.171 C 
ATOM      5  N   UNL     1     -10.215  16.953  67.823  0.00  0.00    +0.313 N 
ATOM      6  C   UNL     1     -11.257  16.222  68.559  0.00  0.00    +0.171 C 
ATOM      7  C   UNL     1      -8.994  16.818  68.617  0.00  0.00    +0.171 C 
ENDBRANCH   3   5
ENDBRANCH   1   3
BRANCH   1   8
ATOM      8  C   UNL     1     -11.209  15.242  64.804  0.00  0.00    +0.153 C 
BRANCH   8   9
ATOM      9  C   UNL     1     -12.270  14.243  64.537  0.00  0.00    +0.368 C 
ATOM     10  O   UNL     1     -12.548  13.749  63.264  0.00  0.00    -0.246 OA
ATOM     11  O   UNL     1     -13.178  14.047  65.400  0.00  0.00    -0.246 OA
ENDBRANCH   8   9
ENDBRANCH   1   8
TORSDOF 4
ENDMDL
