MODEL 1
REMARK VINA RESULT:      -6.2      0.000      0.000
REMARK  Name = 
REMARK  12 active torsions:
REMARK  status: ('A' for Active; 'I' for Inactive)
REMARK    1  A    between atoms: C_2  and  C_3
REMARK    2  A    between atoms: C_3  and  C_4
REMARK    3  A    between atoms: C_4  and  C_5
REMARK    4  A    between atoms: C_5  and  C_6
REMARK    5  A    between atoms: C_6  and  C_8
REMARK    6  A    between atoms: C_9  and  C_10
REMARK    7  A    between atoms: C_16  and  C_17
REMARK    8  A    between atoms: C_17  and  C_18
REMARK    9  A    between atoms: C_19  and  C_20
REMARK   10  A    between atoms: C_20  and  C_21
REMARK   11  A    between atoms: C_21  and  C_22
REMARK   12  A    between atoms: C_22  and  C_23
REMARK                            x       y       z     vdW  Elec       q    Type
REMARK                         _______ _______ _______ _____ _____    ______ ____
ROOT
ATOM      1  C   UNL     1     -10.563  15.738  66.254  0.00  0.00    +0.060 C 
ATOM      2  C   UNL     1     -10.603  14.114  66.784  0.00  0.00    +0.068 C 
ATOM      3  C   UNL     1     -11.362  13.545  65.475  0.00  0.00    +0.154 C 
ATOM      4  O   UNL     1     -10.987  12.434  65.179  0.00  0.00    -0.296 OA
ATOM      5  C   UNL     1     -12.161  14.585  64.920  0.00  0.00    +0.098 C 
ATOM      6  C   UNL     1     -10.681  15.299  64.596  0.00  0.00    +0.164 C 
ATOM      7  O   UNL     1     -11.381  16.631  64.272  0.00  0.00    -0.222 OA
ENDROOT
BRANCH   1   9
ATOM      8  C   UNL     1      -8.463  16.469  67.152  0.00  0.00    +0.002 C 
ATOM      9  C   UNL     1      -8.973  15.734  66.185  0.00  0.00    -0.026 C 
BRANCH   8  10
ATOM     10  C   UNL     1      -6.939  17.030  66.796  0.00  0.00    +0.174 C 
ATOM     11  O   UNL     1      -7.469  17.783  65.540  0.00  0.00    -0.218 OA
BRANCH  10  12
ATOM     12  C   UNL     1      -7.147  18.334  67.846  0.00  0.00    +0.037 C 
BRANCH  12  13
ATOM     13  C   UNL     1      -8.541  18.379  68.277  0.00  0.00    +0.003 C 
BRANCH  13  14
ATOM     14  C   UNL     1      -9.161  19.705  67.986  0.00  0.00    +0.000 C 
BRANCH  14  16
ATOM     15  C   UNL     1     -10.475  19.628  66.062  0.00  0.00    +0.000 C 
ATOM     16  C   UNL     1     -10.512  19.592  67.300  0.00  0.00    +0.000 C 
ENDBRANCH  14  16
ENDBRANCH  13  14
ENDBRANCH  12  13
ENDBRANCH  10  12
ENDBRANCH   8  10
ENDBRANCH   1   9
BRANCH   2  17
ATOM     17  C   UNL     1     -12.047  14.253  67.577  0.00  0.00    +0.033 C 
BRANCH  17  18
ATOM     18  C   UNL     1     -11.958  13.570  68.851  0.00  0.00    -0.030 C 
ATOM     19  C   UNL     1     -11.038  14.013  69.720  0.00  0.00    -0.031 C 
BRANCH  19  20
ATOM     20  C   UNL     1     -10.964  15.478  69.894  0.00  0.00    +0.026 C 
BRANCH  20  21
ATOM     21  C   UNL     1     -12.029  16.020  70.820  0.00  0.00    +0.016 C 
BRANCH  21  22
ATOM     22  C   UNL     1     -12.041  15.310  72.138  0.00  0.00    +0.114 C 
BRANCH  22  23
ATOM     23  C   UNL     1     -13.409  15.013  72.639  0.00  0.00    +0.365 C 
ATOM     24  O   UNL     1     -13.929  13.715  72.689  0.00  0.00    -0.246 OA
ATOM     25  O   UNL     1     -14.201  15.999  72.737  0.00  0.00    -0.246 OA
ENDBRANCH  22  23
ENDBRANCH  21  22
ENDBRANCH  20  21
ENDBRANCH  19  20
ENDBRANCH  17  18
ENDBRANCH   2  17
TORSDOF 12
ENDMDL
MODEL 2
REMARK VINA RESULT:      -6.1      3.453      5.548
REMARK  Name = 
REMARK  12 active torsions:
REMARK  status: ('A' for Active; 'I' for Inactive)
REMARK    1  A    between atoms: C_2  and  C_3
REMARK    2  A    between atoms: C_3  and  C_4
REMARK    3  A    between atoms: C_4  and  C_5
REMARK    4  A    between atoms: C_5  and  C_6
REMARK    5  A    between atoms: C_6  and  C_8
REMARK    6  A    between atoms: C_9  and  C_10
REMARK    7  A    between atoms: C_16  and  C_17
REMARK    8  A    between atoms: C_17  and  C_18
REMARK    9  A    between atoms: C_19  and  C_20
REMARK   10  A    between atoms: C_20  and  C_21
REMARK   11  A    between atoms: C_21  and  C_22
REMARK   12  A    between atoms: C_22  and  C_23
REMARK                            x       y       z     vdW  Elec       q    Type
REMARK                         _______ _______ _______ _____ _____    ______ ____
ROOT
ATOM      1  C   UNL     1     -11.730  13.083  67.691  0.00  0.00    +0.060 C 
ATOM      2  C   UNL     1     -10.380  12.039  67.762  0.00  0.00    +0.068 C 
ATOM      3  C   UNL     1     -10.231  11.872  66.162  0.00  0.00    +0.154 C 
ATOM      4  O   UNL     1      -9.074  11.781  65.820  0.00  0.00    -0.296 OA
ATOM      5  C   UNL     1     -11.511  12.043  65.562  0.00  0.00    +0.098 C 
ATOM      6  C   UNL     1     -11.350  13.620  66.103  0.00  0.00    +0.164 C 
ATOM      7  O   UNL     1     -12.839  13.884  65.813  0.00  0.00    -0.222 OA
ENDROOT
BRANCH   1   9
ATOM      8  C   UNL     1     -11.256  14.458  69.597  0.00  0.00    +0.002 C 
ATOM      9  C   UNL     1     -10.908  14.281  68.339  0.00  0.00    -0.026 C 
BRANCH   8  10
ATOM     10  C   UNL     1     -10.957  16.003  70.134  0.00  0.00    +0.174 C 
ATOM     11  O   UNL     1     -11.699  16.613  68.908  0.00  0.00    -0.218 OA
BRANCH  10  12
ATOM     12  C   UNL     1     -12.323  15.951  71.121  0.00  0.00    +0.037 C 
BRANCH  12  13
ATOM     13  C   UNL     1     -11.906  15.686  72.495  0.00  0.00    +0.003 C 
BRANCH  13  14
ATOM     14  C   UNL     1     -12.925  14.881  73.230  0.00  0.00    +0.000 C 
BRANCH  14  16
ATOM     15  C   UNL     1     -13.568  12.903  72.179  0.00  0.00    +0.000 C 
ATOM     16  C   UNL     1     -13.847  14.103  72.307  0.00  0.00    +0.000 C 
ENDBRANCH  14  16
ENDBRANCH  13  14
ENDBRANCH  12  13
ENDBRANCH  10  12
ENDBRANCH   8  10
ENDBRANCH   1   9
BRANCH   2  17
ATOM     17  C   UNL     1     -11.272  10.648  67.837  0.00  0.00    +0.033 C 
BRANCH  17  18
ATOM     18  C   UNL     1     -10.508   9.630  68.530  0.00  0.00    -0.030 C 
ATOM     19  C   UNL     1     -10.338   9.785  69.850  0.00  0.00    -0.031 C 
BRANCH  19  20
ATOM     20  C   UNL     1     -11.542  10.165  70.619  0.00  0.00    +0.026 C 
BRANCH  20  21
ATOM     21  C   UNL     1     -11.893   9.170  71.701  0.00  0.00    +0.016 C 
BRANCH  21  22
ATOM     22  C   UNL     1     -13.314   9.308  72.151  0.00  0.00    +0.114 C 
BRANCH  22  23
ATOM     23  C   UNL     1     -14.157   8.130  71.821  0.00  0.00    +0.365 C 
ATOM     24  O   UNL     1     -15.497   8.027  72.214  0.00  0.00    -0.246 OA
ATOM     25  O   UNL     1     -13.546   7.087  71.435  0.00  0.00    -0.246 OA
ENDBRANCH  22  23
ENDBRANCH  21  22
ENDBRANCH  20  21
ENDBRANCH  19  20
ENDBRANCH  17  18
ENDBRANCH   2  17
TORSDOF 12
ENDMDL
MODEL 3
REMARK VINA RESULT:      -6.0      3.225      6.526
REMARK  Name = 
REMARK  12 active torsions:
REMARK  status: ('A' for Active; 'I' for Inactive)
REMARK    1  A    between atoms: C_2  and  C_3
REMARK    2  A    between atoms: C_3  and  C_4
REMARK    3  A    between atoms: C_4  and  C_5
REMARK    4  A    between atoms: C_5  and  C_6
REMARK    5  A    between atoms: C_6  and  C_8
REMARK    6  A    between atoms: C_9  and  C_10
REMARK    7  A    between atoms: C_16  and  C_17
REMARK    8  A    between atoms: C_17  and  C_18
REMARK    9  A    between atoms: C_19  and  C_20
REMARK   10  A    between atoms: C_20  and  C_21
REMARK   11  A    between atoms: C_21  and  C_22
REMARK   12  A    between atoms: C_22  and  C_23
REMARK                            x       y       z     vdW  Elec       q    Type
REMARK                         _______ _______ _______ _____ _____    ______ ____
ROOT
ATOM      1  C   UNL     1     -10.590  12.629  67.255  0.00  0.00    +0.060 C 
ATOM      2  C   UNL     1     -11.764  13.870  67.250  0.00  0.00    +0.068 C 
ATOM      3  C   UNL     1     -11.964  13.885  65.646  0.00  0.00    +0.154 C 
ATOM      4  O   UNL     1     -13.109  14.115  65.333  0.00  0.00    -0.296 OA
ATOM      5  C   UNL     1     -10.754  13.455  65.029  0.00  0.00    +0.098 C 
ATOM      6  C   UNL     1     -11.122  11.989  65.751  0.00  0.00    +0.164 C 
ATOM      7  O   UNL     1      -9.705  11.470  65.446  0.00  0.00    -0.222 OA
ENDROOT
BRANCH   1   9
ATOM      8  C   UNL     1     -10.911  11.100  69.074  0.00  0.00    +0.002 C 
ATOM      9  C   UNL     1     -11.550  11.648  68.061  0.00  0.00    -0.026 C 
BRANCH   8  10
ATOM     10  C   UNL     1     -11.584   9.655  69.549  0.00  0.00    +0.174 C 
ATOM     11  O   UNL     1     -10.175   9.017  69.731  0.00  0.00    -0.218 OA
BRANCH  10  12
ATOM     12  C   UNL     1     -11.702  10.205  71.140  0.00  0.00    +0.037 C 
BRANCH  12  13
ATOM     13  C   UNL     1     -13.110  10.258  71.520  0.00  0.00    +0.003 C 
BRANCH  13  14
ATOM     14  C   UNL     1     -13.485   9.104  72.389  0.00  0.00    +0.000 C 
BRANCH  14  16
ATOM     15  C   UNL     1     -14.421   7.135  71.564  0.00  0.00    +0.000 C 
ATOM     16  C   UNL     1     -14.667   8.315  71.853  0.00  0.00    +0.000 C 
ENDBRANCH  14  16
ENDBRANCH  13  14
ENDBRANCH  12  13
ENDBRANCH  10  12
ENDBRANCH   8  10
ENDBRANCH   1   9
BRANCH   2  17
ATOM     17  C   UNL     1     -10.672  15.107  67.138  0.00  0.00    +0.033 C 
BRANCH  17  18
ATOM     18  C   UNL     1     -11.199  16.270  67.822  0.00  0.00    -0.030 C 
ATOM     19  C   UNL     1     -11.648  16.094  69.073  0.00  0.00    -0.031 C 
BRANCH  19  20
ATOM     20  C   UNL     1     -10.781  15.297  69.965  0.00  0.00    +0.026 C 
BRANCH  20  21
ATOM     21  C   UNL     1     -11.484  14.843  71.225  0.00  0.00    +0.016 C 
BRANCH  21  22
ATOM     22  C   UNL     1     -12.694  14.014  70.923  0.00  0.00    +0.114 C 
BRANCH  22  23
ATOM     23  C   UNL     1     -13.878  14.373  71.748  0.00  0.00    +0.365 C 
ATOM     24  O   UNL     1     -14.349  15.686  71.859  0.00  0.00    -0.246 OA
ATOM     25  O   UNL     1     -14.267  13.505  72.587  0.00  0.00    -0.246 OA
ENDBRANCH  22  23
ENDBRANCH  21  22
ENDBRANCH  20  21
ENDBRANCH  19  20
ENDBRANCH  17  18
ENDBRANCH   2  17
TORSDOF 12
ENDMDL
MODEL 4
REMARK VINA RESULT:      -5.8      2.458      7.303
REMARK  Name = 
REMARK  12 active torsions:
REMARK  status: ('A' for Active; 'I' for Inactive)
REMARK    1  A    between atoms: C_2  and  C_3
REMARK    2  A    between atoms: C_3  and  C_4
REMARK    3  A    between atoms: C_4  and  C_5
REMARK    4  A    between atoms: C_5  and  C_6
REMARK    5  A    between atoms: C_6  and  C_8
REMARK    6  A    between atoms: C_9  and  C_10
REMARK    7  A    between atoms: C_16  and  C_17
REMARK    8  A    between atoms: C_17  and  C_18
REMARK    9  A    between atoms: C_19  and  C_20
REMARK   10  A    between atoms: C_20  and  C_21
REMARK   11  A    between atoms: C_21  and  C_22
REMARK   12  A    between atoms: C_22  and  C_23
REMARK                            x       y       z     vdW  Elec       q    Type
REMARK                         _______ _______ _______ _____ _____    ______ ____
ROOT
ATOM      1  C   UNL     1     -11.504  15.910  68.746  0.00  0.00    +0.060 C 
ATOM      2  C   UNL     1     -10.708  14.424  68.468  0.00  0.00    +0.068 C 
ATOM      3  C   UNL     1      -9.349  15.084  67.892  0.00  0.00    +0.154 C 
ATOM      4  O   UNL     1      -8.367  14.452  68.209  0.00  0.00    -0.296 OA
ATOM      5  C   UNL     1      -9.665  16.339  67.298  0.00  0.00    +0.098 C 
ATOM      6  C   UNL     1     -10.030  16.785  68.870  0.00  0.00    +0.164 C 
ATOM      7  O   UNL     1     -10.720  18.063  68.360  0.00  0.00    -0.222 OA
ENDROOT
BRANCH   1   9
ATOM      8  C   UNL     1     -12.780  15.588  70.750  0.00  0.00    +0.002 C 
ATOM      9  C   UNL     1     -11.538  15.661  70.317  0.00  0.00    -0.026 C 
BRANCH   8  10
ATOM     10  C   UNL     1     -12.920  15.967  72.363  0.00  0.00    +0.174 C 
ATOM     11  O   UNL     1     -14.471  15.852  72.294  0.00  0.00    -0.218 OA
BRANCH  10  12
ATOM     12  C   UNL     1     -12.673  14.354  72.789  0.00  0.00    +0.037 C 
BRANCH  12  13
ATOM     13  C   UNL     1     -13.777  13.551  72.270  0.00  0.00    +0.003 C 
BRANCH  13  14
ATOM     14  C   UNL     1     -13.351  12.148  71.996  0.00  0.00    +0.000 C 
BRANCH  14  16
ATOM     15  C   UNL     1     -12.036  10.880  70.548  0.00  0.00    +0.000 C 
ATOM     16  C   UNL     1     -12.419  12.031  70.802  0.00  0.00    +0.000 C 
ENDBRANCH  14  16
ENDBRANCH  13  14
ENDBRANCH  12  13
ENDBRANCH  10  12
ENDBRANCH   8  10
ENDBRANCH   1   9
BRANCH   2  17
ATOM     17  C   UNL     1     -11.282  14.234  66.929  0.00  0.00    +0.033 C 
BRANCH  17  18
ATOM     18  C   UNL     1     -11.775  12.881  66.769  0.00  0.00    -0.030 C 
ATOM     19  C   UNL     1     -12.293  12.554  65.576  0.00  0.00    -0.031 C 
BRANCH  19  20
ATOM     20  C   UNL     1     -11.516  12.982  64.394  0.00  0.00    +0.026 C 
BRANCH  20  21
ATOM     21  C   UNL     1     -11.341  11.884  63.370  0.00  0.00    +0.016 C 
BRANCH  21  22
ATOM     22  C   UNL     1      -9.900  11.531  63.167  0.00  0.00    +0.114 C 
BRANCH  22  23
ATOM     23  C   UNL     1      -9.540  10.188  63.692  0.00  0.00    +0.365 C 
ATOM     24  O   UNL     1      -8.970   9.192  62.890  0.00  0.00    -0.246 OA
ATOM     25  O   UNL     1     -10.040   9.865  64.812  0.00  0.00    -0.246 OA
ENDBRANCH  22  23
ENDBRANCH  21  22
ENDBRANCH  20  21
ENDBRANCH  19  20
ENDBRANCH  17  18
ENDBRANCH   2  17
TORSDOF 12
ENDMDL
MODEL 5
REMARK VINA RESULT:      -5.8      1.451      2.199
REMARK  Name = 
REMARK  12 active torsions:
REMARK  status: ('A' for Active; 'I' for Inactive)
REMARK    1  A    between atoms: C_2  and  C_3
REMARK    2  A    between atoms: C_3  and  C_4
REMARK    3  A    between atoms: C_4  and  C_5
REMARK    4  A    between atoms: C_5  and  C_6
REMARK    5  A    between atoms: C_6  and  C_8
REMARK    6  A    between atoms: C_9  and  C_10
REMARK    7  A    between atoms: C_16  and  C_17
REMARK    8  A    between atoms: C_17  and  C_18
REMARK    9  A    between atoms: C_19  and  C_20
REMARK   10  A    between atoms: C_20  and  C_21
REMARK   11  A    between atoms: C_21  and  C_22
REMARK   12  A    between atoms: C_22  and  C_23
REMARK                            x       y       z     vdW  Elec       q    Type
REMARK                         _______ _______ _______ _____ _____    ______ ____
ROOT
ATOM      1  C   UNL     1     -11.576  14.498  66.015  0.00  0.00    +0.060 C 
ATOM      2  C   UNL     1     -10.564  13.344  66.764  0.00  0.00    +0.068 C 
ATOM      3  C   UNL     1     -10.673  12.252  65.578  0.00  0.00    +0.154 C 
ATOM      4  O   UNL     1      -9.639  11.644  65.423  0.00  0.00    -0.296 OA
ATOM      5  C   UNL     1     -11.924  12.416  64.917  0.00  0.00    +0.098 C 
ATOM      6  C   UNL     1     -11.271  13.882  64.439  0.00  0.00    +0.164 C 
ATOM      7  O   UNL     1     -12.656  14.356  63.963  0.00  0.00    -0.222 OA
ENDROOT
BRANCH   1   9
ATOM      8  C   UNL     1     -10.587  16.585  66.661  0.00  0.00    +0.002 C 
ATOM      9  C   UNL     1     -10.382  15.542  65.884  0.00  0.00    -0.026 C 
BRANCH   8  10
ATOM     10  C   UNL     1      -9.785  17.944  66.138  0.00  0.00    +0.174 C 
ATOM     11  O   UNL     1     -10.875  18.218  65.060  0.00  0.00    -0.218 OA
BRANCH  10  12
ATOM     12  C   UNL     1     -10.525  18.873  67.335  0.00  0.00    +0.037 C 
BRANCH  12  13
ATOM     13  C   UNL     1      -9.829  18.659  68.600  0.00  0.00    +0.003 C 
BRANCH  13  14
ATOM     14  C   UNL     1      -8.493  19.324  68.608  0.00  0.00    +0.000 C 
BRANCH  14  16
ATOM     15  C   UNL     1      -6.267  18.726  68.260  0.00  0.00    +0.000 C 
ATOM     16  C   UNL     1      -7.341  18.343  68.745  0.00  0.00    +0.000 C 
ENDBRANCH  14  16
ENDBRANCH  13  14
ENDBRANCH  12  13
ENDBRANCH  10  12
ENDBRANCH   8  10
ENDBRANCH   1   9
BRANCH   2  17
ATOM     17  C   UNL     1     -11.784  12.590  67.588  0.00  0.00    +0.033 C 
BRANCH  17  18
ATOM     18  C   UNL     1     -11.372  12.380  68.961  0.00  0.00    -0.030 C 
ATOM     19  C   UNL     1     -11.318  13.457  69.756  0.00  0.00    -0.031 C 
BRANCH  19  20
ATOM     20  C   UNL     1     -12.473  14.376  69.680  0.00  0.00    +0.026 C 
BRANCH  20  21
ATOM     21  C   UNL     1     -12.148  15.776  70.151  0.00  0.00    +0.016 C 
BRANCH  21  22
ATOM     22  C   UNL     1     -11.863  15.822  71.620  0.00  0.00    +0.114 C 
BRANCH  22  23
ATOM     23  C   UNL     1     -13.032  15.455  72.461  0.00  0.00    +0.365 C 
ATOM     24  O   UNL     1     -14.334  15.880  72.171  0.00  0.00    -0.246 OA
ATOM     25  O   UNL     1     -12.777  14.997  73.617  0.00  0.00    -0.246 OA
ENDBRANCH  22  23
ENDBRANCH  21  22
ENDBRANCH  20  21
ENDBRANCH  19  20
ENDBRANCH  17  18
ENDBRANCH   2  17
TORSDOF 12
ENDMDL
MODEL 6
REMARK VINA RESULT:      -5.8      2.978      4.997
REMARK  Name = 
REMARK  12 active torsions:
REMARK  status: ('A' for Active; 'I' for Inactive)
REMARK    1  A    between atoms: C_2  and  C_3
REMARK    2  A    between atoms: C_3  and  C_4
REMARK    3  A    between atoms: C_4  and  C_5
REMARK    4  A    between atoms: C_5  and  C_6
REMARK    5  A    between atoms: C_6  and  C_8
REMARK    6  A    between atoms: C_9  and  C_10
REMARK    7  A    between atoms: C_16  and  C_17
REMARK    8  A    between atoms: C_17  and  C_18
REMARK    9  A    between atoms: C_19  and  C_20
REMARK   10  A    between atoms: C_20  and  C_21
REMARK   11  A    between atoms: C_21  and  C_22
REMARK   12  A    between atoms: C_22  and  C_23
REMARK                            x       y       z     vdW  Elec       q    Type
REMARK                         _______ _______ _______ _____ _____    ______ ____
ROOT
ATOM      1  C   UNL     1     -11.681  13.140  66.587  0.00  0.00    +0.060 C 
ATOM      2  C   UNL     1     -10.352  12.344  65.868  0.00  0.00    +0.068 C 
ATOM      3  C   UNL     1     -10.880  12.507  64.349  0.00  0.00    +0.154 C 
ATOM      4  O   UNL     1      -9.972  12.679  63.568  0.00  0.00    -0.296 OA
ATOM      5  C   UNL     1     -12.302  12.570  64.362  0.00  0.00    +0.098 C 
ATOM      6  C   UNL     1     -12.048  14.021  65.158  0.00  0.00    +0.164 C 
ATOM      7  O   UNL     1     -13.536  14.080  65.551  0.00  0.00    -0.222 OA
ENDROOT
BRANCH   1   9
ATOM      8  C   UNL     1     -10.737  14.329  68.443  0.00  0.00    +0.002 C 
ATOM      9  C   UNL     1     -10.756  14.317  67.126  0.00  0.00    -0.026 C 
BRANCH   8  10
ATOM     10  C   UNL     1     -10.358  15.824  69.066  0.00  0.00    +0.174 C 
ATOM     11  O   UNL     1     -11.660  16.441  68.475  0.00  0.00    -0.218 OA
BRANCH  10  12
ATOM     12  C   UNL     1     -11.051  15.410  70.547  0.00  0.00    +0.037 C 
BRANCH  12  13
ATOM     13  C   UNL     1     -12.473  15.742  70.515  0.00  0.00    +0.003 C 
BRANCH  13  14
ATOM     14  C   UNL     1     -13.117  15.513  71.841  0.00  0.00    +0.000 C 
BRANCH  14  16
ATOM     15  C   UNL     1     -13.781  13.350  72.401  0.00  0.00    +0.000 C 
ATOM     16  C   UNL     1     -14.136  14.386  71.821  0.00  0.00    +0.000 C 
ENDBRANCH  14  16
ENDBRANCH  13  14
ENDBRANCH  12  13
ENDBRANCH  10  12
ENDBRANCH   8  10
ENDBRANCH   1   9
BRANCH   2  17
ATOM     17  C   UNL     1     -11.021  10.834  65.952  0.00  0.00    +0.033 C 
BRANCH  17  18
ATOM     18  C   UNL     1      -9.968   9.858  66.150  0.00  0.00    -0.030 C 
ATOM     19  C   UNL     1      -9.540   9.665  67.405  0.00  0.00    -0.031 C 
BRANCH  19  20
ATOM     20  C   UNL     1     -10.592   9.531  68.434  0.00  0.00    +0.026 C 
BRANCH  20  21
ATOM     21  C   UNL     1     -10.452  10.533  69.559  0.00  0.00    +0.016 C 
BRANCH  21  22
ATOM     22  C   UNL     1     -11.772  10.859  70.186  0.00  0.00    +0.114 C 
BRANCH  22  23
ATOM     23  C   UNL     1     -12.203   9.868  71.206  0.00  0.00    +0.365 C 
ATOM     24  O   UNL     1     -13.514   9.810  71.694  0.00  0.00    -0.246 OA
ATOM     25  O   UNL     1     -11.281   9.274  71.844  0.00  0.00    -0.246 OA
ENDBRANCH  22  23
ENDBRANCH  21  22
ENDBRANCH  20  21
ENDBRANCH  19  20
ENDBRANCH  17  18
ENDBRANCH   2  17
TORSDOF 12
ENDMDL
MODEL 7
REMARK VINA RESULT:      -5.7      2.118      2.725
REMARK  Name = 
REMARK  12 active torsions:
REMARK  status: ('A' for Active; 'I' for Inactive)
REMARK    1  A    between atoms: C_2  and  C_3
REMARK    2  A    between atoms: C_3  and  C_4
REMARK    3  A    between atoms: C_4  and  C_5
REMARK    4  A    between atoms: C_5  and  C_6
REMARK    5  A    between atoms: C_6  and  C_8
REMARK    6  A    between atoms: C_9  and  C_10
REMARK    7  A    between atoms: C_16  and  C_17
REMARK    8  A    between atoms: C_17  and  C_18
REMARK    9  A    between atoms: C_19  and  C_20
REMARK   10  A    between atoms: C_20  and  C_21
REMARK   11  A    between atoms: C_21  and  C_22
REMARK   12  A    between atoms: C_22  and  C_23
REMARK                            x       y       z     vdW  Elec       q    Type
REMARK                         _______ _______ _______ _____ _____    ______ ____
ROOT
ATOM      1  C   UNL     1     -10.455  15.824  66.351  0.00  0.00    +0.060 C 
ATOM      2  C   UNL     1     -10.378  14.229  66.958  0.00  0.00    +0.068 C 
ATOM      3  C   UNL     1     -11.137  13.551  65.702  0.00  0.00    +0.154 C 
ATOM      4  O   UNL     1     -10.701  12.451  65.448  0.00  0.00    -0.296 OA
ATOM      5  C   UNL     1     -12.015  14.511  65.124  0.00  0.00    +0.098 C 
ATOM      6  C   UNL     1     -10.593  15.298  64.720  0.00  0.00    +0.164 C 
ATOM      7  O   UNL     1     -11.384  16.566  64.355  0.00  0.00    -0.222 OA
ENDROOT
BRANCH   1   9
ATOM      8  C   UNL     1      -8.377  16.699  67.168  0.00  0.00    +0.002 C 
ATOM      9  C   UNL     1      -8.871  15.915  66.232  0.00  0.00    -0.026 C 
BRANCH   8  10
ATOM     10  C   UNL     1      -6.902  17.343  66.754  0.00  0.00    +0.174 C 
ATOM     11  O   UNL     1      -7.488  17.935  65.438  0.00  0.00    -0.218 OA
BRANCH  10  12
ATOM     12  C   UNL     1      -7.213  18.717  67.683  0.00  0.00    +0.037 C 
BRANCH  12  13
ATOM     13  C   UNL     1      -8.034  19.640  66.905  0.00  0.00    +0.003 C 
BRANCH  13  14
ATOM     14  C   UNL     1      -9.200  20.133  67.695  0.00  0.00    +0.000 C 
BRANCH  14  16
ATOM     15  C   UNL     1     -10.574  19.626  65.881  0.00  0.00    +0.000 C 
ATOM     16  C   UNL     1     -10.537  19.699  67.118  0.00  0.00    +0.000 C 
ENDBRANCH  14  16
ENDBRANCH  13  14
ENDBRANCH  12  13
ENDBRANCH  10  12
ENDBRANCH   8  10
ENDBRANCH   1   9
BRANCH   2  17
ATOM     17  C   UNL     1     -11.805  14.318  67.788  0.00  0.00    +0.033 C 
BRANCH  17  18
ATOM     18  C   UNL     1     -11.532  14.263  69.211  0.00  0.00    -0.030 C 
ATOM     19  C   UNL     1     -11.998  13.201  69.883  0.00  0.00    -0.031 C 
BRANCH  19  20
ATOM     20  C   UNL     1     -11.781  11.886  69.247  0.00  0.00    +0.026 C 
BRANCH  20  21
ATOM     21  C   UNL     1     -11.645  10.759  70.246  0.00  0.00    +0.016 C 
BRANCH  21  22
ATOM     22  C   UNL     1     -12.818  10.688  71.173  0.00  0.00    +0.114 C 
BRANCH  22  23
ATOM     23  C   UNL     1     -12.944   9.381  71.870  0.00  0.00    +0.365 C 
ATOM     24  O   UNL     1     -14.122   8.977  72.510  0.00  0.00    -0.246 OA
ATOM     25  O   UNL     1     -11.862   8.771  72.128  0.00  0.00    -0.246 OA
ENDBRANCH  22  23
ENDBRANCH  21  22
ENDBRANCH  20  21
ENDBRANCH  19  20
ENDBRANCH  17  18
ENDBRANCH   2  17
TORSDOF 12
ENDMDL
MODEL 8
REMARK VINA RESULT:      -5.7      1.639      2.601
REMARK  Name = 
REMARK  12 active torsions:
REMARK  status: ('A' for Active; 'I' for Inactive)
REMARK    1  A    between atoms: C_2  and  C_3
REMARK    2  A    between atoms: C_3  and  C_4
REMARK    3  A    between atoms: C_4  and  C_5
REMARK    4  A    between atoms: C_5  and  C_6
REMARK    5  A    between atoms: C_6  and  C_8
REMARK    6  A    between atoms: C_9  and  C_10
REMARK    7  A    between atoms: C_16  and  C_17
REMARK    8  A    between atoms: C_17  and  C_18
REMARK    9  A    between atoms: C_19  and  C_20
REMARK   10  A    between atoms: C_20  and  C_21
REMARK   11  A    between atoms: C_21  and  C_22
REMARK   12  A    between atoms: C_22  and  C_23
REMARK                            x       y       z     vdW  Elec       q    Type
REMARK                         _______ _______ _______ _____ _____    ______ ____
ROOT
ATOM      1  C   UNL     1     -11.648  14.692  66.128  0.00  0.00    +0.060 C 
ATOM      2  C   UNL     1     -10.680  13.437  66.765  0.00  0.00    +0.068 C 
ATOM      3  C   UNL     1     -10.754  12.503  65.448  0.00  0.00    +0.154 C 
ATOM      4  O   UNL     1      -9.721  11.902  65.259  0.00  0.00    -0.296 OA
ATOM      5  C   UNL     1     -11.976  12.768  64.766  0.00  0.00    +0.098 C 
ATOM      6  C   UNL     1     -11.287  14.272  64.500  0.00  0.00    +0.164 C 
ATOM      7  O   UNL     1     -12.647  14.824  64.034  0.00  0.00    -0.222 OA
ENDROOT
BRANCH   1   9
ATOM      8  C   UNL     1     -10.584  16.570  67.173  0.00  0.00    +0.002 C 
ATOM      9  C   UNL     1     -10.437  15.724  66.174  0.00  0.00    -0.026 C 
BRANCH   8  10
ATOM     10  C   UNL     1      -9.775  18.001  66.926  0.00  0.00    +0.174 C 
ATOM     11  O   UNL     1     -10.957  18.817  67.528  0.00  0.00    -0.218 OA
BRANCH  10  12
ATOM     12  C   UNL     1      -8.960  17.822  68.392  0.00  0.00    +0.037 C 
BRANCH  12  13
ATOM     13  C   UNL     1      -7.675  17.175  68.145  0.00  0.00    +0.003 C 
BRANCH  13  14
ATOM     14  C   UNL     1      -7.356  16.171  69.202  0.00  0.00    +0.000 C 
BRANCH  14  16
ATOM     15  C   UNL     1      -7.355  14.253  67.877  0.00  0.00    +0.000 C 
ATOM     16  C   UNL     1      -7.870  14.779  68.874  0.00  0.00    +0.000 C 
ENDBRANCH  14  16
ENDBRANCH  13  14
ENDBRANCH  12  13
ENDBRANCH  10  12
ENDBRANCH   8  10
ENDBRANCH   1   9
BRANCH   2  17
ATOM     17  C   UNL     1     -11.940  12.607  67.441  0.00  0.00    +0.033 C 
BRANCH  17  18
ATOM     18  C   UNL     1     -11.500  12.000  68.681  0.00  0.00    -0.030 C 
ATOM     19  C   UNL     1     -11.322  12.813  69.731  0.00  0.00    -0.031 C 
BRANCH  19  20
ATOM     20  C   UNL     1     -12.393  13.803  69.972  0.00  0.00    +0.026 C 
BRANCH  20  21
ATOM     21  C   UNL     1     -11.866  15.200  70.210  0.00  0.00    +0.016 C 
BRANCH  21  22
ATOM     22  C   UNL     1     -12.302  15.746  71.535  0.00  0.00    +0.114 C 
BRANCH  22  23
ATOM     23  C   UNL     1     -13.589  15.177  72.014  0.00  0.00    +0.365 C 
ATOM     24  O   UNL     1     -14.832  15.634  71.560  0.00  0.00    -0.246 OA
ATOM     25  O   UNL     1     -13.539  14.475  73.069  0.00  0.00    -0.246 OA
ENDBRANCH  22  23
ENDBRANCH  21  22
ENDBRANCH  20  21
ENDBRANCH  19  20
ENDBRANCH  17  18
ENDBRANCH   2  17
TORSDOF 12
ENDMDL
MODEL 9
REMARK VINA RESULT:      -5.6      3.307      7.229
REMARK  Name = 
REMARK  12 active torsions:
REMARK  status: ('A' for Active; 'I' for Inactive)
REMARK    1  A    between atoms: C_2  and  C_3
REMARK    2  A    between atoms: C_3  and  C_4
REMARK    3  A    between atoms: C_4  and  C_5
REMARK    4  A    between atoms: C_5  and  C_6
REMARK    5  A    between atoms: C_6  and  C_8
REMARK    6  A    between atoms: C_9  and  C_10
REMARK    7  A    between atoms: C_16  and  C_17
REMARK    8  A    between atoms: C_17  and  C_18
REMARK    9  A    between atoms: C_19  and  C_20
REMARK   10  A    between atoms: C_20  and  C_21
REMARK   11  A    between atoms: C_21  and  C_22
REMARK   12  A    between atoms: C_22  and  C_23
REMARK                            x       y       z     vdW  Elec       q    Type
REMARK                         _______ _______ _______ _____ _____    ______ ____
ROOT
ATOM      1  C   UNL     1      -9.398  16.640  67.257  0.00  0.00    +0.060 C 
ATOM      2  C   UNL     1      -8.713  17.400  68.625  0.00  0.00    +0.068 C 
ATOM      3  C   UNL     1      -9.090  18.904  68.168  0.00  0.00    +0.154 C 
ATOM      4  O   UNL     1      -9.371  19.608  69.111  0.00  0.00    -0.296 OA
ATOM      5  C   UNL     1      -9.148  18.950  66.747  0.00  0.00    +0.098 C 
ATOM      6  C   UNL     1     -10.472  17.946  66.951  0.00  0.00    +0.164 C 
ATOM      7  O   UNL     1     -10.473  17.620  65.446  0.00  0.00    -0.222 OA
ENDROOT
BRANCH   1   9
ATOM      8  C   UNL     1     -10.454  14.596  67.935  0.00  0.00    +0.002 C 
ATOM      9  C   UNL     1     -10.487  15.896  68.147  0.00  0.00    -0.026 C 
BRANCH   8  10
ATOM     10  C   UNL     1     -11.896  13.850  68.293  0.00  0.00    +0.174 C 
ATOM     11  O   UNL     1     -11.166  12.754  69.124  0.00  0.00    -0.218 OA
BRANCH  10  12
ATOM     12  C   UNL     1     -12.137  14.889  69.600  0.00  0.00    +0.037 C 
BRANCH  12  13
ATOM     13  C   UNL     1     -12.240  14.097  70.823  0.00  0.00    +0.003 C 
BRANCH  13  14
ATOM     14  C   UNL     1     -13.016  14.815  71.875  0.00  0.00    +0.000 C 
BRANCH  14  16
ATOM     15  C   UNL     1     -12.495  15.299  74.095  0.00  0.00    +0.000 C 
ATOM     16  C   UNL     1     -12.132  15.471  72.923  0.00  0.00    +0.000 C 
ENDBRANCH  14  16
ENDBRANCH  13  14
ENDBRANCH  12  13
ENDBRANCH  10  12
ENDBRANCH   8  10
ENDBRANCH   1   9
BRANCH   2  17
ATOM     17  C   UNL     1      -7.206  17.563  67.965  0.00  0.00    +0.033 C 
BRANCH  17  18
ATOM     18  C   UNL     1      -6.225  17.631  69.030  0.00  0.00    -0.030 C 
ATOM     19  C   UNL     1      -5.205  18.485  68.871  0.00  0.00    -0.031 C 
BRANCH  19  20
ATOM     20  C   UNL     1      -5.561  19.835  68.387  0.00  0.00    +0.026 C 
BRANCH  20  21
ATOM     21  C   UNL     1      -5.554  20.879  69.481  0.00  0.00    +0.016 C 
BRANCH  21  22
ATOM     22  C   UNL     1      -4.233  20.948  70.181  0.00  0.00    +0.114 C 
BRANCH  22  23
ATOM     23  C   UNL     1      -4.350  21.026  71.661  0.00  0.00    +0.365 C 
ATOM     24  O   UNL     1      -4.364  22.242  72.354  0.00  0.00    -0.246 OA
ATOM     25  O   UNL     1      -4.133  19.953  72.303  0.00  0.00    -0.246 OA
ENDBRANCH  22  23
ENDBRANCH  21  22
ENDBRANCH  20  21
ENDBRANCH  19  20
ENDBRANCH  17  18
ENDBRANCH   2  17
TORSDOF 12
ENDMDL
