MODEL 1
REMARK VINA RESULT:      -7.2      0.000      0.000
REMARK  Name = 
REMARK  13 active torsions:
REMARK  status: ('A' for Active; 'I' for Inactive)
REMARK    1  A    between atoms: C_3  and  C_4
REMARK    2  A    between atoms: C_4  and  C_5
REMARK    3  A    between atoms: C_5  and  C_7
REMARK    4  A    between atoms: C_7  and  C_9
REMARK    5  A    between atoms: C_10  and  C_11
REMARK    6  A    between atoms: C_15  and  C_16
REMARK    7  A    between atoms: C_16  and  C_17
REMARK    8  A    between atoms: C_17  and  C_18
REMARK    9  A    between atoms: C_18  and  C_19
REMARK   10  A    between atoms: C_19  and  O_21
REMARK   11  A    between atoms: O_21  and  C_22
REMARK   12  A    between atoms: C_22  and  C_23
REMARK   13  A    between atoms: C_23  and  C_25
REMARK                            x       y       z     vdW  Elec       q    Type
REMARK                         _______ _______ _______ _____ _____    ______ ____
ROOT
ATOM      1  C   UNL     1      -9.663   7.657  70.709  0.00  0.00    +0.052 C 
ATOM      2  C   UNL     1      -9.988   6.042  71.157  0.00  0.00    +0.156 C 
ATOM      3  O   UNL     1      -9.351   6.303  72.511  0.00  0.00    -0.223 OA
ATOM      4  C   UNL     1     -11.487   6.280  71.783  0.00  0.00    +0.034 C 
ATOM      5  C   UNL     1     -11.276   7.804  72.256  0.00  0.00    +0.007 C 
ATOM      6  C   UNL     1     -12.831   8.280  72.198  0.00  0.00    +0.022 C 
ATOM      7  C   UNL     1     -12.419   9.660  71.747  0.00  0.00    -0.048 C 
ATOM      8  C   UNL     1     -13.331  10.623  71.550  0.00  0.00    -0.035 C 
ATOM      9  C   UNL     1     -11.134   9.633  70.960  0.00  0.00    +0.022 C 
ATOM     10  C   UNL     1     -11.273   8.077  70.586  0.00  0.00    +0.011 C 
ENDROOT
BRANCH   1  12
ATOM     11  C   UNL     1      -8.813   8.071  68.368  0.00  0.00    +0.002 C 
ATOM     12  C   UNL     1      -9.521   7.313  69.167  0.00  0.00    -0.026 C 
BRANCH  11  13
ATOM     13  C   UNL     1      -9.246   7.934  66.818  0.00  0.00    +0.175 C 
ATOM     14  O   UNL     1     -10.723   8.036  67.165  0.00  0.00    -0.218 OA
BRANCH  13  15
ATOM     15  C   UNL     1      -9.200   9.606  66.422  0.00  0.00    +0.048 C 
ATOM     16  C   UNL     1      -7.594   9.807  66.420  0.00  0.00    +0.004 C 
BRANCH  15  17
ATOM     17  C   UNL     1      -9.197   9.228  64.848  0.00  0.00    +0.079 C 
BRANCH  17  20
ATOM     18  C   UNL     1     -11.787  11.939  63.371  0.00  0.00    +0.090 C 
ATOM     19  C   UNL     1     -10.593  11.179  63.774  0.00  0.00    -0.090 C 
ATOM     20  C   UNL     1      -9.867  10.294  64.122  0.00  0.00    -0.091 C 
ENDBRANCH  17  20
ENDBRANCH  15  17
ENDBRANCH  13  15
ENDBRANCH  11  13
ENDBRANCH   1  12
BRANCH   8  21
ATOM     21  C   UNL     1     -12.694  11.980  71.462  0.00  0.00    +0.026 C 
BRANCH  21  22
ATOM     22  C   UNL     1     -13.662  12.916  72.178  0.00  0.00    +0.016 C 
BRANCH  22  23
ATOM     23  C   UNL     1     -12.981  14.236  72.436  0.00  0.00    +0.110 C 
BRANCH  23  24
ATOM     24  C   UNL     1     -13.624  15.276  71.592  0.00  0.00    +0.317 C 
ATOM     25  O   UNL     1     -14.815  15.627  71.834  0.00  0.00    -0.250 OA
BRANCH  24  26
ATOM     26  O   UNL     1     -12.945  16.085  70.705  0.00  0.00    -0.440 OA
BRANCH  26  27
ATOM     27  C   UNL     1     -11.520  16.070  70.650  0.00  0.00    +0.277 C 
BRANCH  27  28
ATOM     28  C   UNL     1     -11.099  15.895  69.226  0.00  0.00    +0.217 C 
ATOM     29  O   UNL     1     -11.229  16.923  68.495  0.00  0.00    -0.287 OA
BRANCH  28  30
ATOM     30  C   UNL     1     -11.378  14.601  68.567  0.00  0.00    +0.038 A 
ATOM     31  C   UNL     1     -10.811  13.421  68.981  0.00  0.00    +0.003 A 
ATOM     32  C   UNL     1     -10.827  12.243  68.275  0.00  0.00    +0.000 A 
ATOM     33  C   UNL     1     -11.555  12.271  67.083  0.00  0.00    +0.000 A 
ATOM     34  C   UNL     1     -12.073  13.479  66.629  0.00  0.00    +0.000 A 
ATOM     35  C   UNL     1     -11.930  14.674  67.321  0.00  0.00    +0.003 A 
ENDBRANCH  28  30
ENDBRANCH  27  28
ENDBRANCH  26  27
ENDBRANCH  24  26
ENDBRANCH  23  24
ENDBRANCH  22  23
ENDBRANCH  21  22
ENDBRANCH   8  21
TORSDOF 13
ENDMDL
MODEL 2
REMARK VINA RESULT:      -7.0      2.139      5.979
REMARK  Name = 
REMARK  13 active torsions:
REMARK  status: ('A' for Active; 'I' for Inactive)
REMARK    1  A    between atoms: C_3  and  C_4
REMARK    2  A    between atoms: C_4  and  C_5
REMARK    3  A    between atoms: C_5  and  C_7
REMARK    4  A    between atoms: C_7  and  C_9
REMARK    5  A    between atoms: C_10  and  C_11
REMARK    6  A    between atoms: C_15  and  C_16
REMARK    7  A    between atoms: C_16  and  C_17
REMARK    8  A    between atoms: C_17  and  C_18
REMARK    9  A    between atoms: C_18  and  C_19
REMARK   10  A    between atoms: C_19  and  O_21
REMARK   11  A    between atoms: O_21  and  C_22
REMARK   12  A    between atoms: C_22  and  C_23
REMARK   13  A    between atoms: C_23  and  C_25
REMARK                            x       y       z     vdW  Elec       q    Type
REMARK                         _______ _______ _______ _____ _____    ______ ____
ROOT
ATOM      1  C   UNL     1     -10.531   6.035  68.460  0.00  0.00    +0.052 C 
ATOM      2  C   UNL     1      -9.317   4.916  68.897  0.00  0.00    +0.156 C 
ATOM      3  O   UNL     1      -9.752   4.018  67.752  0.00  0.00    -0.223 OA
ATOM      4  C   UNL     1      -8.100   5.538  67.988  0.00  0.00    +0.034 C 
ATOM      5  C   UNL     1      -9.012   6.163  66.818  0.00  0.00    +0.007 C 
ATOM      6  C   UNL     1      -7.994   7.337  66.335  0.00  0.00    +0.022 C 
ATOM      7  C   UNL     1      -9.153   8.259  66.043  0.00  0.00    -0.048 C 
ATOM      8  C   UNL     1      -8.951   9.480  65.528  0.00  0.00    -0.035 C 
ATOM      9  C   UNL     1     -10.334   7.975  66.934  0.00  0.00    +0.022 C 
ATOM     10  C   UNL     1      -9.448   7.236  68.051  0.00  0.00    +0.011 C 
ENDROOT
BRANCH   1  12
ATOM     11  C   UNL     1     -11.919   6.649  70.476  0.00  0.00    +0.002 C 
ATOM     12  C   UNL     1     -10.727   6.564  69.943  0.00  0.00    -0.026 C 
BRANCH  11  13
ATOM     13  C   UNL     1     -11.994   7.712  71.691  0.00  0.00    +0.175 C 
ATOM     14  O   UNL     1     -10.888   8.561  71.086  0.00  0.00    -0.218 OA
BRANCH  13  15
ATOM     15  C   UNL     1     -13.190   8.745  71.013  0.00  0.00    +0.048 C 
ATOM     16  C   UNL     1     -14.491   8.111  71.738  0.00  0.00    +0.004 C 
BRANCH  15  17
ATOM     17  C   UNL     1     -12.969   9.790  72.229  0.00  0.00    +0.079 C 
BRANCH  17  20
ATOM     18  C   UNL     1     -12.482  13.643  71.156  0.00  0.00    +0.090 C 
ATOM     19  C   UNL     1     -12.901  12.237  71.274  0.00  0.00    -0.090 C 
ATOM     20  C   UNL     1     -13.099  11.138  71.701  0.00  0.00    -0.091 C 
ENDBRANCH  17  20
ENDBRANCH  15  17
ENDBRANCH  13  15
ENDBRANCH  11  13
ENDBRANCH   1  12
BRANCH   8  21
ATOM     21  C   UNL     1     -10.221  10.070  64.987  0.00  0.00    +0.026 C 
BRANCH  21  22
ATOM     22  C   UNL     1      -9.852  11.493  64.582  0.00  0.00    +0.016 C 
BRANCH  22  23
ATOM     23  C   UNL     1     -10.572  11.852  63.307  0.00  0.00    +0.110 C 
BRANCH  23  24
ATOM     24  C   UNL     1     -11.821  12.580  63.653  0.00  0.00    +0.317 C 
ATOM     25  O   UNL     1     -12.937  12.001  63.518  0.00  0.00    -0.250 OA
BRANCH  24  26
ATOM     26  O   UNL     1     -11.858  13.768  64.352  0.00  0.00    -0.440 OA
BRANCH  26  27
ATOM     27  C   UNL     1     -12.624  13.884  65.549  0.00  0.00    +0.277 C 
BRANCH  27  28
ATOM     28  C   UNL     1     -11.713  14.300  66.660  0.00  0.00    +0.217 C 
ATOM     29  O   UNL     1     -10.960  15.285  66.398  0.00  0.00    -0.287 OA
BRANCH  28  30
ATOM     30  C   UNL     1     -11.118  13.247  67.510  0.00  0.00    +0.038 A 
ATOM     31  C   UNL     1      -9.775  13.194  67.791  0.00  0.00    +0.003 A 
ATOM     32  C   UNL     1      -9.125  12.124  68.355  0.00  0.00    +0.000 A 
ATOM     33  C   UNL     1      -9.945  11.055  68.728  0.00  0.00    +0.000 A 
ATOM     34  C   UNL     1     -11.292  11.078  68.384  0.00  0.00    +0.000 A 
ATOM     35  C   UNL     1     -11.884  12.135  67.705  0.00  0.00    +0.003 A 
ENDBRANCH  28  30
ENDBRANCH  27  28
ENDBRANCH  26  27
ENDBRANCH  24  26
ENDBRANCH  23  24
ENDBRANCH  22  23
ENDBRANCH  21  22
ENDBRANCH   8  21
TORSDOF 13
ENDMDL
MODEL 3
REMARK VINA RESULT:      -6.9      3.928      7.779
REMARK  Name = 
REMARK  13 active torsions:
REMARK  status: ('A' for Active; 'I' for Inactive)
REMARK    1  A    between atoms: C_3  and  C_4
REMARK    2  A    between atoms: C_4  and  C_5
REMARK    3  A    between atoms: C_5  and  C_7
REMARK    4  A    between atoms: C_7  and  C_9
REMARK    5  A    between atoms: C_10  and  C_11
REMARK    6  A    between atoms: C_15  and  C_16
REMARK    7  A    between atoms: C_16  and  C_17
REMARK    8  A    between atoms: C_17  and  C_18
REMARK    9  A    between atoms: C_18  and  C_19
REMARK   10  A    between atoms: C_19  and  O_21
REMARK   11  A    between atoms: O_21  and  C_22
REMARK   12  A    between atoms: C_22  and  C_23
REMARK   13  A    between atoms: C_23  and  C_25
REMARK                            x       y       z     vdW  Elec       q    Type
REMARK                         _______ _______ _______ _____ _____    ______ ____
ROOT
ATOM      1  C   UNL     1     -11.870  13.304  67.119  0.00  0.00    +0.052 C 
ATOM      2  C   UNL     1     -12.267  13.003  65.485  0.00  0.00    +0.156 C 
ATOM      3  O   UNL     1     -13.140  14.246  65.482  0.00  0.00    -0.223 OA
ATOM      4  C   UNL     1     -11.029  13.833  64.797  0.00  0.00    +0.034 C 
ATOM      5  C   UNL     1     -10.830  14.921  65.968  0.00  0.00    +0.007 C 
ATOM      6  C   UNL     1      -9.262  15.261  65.701  0.00  0.00    +0.022 C 
ATOM      7  C   UNL     1      -9.023  15.442  67.181  0.00  0.00    -0.048 C 
ATOM      8  C   UNL     1      -7.820  15.808  67.645  0.00  0.00    -0.035 C 
ATOM      9  C   UNL     1      -9.950  14.589  68.007  0.00  0.00    +0.022 C 
ATOM     10  C   UNL     1     -10.254  13.568  66.805  0.00  0.00    +0.011 C 
ENDROOT
BRANCH   1  12
ATOM     11  C   UNL     1     -11.759  11.335  68.694  0.00  0.00    +0.002 C 
ATOM     12  C   UNL     1     -11.667  11.769  67.463  0.00  0.00    -0.026 C 
BRANCH  11  13
ATOM     13  C   UNL     1     -10.971   9.946  68.937  0.00  0.00    +0.175 C 
ATOM     14  O   UNL     1      -9.620  10.640  68.875  0.00  0.00    -0.218 OA
BRANCH  13  15
ATOM     15  C   UNL     1     -10.946   9.997  70.655  0.00  0.00    +0.048 C 
ATOM     16  C   UNL     1     -12.509   9.671  70.926  0.00  0.00    +0.004 C 
BRANCH  15  17
ATOM     17  C   UNL     1     -10.569   8.424  70.691  0.00  0.00    +0.079 C 
BRANCH  17  20
ATOM     18  C   UNL     1     -10.114   6.553  74.231  0.00  0.00    +0.090 C 
ATOM     19  C   UNL     1     -10.418   7.502  73.147  0.00  0.00    -0.090 C 
ATOM     20  C   UNL     1     -10.642   7.969  72.069  0.00  0.00    -0.091 C 
ENDBRANCH  17  20
ENDBRANCH  15  17
ENDBRANCH  13  15
ENDBRANCH  11  13
ENDBRANCH   1  12
BRANCH   8  21
ATOM     21  C   UNL     1      -7.895  16.275  69.070  0.00  0.00    +0.026 C 
BRANCH  21  22
ATOM     22  C   UNL     1      -6.489  16.074  69.626  0.00  0.00    +0.016 C 
BRANCH  22  23
ATOM     23  C   UNL     1      -5.531  16.980  68.896  0.00  0.00    +0.110 C 
BRANCH  23  24
ATOM     24  C   UNL     1      -5.233  18.153  69.759  0.00  0.00    +0.317 C 
ATOM     25  O   UNL     1      -4.898  17.970  70.965  0.00  0.00    -0.250 OA
BRANCH  24  26
ATOM     26  O   UNL     1      -5.049  19.436  69.289  0.00  0.00    -0.440 OA
BRANCH  26  27
ATOM     27  C   UNL     1      -6.132  20.363  69.260  0.00  0.00    +0.277 C 
BRANCH  27  28
ATOM     28  C   UNL     1      -6.709  20.381  67.880  0.00  0.00    +0.217 C 
ATOM     29  O   UNL     1      -6.545  21.464  67.242  0.00  0.00    -0.287 OA
BRANCH  28  30
ATOM     30  C   UNL     1      -7.995  19.690  67.649  0.00  0.00    +0.038 A 
ATOM     31  C   UNL     1      -8.498  19.462  66.391  0.00  0.00    +0.003 A 
ATOM     32  C   UNL     1      -9.780  19.058  66.112  0.00  0.00    +0.000 A 
ATOM     33  C   UNL     1     -10.580  18.795  67.227  0.00  0.00    +0.000 A 
ATOM     34  C   UNL     1     -10.097  19.089  68.497  0.00  0.00    +0.000 A 
ATOM     35  C   UNL     1      -8.831  19.610  68.725  0.00  0.00    +0.003 A 
ENDBRANCH  28  30
ENDBRANCH  27  28
ENDBRANCH  26  27
ENDBRANCH  24  26
ENDBRANCH  23  24
ENDBRANCH  22  23
ENDBRANCH  21  22
ENDBRANCH   8  21
TORSDOF 13
ENDMDL
MODEL 4
REMARK VINA RESULT:      -6.5      2.836      6.019
REMARK  Name = 
REMARK  13 active torsions:
REMARK  status: ('A' for Active; 'I' for Inactive)
REMARK    1  A    between atoms: C_3  and  C_4
REMARK    2  A    between atoms: C_4  and  C_5
REMARK    3  A    between atoms: C_5  and  C_7
REMARK    4  A    between atoms: C_7  and  C_9
REMARK    5  A    between atoms: C_10  and  C_11
REMARK    6  A    between atoms: C_15  and  C_16
REMARK    7  A    between atoms: C_16  and  C_17
REMARK    8  A    between atoms: C_17  and  C_18
REMARK    9  A    between atoms: C_18  and  C_19
REMARK   10  A    between atoms: C_19  and  O_21
REMARK   11  A    between atoms: O_21  and  C_22
REMARK   12  A    between atoms: C_22  and  C_23
REMARK   13  A    between atoms: C_23  and  C_25
REMARK                            x       y       z     vdW  Elec       q    Type
REMARK                         _______ _______ _______ _____ _____    ______ ____
ROOT
ATOM      1  C   UNL     1      -8.307   9.597  66.947  0.00  0.00    +0.052 C 
ATOM      2  C   UNL     1      -7.291   8.447  66.196  0.00  0.00    +0.156 C 
ATOM      3  O   UNL     1      -8.336   7.376  66.454  0.00  0.00    -0.223 OA
ATOM      4  C   UNL     1      -7.828   8.645  64.657  0.00  0.00    +0.034 C 
ATOM      5  C   UNL     1      -9.330   9.100  65.017  0.00  0.00    +0.007 C 
ATOM      6  C   UNL     1      -9.638   9.959  63.671  0.00  0.00    +0.022 C 
ATOM      7  C   UNL     1     -10.467  10.945  64.457  0.00  0.00    -0.048 C 
ATOM      8  C   UNL     1     -11.091  11.963  63.848  0.00  0.00    -0.035 C 
ATOM      9  C   UNL     1      -9.994  11.063  65.883  0.00  0.00    +0.022 C 
ATOM     10  C   UNL     1      -8.530  10.490  65.556  0.00  0.00    +0.011 C 
ENDROOT
BRANCH   1  12
ATOM     11  C   UNL     1      -7.294  11.475  68.296  0.00  0.00    +0.002 C 
ATOM     12  C   UNL     1      -7.098  10.489  67.458  0.00  0.00    -0.026 C 
BRANCH  11  13
ATOM     13  C   UNL     1      -6.129  12.593  68.241  0.00  0.00    +0.175 C 
ATOM     14  O   UNL     1      -5.838  12.295  66.779  0.00  0.00    -0.218 OA
BRANCH  13  15
ATOM     15  C   UNL     1      -7.117  13.927  67.797  0.00  0.00    +0.048 C 
ATOM     16  C   UNL     1      -7.541  14.415  69.281  0.00  0.00    +0.004 C 
BRANCH  15  17
ATOM     17  C   UNL     1      -5.815  14.888  67.806  0.00  0.00    +0.079 C 
BRANCH  17  20
ATOM     18  C   UNL     1      -7.457  18.071  65.960  0.00  0.00    +0.090 C 
ATOM     19  C   UNL     1      -6.803  17.150  66.903  0.00  0.00    -0.090 C 
ATOM     20  C   UNL     1      -6.222  16.212  67.364  0.00  0.00    -0.091 C 
ENDBRANCH  17  20
ENDBRANCH  15  17
ENDBRANCH  13  15
ENDBRANCH  11  13
ENDBRANCH   1  12
BRANCH   8  21
ATOM     21  C   UNL     1     -12.127  12.588  64.736  0.00  0.00    +0.026 C 
BRANCH  21  22
ATOM     22  C   UNL     1     -12.036  14.084  64.454  0.00  0.00    +0.016 C 
BRANCH  22  23
ATOM     23  C   UNL     1     -10.672  14.585  64.854  0.00  0.00    +0.110 C 
BRANCH  23  24
ATOM     24  C   UNL     1     -10.762  16.041  65.137  0.00  0.00    +0.317 C 
ATOM     25  O   UNL     1     -11.227  16.819  64.255  0.00  0.00    -0.250 OA
BRANCH  24  26
ATOM     26  O   UNL     1     -10.609  16.600  66.388  0.00  0.00    -0.440 OA
BRANCH  26  27
ATOM     27  C   UNL     1     -10.262  15.790  67.510  0.00  0.00    +0.277 C 
BRANCH  27  28
ATOM     28  C   UNL     1     -11.465  15.649  68.387  0.00  0.00    +0.217 C 
ATOM     29  O   UNL     1     -11.689  16.633  69.155  0.00  0.00    -0.287 OA
BRANCH  28  30
ATOM     30  C   UNL     1     -11.772  14.317  68.949  0.00  0.00    +0.038 A 
ATOM     31  C   UNL     1     -12.409  14.150  70.154  0.00  0.00    +0.003 A 
ATOM     32  C   UNL     1     -12.501  12.966  70.844  0.00  0.00    +0.000 A 
ATOM     33  C   UNL     1     -11.958  11.853  70.196  0.00  0.00    +0.000 A 
ATOM     34  C   UNL     1     -11.255  12.031  69.010  0.00  0.00    +0.000 A 
ATOM     35  C   UNL     1     -11.085  13.269  68.407  0.00  0.00    +0.003 A 
ENDBRANCH  28  30
ENDBRANCH  27  28
ENDBRANCH  26  27
ENDBRANCH  24  26
ENDBRANCH  23  24
ENDBRANCH  22  23
ENDBRANCH  21  22
ENDBRANCH   8  21
TORSDOF 13
ENDMDL
MODEL 5
REMARK VINA RESULT:      -6.4      4.019      8.652
REMARK  Name = 
REMARK  13 active torsions:
REMARK  status: ('A' for Active; 'I' for Inactive)
REMARK    1  A    between atoms: C_3  and  C_4
REMARK    2  A    between atoms: C_4  and  C_5
REMARK    3  A    between atoms: C_5  and  C_7
REMARK    4  A    between atoms: C_7  and  C_9
REMARK    5  A    between atoms: C_10  and  C_11
REMARK    6  A    between atoms: C_15  and  C_16
REMARK    7  A    between atoms: C_16  and  C_17
REMARK    8  A    between atoms: C_17  and  C_18
REMARK    9  A    between atoms: C_18  and  C_19
REMARK   10  A    between atoms: C_19  and  O_21
REMARK   11  A    between atoms: O_21  and  C_22
REMARK   12  A    between atoms: C_22  and  C_23
REMARK   13  A    between atoms: C_23  and  C_25
REMARK                            x       y       z     vdW  Elec       q    Type
REMARK                         _______ _______ _______ _____ _____    ______ ____
ROOT
ATOM      1  C   UNL     1      -6.771  18.629  67.319  0.00  0.00    +0.052 C 
ATOM      2  C   UNL     1      -7.014  19.919  68.412  0.00  0.00    +0.156 C 
ATOM      3  O   UNL     1      -7.139  20.873  67.236  0.00  0.00    -0.223 OA
ATOM      4  C   UNL     1      -8.647  19.806  68.533  0.00  0.00    +0.034 C 
ATOM      5  C   UNL     1      -8.923  19.197  67.069  0.00  0.00    +0.007 C 
ATOM      6  C   UNL     1     -10.319  18.430  67.398  0.00  0.00    +0.022 C 
ATOM      7  C   UNL     1      -9.963  17.315  66.445  0.00  0.00    -0.048 C 
ATOM      8  C   UNL     1     -10.811  16.302  66.220  0.00  0.00    -0.035 C 
ATOM      9  C   UNL     1      -8.472  17.119  66.343  0.00  0.00    +0.022 C 
ATOM     10  C   UNL     1      -8.175  17.839  67.748  0.00  0.00    +0.011 C 
ENDROOT
BRANCH   1  12
ATOM     11  C   UNL     1      -5.222  16.734  67.938  0.00  0.00    +0.002 C 
ATOM     12  C   UNL     1      -5.867  17.803  68.329  0.00  0.00    -0.026 C 
BRANCH  11  13
ATOM     13  C   UNL     1      -4.866  15.731  69.153  0.00  0.00    +0.175 C 
ATOM     14  O   UNL     1      -6.133  16.106  69.905  0.00  0.00    -0.218 OA
BRANCH  13  15
ATOM     15  C   UNL     1      -5.630  14.327  68.518  0.00  0.00    +0.048 C 
ATOM     16  C   UNL     1      -4.323  13.608  67.890  0.00  0.00    +0.004 C 
BRANCH  15  17
ATOM     17  C   UNL     1      -5.415  13.576  69.935  0.00  0.00    +0.079 C 
BRANCH  17  20
ATOM     18  C   UNL     1      -7.856  10.446  69.240  0.00  0.00    +0.090 C 
ATOM     19  C   UNL     1      -6.719  11.326  69.554  0.00  0.00    -0.090 C 
ATOM     20  C   UNL     1      -6.065  12.277  69.866  0.00  0.00    -0.091 C 
ENDBRANCH  17  20
ENDBRANCH  15  17
ENDBRANCH  13  15
ENDBRANCH  11  13
ENDBRANCH   1  12
BRANCH   8  21
ATOM     21  C   UNL     1     -10.427  15.519  64.998  0.00  0.00    +0.026 C 
BRANCH  21  22
ATOM     22  C   UNL     1     -11.750  15.168  64.324  0.00  0.00    +0.016 C 
BRANCH  22  23
ATOM     23  C   UNL     1     -12.569  14.307  65.251  0.00  0.00    +0.110 C 
BRANCH  23  24
ATOM     24  C   UNL     1     -12.547  12.909  64.747  0.00  0.00    +0.317 C 
ATOM     25  O   UNL     1     -12.600  12.694  63.502  0.00  0.00    -0.250 OA
BRANCH  24  26
ATOM     26  O   UNL     1     -12.223  11.812  65.517  0.00  0.00    -0.440 OA
BRANCH  26  27
ATOM     27  C   UNL     1     -10.938  11.703  66.126  0.00  0.00    +0.277 C 
BRANCH  27  28
ATOM     28  C   UNL     1     -11.097  11.855  67.605  0.00  0.00    +0.217 C 
ATOM     29  O   UNL     1     -12.062  11.208  68.112  0.00  0.00    -0.287 OA
BRANCH  28  30
ATOM     30  C   UNL     1     -10.826  13.177  68.208  0.00  0.00    +0.038 A 
ATOM     31  C   UNL     1      -9.554  13.667  68.378  0.00  0.00    +0.003 A 
ATOM     32  C   UNL     1      -9.221  14.757  69.144  0.00  0.00    +0.000 A 
ATOM     33  C   UNL     1     -10.299  15.438  69.715  0.00  0.00    +0.000 A 
ATOM     34  C   UNL     1     -11.579  14.907  69.600  0.00  0.00    +0.000 A 
ATOM     35  C   UNL     1     -11.854  13.733  68.912  0.00  0.00    +0.003 A 
ENDBRANCH  28  30
ENDBRANCH  27  28
ENDBRANCH  26  27
ENDBRANCH  24  26
ENDBRANCH  23  24
ENDBRANCH  22  23
ENDBRANCH  21  22
ENDBRANCH   8  21
TORSDOF 13
ENDMDL
MODEL 6
REMARK VINA RESULT:      -6.4      2.716      4.957
REMARK  Name = 
REMARK  13 active torsions:
REMARK  status: ('A' for Active; 'I' for Inactive)
REMARK    1  A    between atoms: C_3  and  C_4
REMARK    2  A    between atoms: C_4  and  C_5
REMARK    3  A    between atoms: C_5  and  C_7
REMARK    4  A    between atoms: C_7  and  C_9
REMARK    5  A    between atoms: C_10  and  C_11
REMARK    6  A    between atoms: C_15  and  C_16
REMARK    7  A    between atoms: C_16  and  C_17
REMARK    8  A    between atoms: C_17  and  C_18
REMARK    9  A    between atoms: C_18  and  C_19
REMARK   10  A    between atoms: C_19  and  O_21
REMARK   11  A    between atoms: O_21  and  C_22
REMARK   12  A    between atoms: C_22  and  C_23
REMARK   13  A    between atoms: C_23  and  C_25
REMARK                            x       y       z     vdW  Elec       q    Type
REMARK                         _______ _______ _______ _____ _____    ______ ____
ROOT
ATOM      1  C   UNL     1     -10.395   7.445  71.252  0.00  0.00    +0.052 C 
ATOM      2  C   UNL     1     -11.661   6.923  72.274  0.00  0.00    +0.156 C 
ATOM      3  O   UNL     1     -11.007   7.654  73.434  0.00  0.00    -0.223 OA
ATOM      4  C   UNL     1     -12.687   8.179  72.020  0.00  0.00    +0.034 C 
ATOM      5  C   UNL     1     -11.573   9.297  71.701  0.00  0.00    +0.007 C 
ATOM      6  C   UNL     1     -12.490  10.279  70.784  0.00  0.00    +0.022 C 
ATOM      7  C   UNL     1     -11.304  10.618  69.914  0.00  0.00    -0.048 C 
ATOM      8  C   UNL     1     -11.415  11.497  68.908  0.00  0.00    -0.035 C 
ATOM      9  C   UNL     1     -10.313   9.485  69.852  0.00  0.00    +0.022 C 
ATOM     10  C   UNL     1     -11.390   8.378  70.292  0.00  0.00    +0.011 C 
ENDROOT
BRANCH   1  12
ATOM     11  C   UNL     1      -9.421   5.665  69.752  0.00  0.00    +0.002 C 
ATOM     12  C   UNL     1     -10.490   6.174  70.307  0.00  0.00    -0.026 C 
BRANCH  11  13
ATOM     13  C   UNL     1      -9.746   4.808  68.421  0.00  0.00    +0.175 C 
ATOM     14  O   UNL     1     -10.702   5.872  67.905  0.00  0.00    -0.218 OA
BRANCH  13  15
ATOM     15  C   UNL     1      -8.483   5.433  67.436  0.00  0.00    +0.048 C 
ATOM     16  C   UNL     1      -7.391   4.262  67.678  0.00  0.00    +0.004 C 
BRANCH  15  17
ATOM     17  C   UNL     1      -9.099   4.652  66.160  0.00  0.00    +0.079 C 
BRANCH  17  20
ATOM     18  C   UNL     1      -7.865   7.217  63.308  0.00  0.00    +0.090 C 
ATOM     19  C   UNL     1      -8.124   6.040  64.153  0.00  0.00    -0.090 C 
ATOM     20  C   UNL     1      -8.608   5.293  64.951  0.00  0.00    -0.091 C 
ENDBRANCH  17  20
ENDBRANCH  15  17
ENDBRANCH  13  15
ENDBRANCH  11  13
ENDBRANCH   1  12
BRANCH   8  21
ATOM     21  C   UNL     1     -10.070  11.951  68.419  0.00  0.00    +0.026 C 
BRANCH  21  22
ATOM     22  C   UNL     1     -10.362  12.758  67.158  0.00  0.00    +0.016 C 
BRANCH  22  23
ATOM     23  C   UNL     1     -11.823  12.630  66.811  0.00  0.00    +0.110 C 
BRANCH  23  24
ATOM     24  C   UNL     1     -12.014  13.040  65.395  0.00  0.00    +0.317 C 
ATOM     25  O   UNL     1     -13.052  13.684  65.068  0.00  0.00    -0.250 OA
BRANCH  24  26
ATOM     26  O   UNL     1     -11.028  12.993  64.434  0.00  0.00    -0.440 OA
BRANCH  26  27
ATOM     27  C   UNL     1     -10.960  11.906  63.512  0.00  0.00    +0.277 C 
BRANCH  27  28
ATOM     28  C   UNL     1      -9.567  11.361  63.518  0.00  0.00    +0.217 C 
ATOM     29  O   UNL     1      -9.065  11.156  62.373  0.00  0.00    -0.287 OA
BRANCH  28  30
ATOM     30  C   UNL     1      -9.204  10.379  64.562  0.00  0.00    +0.038 A 
ATOM     31  C   UNL     1     -10.139   9.626  65.229  0.00  0.00    +0.003 A 
ATOM     32  C   UNL     1      -9.901   8.890  66.363  0.00  0.00    +0.000 A 
ATOM     33  C   UNL     1      -8.572   8.872  66.796  0.00  0.00    +0.000 A 
ATOM     34  C   UNL     1      -7.638   9.684  66.164  0.00  0.00    +0.000 A 
ATOM     35  C   UNL     1      -7.951  10.506  65.089  0.00  0.00    +0.003 A 
ENDBRANCH  28  30
ENDBRANCH  27  28
ENDBRANCH  26  27
ENDBRANCH  24  26
ENDBRANCH  23  24
ENDBRANCH  22  23
ENDBRANCH  21  22
ENDBRANCH   8  21
TORSDOF 13
ENDMDL
MODEL 7
REMARK VINA RESULT:      -6.4      2.793      6.798
REMARK  Name = 
REMARK  13 active torsions:
REMARK  status: ('A' for Active; 'I' for Inactive)
REMARK    1  A    between atoms: C_3  and  C_4
REMARK    2  A    between atoms: C_4  and  C_5
REMARK    3  A    between atoms: C_5  and  C_7
REMARK    4  A    between atoms: C_7  and  C_9
REMARK    5  A    between atoms: C_10  and  C_11
REMARK    6  A    between atoms: C_15  and  C_16
REMARK    7  A    between atoms: C_16  and  C_17
REMARK    8  A    between atoms: C_17  and  C_18
REMARK    9  A    between atoms: C_18  and  C_19
REMARK   10  A    between atoms: C_19  and  O_21
REMARK   11  A    between atoms: O_21  and  C_22
REMARK   12  A    between atoms: C_22  and  C_23
REMARK   13  A    between atoms: C_23  and  C_25
REMARK                            x       y       z     vdW  Elec       q    Type
REMARK                         _______ _______ _______ _____ _____    ______ ____
ROOT
ATOM      1  C   UNL     1     -11.138  11.655  64.867  0.00  0.00    +0.052 C 
ATOM      2  C   UNL     1     -10.937  13.204  64.174  0.00  0.00    +0.156 C 
ATOM      3  O   UNL     1     -12.436  13.276  63.935  0.00  0.00    -0.223 OA
ATOM      4  C   UNL     1     -11.083  14.086  65.550  0.00  0.00    +0.034 C 
ATOM      5  C   UNL     1     -12.044  13.070  66.349  0.00  0.00    +0.007 C 
ATOM      6  C   UNL     1     -11.634  13.507  67.861  0.00  0.00    +0.022 C 
ATOM      7  C   UNL     1     -11.788  12.084  68.342  0.00  0.00    -0.048 C 
ATOM      8  C   UNL     1     -11.612  11.769  69.633  0.00  0.00    -0.035 C 
ATOM      9  C   UNL     1     -11.493  11.089  67.250  0.00  0.00    +0.022 C 
ATOM     10  C   UNL     1     -10.635  12.134  66.383  0.00  0.00    +0.011 C 
ENDROOT
BRANCH   1  12
ATOM     11  C   UNL     1      -9.466   9.887  64.198  0.00  0.00    +0.002 C 
ATOM     12  C   UNL     1      -9.699  11.154  64.426  0.00  0.00    -0.026 C 
BRANCH  11  13
ATOM     13  C   UNL     1      -7.906   9.493  64.347  0.00  0.00    +0.175 C 
ATOM     14  O   UNL     1      -7.770  10.300  65.627  0.00  0.00    -0.218 OA
BRANCH  13  15
ATOM     15  C   UNL     1      -8.124   8.048  65.253  0.00  0.00    +0.048 C 
ATOM     16  C   UNL     1      -7.993   6.984  64.040  0.00  0.00    +0.004 C 
BRANCH  15  17
ATOM     17  C   UNL     1      -6.531   7.990  65.531  0.00  0.00    +0.079 C 
BRANCH  17  20
ATOM     18  C   UNL     1      -6.017   6.708  69.317  0.00  0.00    +0.090 C 
ATOM     19  C   UNL     1      -6.283   6.825  67.874  0.00  0.00    -0.090 C 
ATOM     20  C   UNL     1      -6.308   7.225  66.748  0.00  0.00    -0.091 C 
ENDBRANCH  17  20
ENDBRANCH  15  17
ENDBRANCH  13  15
ENDBRANCH  11  13
ENDBRANCH   1  12
BRANCH   8  21
ATOM     21  C   UNL     1     -12.157  10.407  69.950  0.00  0.00    +0.026 C 
BRANCH  21  22
ATOM     22  C   UNL     1     -12.816  10.555  71.317  0.00  0.00    +0.016 C 
BRANCH  22  23
ATOM     23  C   UNL     1     -12.477   9.357  72.167  0.00  0.00    +0.110 C 
BRANCH  23  24
ATOM     24  C   UNL     1     -13.416   8.255  71.834  0.00  0.00    +0.317 C 
ATOM     25  O   UNL     1     -14.658   8.422  72.003  0.00  0.00    -0.250 OA
BRANCH  24  26
ATOM     26  O   UNL     1     -13.070   7.131  71.114  0.00  0.00    -0.440 OA
BRANCH  26  27
ATOM     27  C   UNL     1     -11.833   6.464  71.356  0.00  0.00    +0.277 C 
BRANCH  27  28
ATOM     28  C   UNL     1     -11.041   6.453  70.087  0.00  0.00    +0.217 C 
ATOM     29  O   UNL     1     -10.777   5.301  69.628  0.00  0.00    -0.287 OA
BRANCH  28  30
ATOM     30  C   UNL     1      -9.982   7.470  69.911  0.00  0.00    +0.038 A 
ATOM     31  C   UNL     1      -9.360   8.081  70.972  0.00  0.00    +0.003 A 
ATOM     32  C   UNL     1      -8.561   9.195  70.886  0.00  0.00    +0.000 A 
ATOM     33  C   UNL     1      -8.326   9.664  69.591  0.00  0.00    +0.000 A 
ATOM     34  C   UNL     1      -9.007   9.089  68.524  0.00  0.00    +0.000 A 
ATOM     35  C   UNL     1      -9.900   8.037  68.673  0.00  0.00    +0.003 A 
ENDBRANCH  28  30
ENDBRANCH  27  28
ENDBRANCH  26  27
ENDBRANCH  24  26
ENDBRANCH  23  24
ENDBRANCH  22  23
ENDBRANCH  21  22
ENDBRANCH   8  21
TORSDOF 13
ENDMDL
MODEL 8
REMARK VINA RESULT:      -6.4      1.585      2.051
REMARK  Name = 
REMARK  13 active torsions:
REMARK  status: ('A' for Active; 'I' for Inactive)
REMARK    1  A    between atoms: C_3  and  C_4
REMARK    2  A    between atoms: C_4  and  C_5
REMARK    3  A    between atoms: C_5  and  C_7
REMARK    4  A    between atoms: C_7  and  C_9
REMARK    5  A    between atoms: C_10  and  C_11
REMARK    6  A    between atoms: C_15  and  C_16
REMARK    7  A    between atoms: C_16  and  C_17
REMARK    8  A    between atoms: C_17  and  C_18
REMARK    9  A    between atoms: C_18  and  C_19
REMARK   10  A    between atoms: C_19  and  O_21
REMARK   11  A    between atoms: O_21  and  C_22
REMARK   12  A    between atoms: C_22  and  C_23
REMARK   13  A    between atoms: C_23  and  C_25
REMARK                            x       y       z     vdW  Elec       q    Type
REMARK                         _______ _______ _______ _____ _____    ______ ____
ROOT
ATOM      1  C   UNL     1      -9.553   8.698  69.576  0.00  0.00    +0.052 C 
ATOM      2  C   UNL     1      -9.624   7.026  69.918  0.00  0.00    +0.156 C 
ATOM      3  O   UNL     1      -8.722   7.247  71.120  0.00  0.00    -0.223 OA
ATOM      4  C   UNL     1     -10.957   7.049  70.875  0.00  0.00    +0.034 C 
ATOM      5  C   UNL     1     -10.780   8.545  71.444  0.00  0.00    +0.007 C 
ATOM      6  C   UNL     1     -12.343   8.852  71.774  0.00  0.00    +0.022 C 
ATOM      7  C   UNL     1     -12.168  10.300  71.387  0.00  0.00    -0.048 C 
ATOM      8  C   UNL     1     -13.182  11.170  71.492  0.00  0.00    -0.035 C 
ATOM      9  C   UNL     1     -11.097  10.475  70.341  0.00  0.00    +0.022 C 
ATOM     10  C   UNL     1     -11.179   8.948  69.850  0.00  0.00    +0.011 C 
ENDROOT
BRANCH   1  12
ATOM     11  C   UNL     1      -9.137   9.284  67.156  0.00  0.00    +0.002 C 
ATOM     12  C   UNL     1      -9.734   8.496  68.013  0.00  0.00    -0.026 C 
BRANCH  11  13
ATOM     13  C   UNL     1      -9.867   9.321  65.716  0.00  0.00    +0.175 C 
ATOM     14  O   UNL     1     -10.513  10.664  66.017  0.00  0.00    -0.218 OA
BRANCH  13  15
ATOM     15  C   UNL     1      -8.605  10.097  64.843  0.00  0.00    +0.048 C 
ATOM     16  C   UNL     1      -7.784   8.779  64.387  0.00  0.00    +0.004 C 
BRANCH  15  17
ATOM     17  C   UNL     1      -9.510  10.049  63.502  0.00  0.00    +0.079 C 
BRANCH  17  20
ATOM     18  C   UNL     1      -6.698  11.544  61.034  0.00  0.00    +0.090 C 
ATOM     19  C   UNL     1      -7.931  11.009  61.634  0.00  0.00    -0.090 C 
ATOM     20  C   UNL     1      -8.764  10.679  62.425  0.00  0.00    -0.091 C 
ENDBRANCH  17  20
ENDBRANCH  15  17
ENDBRANCH  13  15
ENDBRANCH  11  13
ENDBRANCH   1  12
BRANCH   8  21
ATOM     21  C   UNL     1     -12.704  12.591  71.407  0.00  0.00    +0.026 C 
BRANCH  21  22
ATOM     22  C   UNL     1     -13.650  13.379  72.308  0.00  0.00    +0.016 C 
BRANCH  22  23
ATOM     23  C   UNL     1     -14.162  14.584  71.561  0.00  0.00    +0.110 C 
BRANCH  23  24
ATOM     24  C   UNL     1     -13.094  15.617  71.533  0.00  0.00    +0.317 C 
ATOM     25  O   UNL     1     -12.547  15.978  72.615  0.00  0.00    -0.250 OA
BRANCH  24  26
ATOM     26  O   UNL     1     -12.462  16.050  70.386  0.00  0.00    -0.440 OA
BRANCH  26  27
ATOM     27  C   UNL     1     -11.349  15.334  69.854  0.00  0.00    +0.277 C 
BRANCH  27  28
ATOM     28  C   UNL     1     -10.910  16.005  68.591  0.00  0.00    +0.217 C 
ATOM     29  O   UNL     1     -11.161  17.246  68.526  0.00  0.00    -0.287 OA
BRANCH  28  30
ATOM     30  C   UNL     1     -11.036  15.259  67.321  0.00  0.00    +0.038 A 
ATOM     31  C   UNL     1     -10.520  15.724  66.135  0.00  0.00    +0.003 A 
ATOM     32  C   UNL     1     -10.809  15.217  64.893  0.00  0.00    +0.000 A 
ATOM     33  C   UNL     1     -11.638  14.091  64.885  0.00  0.00    +0.000 A 
ATOM     34  C   UNL     1     -12.214  13.660  66.074  0.00  0.00    +0.000 A 
ATOM     35  C   UNL     1     -11.985  14.279  67.296  0.00  0.00    +0.003 A 
ENDBRANCH  28  30
ENDBRANCH  27  28
ENDBRANCH  26  27
ENDBRANCH  24  26
ENDBRANCH  23  24
ENDBRANCH  22  23
ENDBRANCH  21  22
ENDBRANCH   8  21
TORSDOF 13
ENDMDL
MODEL 9
REMARK VINA RESULT:      -6.3      2.719      7.567
REMARK  Name = 
REMARK  13 active torsions:
REMARK  status: ('A' for Active; 'I' for Inactive)
REMARK    1  A    between atoms: C_3  and  C_4
REMARK    2  A    between atoms: C_4  and  C_5
REMARK    3  A    between atoms: C_5  and  C_7
REMARK    4  A    between atoms: C_7  and  C_9
REMARK    5  A    between atoms: C_10  and  C_11
REMARK    6  A    between atoms: C_15  and  C_16
REMARK    7  A    between atoms: C_16  and  C_17
REMARK    8  A    between atoms: C_17  and  C_18
REMARK    9  A    between atoms: C_18  and  C_19
REMARK   10  A    between atoms: C_19  and  O_21
REMARK   11  A    between atoms: O_21  and  C_22
REMARK   12  A    between atoms: C_22  and  C_23
REMARK   13  A    between atoms: C_23  and  C_25
REMARK                            x       y       z     vdW  Elec       q    Type
REMARK                         _______ _______ _______ _____ _____    ______ ____
ROOT
ATOM      1  C   UNL     1     -12.689  15.246  70.278  0.00  0.00    +0.052 C 
ATOM      2  C   UNL     1     -13.208  15.776  71.816  0.00  0.00    +0.156 C 
ATOM      3  O   UNL     1     -14.648  15.522  71.402  0.00  0.00    -0.223 OA
ATOM      4  C   UNL     1     -13.142  14.327  72.586  0.00  0.00    +0.034 C 
ATOM      5  C   UNL     1     -13.426  13.396  71.304  0.00  0.00    +0.007 C 
ATOM      6  C   UNL     1     -12.684  12.048  71.831  0.00  0.00    +0.022 C 
ATOM      7  C   UNL     1     -12.231  11.717  70.429  0.00  0.00    -0.048 C 
ATOM      8  C   UNL     1     -11.546  10.595  70.172  0.00  0.00    -0.035 C 
ATOM      9  C   UNL     1     -12.035  12.958  69.597  0.00  0.00    +0.022 C 
ATOM     10  C   UNL     1     -11.875  13.918  70.874  0.00  0.00    +0.011 C 
ENDROOT
BRANCH   1  12
ATOM     11  C   UNL     1     -10.867  16.583  69.153  0.00  0.00    +0.002 C 
ATOM     12  C   UNL     1     -11.401  16.172  70.275  0.00  0.00    -0.026 C 
BRANCH  11  13
ATOM     13  C   UNL     1      -9.309  16.984  69.304  0.00  0.00    +0.175 C 
ATOM     14  O   UNL     1      -8.861  15.731  68.568  0.00  0.00    -0.218 OA
BRANCH  13  15
ATOM     15  C   UNL     1      -9.174  17.909  67.861  0.00  0.00    +0.048 C 
ATOM     16  C   UNL     1      -9.976  19.228  68.346  0.00  0.00    +0.004 C 
BRANCH  15  17
ATOM     17  C   UNL     1      -7.770  18.516  68.389  0.00  0.00    +0.079 C 
BRANCH  17  20
ATOM     18  C   UNL     1      -6.626  20.119  64.873  0.00  0.00    +0.090 C 
ATOM     19  C   UNL     1      -6.948  19.861  66.286  0.00  0.00    -0.090 C 
ATOM     20  C   UNL     1      -7.185  19.308  67.319  0.00  0.00    -0.091 C 
ENDBRANCH  17  20
ENDBRANCH  15  17
ENDBRANCH  13  15
ENDBRANCH  11  13
ENDBRANCH   1  12
BRANCH   8  21
ATOM     21  C   UNL     1     -11.516  10.288  68.702  0.00  0.00    +0.026 C 
BRANCH  21  22
ATOM     22  C   UNL     1     -10.035  10.177  68.354  0.00  0.00    +0.016 C 
BRANCH  22  23
ATOM     23  C   UNL     1      -9.678   8.726  68.150  0.00  0.00    +0.110 C 
BRANCH  23  24
ATOM     24  C   UNL     1      -9.562   8.464  66.692  0.00  0.00    +0.317 C 
ATOM     25  O   UNL     1      -9.018   7.395  66.293  0.00  0.00    -0.250 OA
BRANCH  24  26
ATOM     26  O   UNL     1     -10.224   9.183  65.719  0.00  0.00    -0.440 OA
BRANCH  26  27
ATOM     27  C   UNL     1      -9.499   9.955  64.764  0.00  0.00    +0.277 C 
BRANCH  27  28
ATOM     28  C   UNL     1     -10.429  10.955  64.154  0.00  0.00    +0.217 C 
ATOM     29  O   UNL     1     -10.154  11.288  62.962  0.00  0.00    -0.287 OA
BRANCH  28  30
ATOM     30  C   UNL     1     -10.961  12.033  65.013  0.00  0.00    +0.038 A 
ATOM     31  C   UNL     1     -12.234  12.530  64.875  0.00  0.00    +0.003 A 
ATOM     32  C   UNL     1     -12.704  13.680  65.460  0.00  0.00    +0.000 A 
ATOM     33  C   UNL     1     -11.807  14.324  66.316  0.00  0.00    +0.000 A 
ATOM     34  C   UNL     1     -10.498  13.862  66.406  0.00  0.00    +0.000 A 
ATOM     35  C   UNL     1     -10.034  12.760  65.702  0.00  0.00    +0.003 A 
ENDBRANCH  28  30
ENDBRANCH  27  28
ENDBRANCH  26  27
ENDBRANCH  24  26
ENDBRANCH  23  24
ENDBRANCH  22  23
ENDBRANCH  21  22
ENDBRANCH   8  21
TORSDOF 13
ENDMDL
