MODEL 1
REMARK VINA RESULT:      -6.6      0.000      0.000
REMARK  Name = 
REMARK  4 active torsions:
REMARK  status: ('A' for Active; 'I' for Inactive)
REMARK    1  A    between atoms: C_2  and  C_3
REMARK    2  A    between atoms: N_5  and  C_6
REMARK    3  A    between atoms: C_6  and  C_7
REMARK    4  A    between atoms: C_9  and  C_10
REMARK                            x       y       z     vdW  Elec       q    Type
REMARK                         _______ _______ _______ _____ _____    ______ ____
ROOT
ATOM      1  C   UNL     1     -10.914  16.362  69.275  0.00  0.00    +0.026 C 
ATOM      2  C   UNL     1     -11.720  14.835  68.993  0.00  0.00    +0.024 C 
ATOM      3  C   UNL     1      -9.982  14.885  69.185  0.00  0.00    +0.006 C 
ENDROOT
BRANCH   2   4
ATOM      4  C   UNL     1     -12.069  14.534  70.580  0.00  0.00    -0.023 A 
ATOM      5  C   UNL     1     -12.398  13.187  70.715  0.00  0.00    +0.012 A 
ATOM      6  C   UNL     1     -11.833  11.976  70.092  0.00  0.00    +0.076 C 
ATOM      7  C   UNL     1     -12.389  10.831  70.916  0.00  0.00    +0.210 C 
ATOM      8  O   UNL     1     -13.307  11.425  71.803  0.00  0.00    -0.475 OA
ATOM      9  C   UNL     1     -13.216  12.803  71.765  0.00  0.00    +0.134 A 
ATOM     10  C   UNL     1     -13.863  13.783  72.511  0.00  0.00    +0.037 A 
ATOM     11  C   UNL     1     -13.223  15.013  72.543  0.00  0.00    +0.003 A 
ATOM     12  C   UNL     1     -12.730  15.417  71.308  0.00  0.00    -0.004 A 
ENDBRANCH   2   4
BRANCH   1  13
ATOM     13  C   UNL     1     -10.689  16.676  67.648  0.00  0.00    +0.115 C 
BRANCH  13  15
ATOM     14  C   UNL     1     -10.237  18.894  66.747  0.00  0.00    +0.241 C 
ATOM     15  N   UNL     1     -10.916  18.121  67.744  0.00  0.00    -0.205 NA
ATOM     16  O   UNL     1     -10.591  18.635  65.574  0.00  0.00    -0.273 OA
BRANCH  14  18
ATOM     17  C   UNL     1      -8.668  20.245  67.297  0.00  0.00    +0.010 C 
ATOM     18  C   UNL     1      -9.557  20.180  67.004  0.00  0.00    +0.087 C 
ENDBRANCH  14  18
ENDBRANCH  13  15
ENDBRANCH   1  13
TORSDOF 4
ENDMDL
MODEL 2
REMARK VINA RESULT:      -6.2      3.983      6.195
REMARK  Name = 
REMARK  4 active torsions:
REMARK  status: ('A' for Active; 'I' for Inactive)
REMARK    1  A    between atoms: C_2  and  C_3
REMARK    2  A    between atoms: N_5  and  C_6
REMARK    3  A    between atoms: C_6  and  C_7
REMARK    4  A    between atoms: C_9  and  C_10
REMARK                            x       y       z     vdW  Elec       q    Type
REMARK                         _______ _______ _______ _____ _____    ______ ____
ROOT
ATOM      1  C   UNL     1     -12.064  14.238  68.518  0.00  0.00    +0.026 C 
ATOM      2  C   UNL     1     -10.671  13.413  67.854  0.00  0.00    +0.024 C 
ATOM      3  C   UNL     1     -11.594  12.672  69.141  0.00  0.00    +0.006 C 
ENDROOT
BRANCH   2   4
ATOM      4  C   UNL     1     -11.481  12.690  66.610  0.00  0.00    -0.023 A 
ATOM      5  C   UNL     1     -10.687  11.665  66.097  0.00  0.00    +0.012 A 
ATOM      6  C   UNL     1      -9.816  10.680  66.763  0.00  0.00    +0.076 C 
ATOM      7  C   UNL     1      -9.525   9.646  65.692  0.00  0.00    +0.210 C 
ATOM      8  O   UNL     1     -10.090  10.168  64.513  0.00  0.00    -0.475 OA
ATOM      9  C   UNL     1     -10.868  11.278  64.780  0.00  0.00    +0.134 A 
ATOM     10  C   UNL     1     -11.663  12.059  63.949  0.00  0.00    +0.037 A 
ATOM     11  C   UNL     1     -12.645  12.793  64.597  0.00  0.00    +0.003 A 
ATOM     12  C   UNL     1     -12.204  13.404  65.765  0.00  0.00    -0.004 A 
ENDBRANCH   2   4
BRANCH   1  13
ATOM     13  C   UNL     1     -11.178  15.038  69.689  0.00  0.00    +0.115 C 
BRANCH  13  15
ATOM     14  C   UNL     1     -12.703  15.591  71.506  0.00  0.00    +0.241 C 
ATOM     15  N   UNL     1     -12.284  15.873  70.165  0.00  0.00    -0.205 NA
ATOM     16  O   UNL     1     -11.816  15.789  72.368  0.00  0.00    -0.273 OA
BRANCH  14  18
ATOM     17  C   UNL     1     -14.720  14.888  71.665  0.00  0.00    +0.010 C 
ATOM     18  C   UNL     1     -14.110  15.542  71.952  0.00  0.00    +0.087 C 
ENDBRANCH  14  18
ENDBRANCH  13  15
ENDBRANCH   1  13
TORSDOF 4
ENDMDL
MODEL 3
REMARK VINA RESULT:      -6.0      3.268      4.642
REMARK  Name = 
REMARK  4 active torsions:
REMARK  status: ('A' for Active; 'I' for Inactive)
REMARK    1  A    between atoms: C_2  and  C_3
REMARK    2  A    between atoms: N_5  and  C_6
REMARK    3  A    between atoms: C_6  and  C_7
REMARK    4  A    between atoms: C_9  and  C_10
REMARK                            x       y       z     vdW  Elec       q    Type
REMARK                         _______ _______ _______ _____ _____    ______ ____
ROOT
ATOM      1  C   UNL     1     -11.102  12.851  67.409  0.00  0.00    +0.026 C 
ATOM      2  C   UNL     1     -10.940  13.529  69.014  0.00  0.00    +0.024 C 
ATOM      3  C   UNL     1     -11.993  14.291  67.844  0.00  0.00    +0.006 C 
ENDROOT
BRANCH   2   4
ATOM      4  C   UNL     1     -12.100  12.583  69.713  0.00  0.00    -0.023 A 
ATOM      5  C   UNL     1     -12.641  13.270  70.798  0.00  0.00    +0.012 A 
ATOM      6  C   UNL     1     -12.983  14.692  70.980  0.00  0.00    +0.076 C 
ATOM      7  C   UNL     1     -13.843  14.719  72.229  0.00  0.00    +0.210 C 
ATOM      8  O   UNL     1     -13.802  13.405  72.733  0.00  0.00    -0.475 OA
ATOM      9  C   UNL     1     -13.205  12.543  71.832  0.00  0.00    +0.134 A 
ATOM     10  C   UNL     1     -13.019  11.165  71.871  0.00  0.00    +0.037 A 
ATOM     11  C   UNL     1     -12.807  10.567  70.638  0.00  0.00    +0.003 A 
ATOM     12  C   UNL     1     -11.936  11.275  69.819  0.00  0.00    -0.004 A 
ENDBRANCH   2   4
BRANCH   1  13
ATOM     13  C   UNL     1      -9.840  13.749  66.777  0.00  0.00    +0.115 C 
BRANCH  13  15
ATOM     14  C   UNL     1     -10.868  13.164  64.648  0.00  0.00    +0.241 C 
ATOM     15  N   UNL     1      -9.743  13.002  65.519  0.00  0.00    -0.205 NA
ATOM     16  O   UNL     1     -11.044  14.342  64.257  0.00  0.00    -0.273 OA
BRANCH  14  18
ATOM     17  C   UNL     1     -12.363  12.119  63.525  0.00  0.00    +0.010 C 
ATOM     18  C   UNL     1     -11.493  12.072  63.874  0.00  0.00    +0.087 C 
ENDBRANCH  14  18
ENDBRANCH  13  15
ENDBRANCH   1  13
TORSDOF 4
ENDMDL
MODEL 4
REMARK VINA RESULT:      -5.9      3.643      6.155
REMARK  Name = 
REMARK  4 active torsions:
REMARK  status: ('A' for Active; 'I' for Inactive)
REMARK    1  A    between atoms: C_2  and  C_3
REMARK    2  A    between atoms: N_5  and  C_6
REMARK    3  A    between atoms: C_6  and  C_7
REMARK    4  A    between atoms: C_9  and  C_10
REMARK                            x       y       z     vdW  Elec       q    Type
REMARK                         _______ _______ _______ _____ _____    ______ ____
ROOT
ATOM      1  C   UNL     1     -10.956  14.779  69.114  0.00  0.00    +0.026 C 
ATOM      2  C   UNL     1     -11.960  14.420  67.726  0.00  0.00    +0.024 C 
ATOM      3  C   UNL     1     -10.847  15.769  67.676  0.00  0.00    +0.006 C 
ENDROOT
BRANCH   2   4
ATOM      4  C   UNL     1     -10.932  13.312  67.059  0.00  0.00    -0.023 A 
ATOM      5  C   UNL     1     -11.411  12.964  65.798  0.00  0.00    +0.012 A 
ATOM      6  C   UNL     1     -12.030  13.772  64.732  0.00  0.00    +0.076 C 
ATOM      7  C   UNL     1     -11.995  12.878  63.508  0.00  0.00    +0.210 C 
ATOM      8  O   UNL     1     -11.527  11.634  63.973  0.00  0.00    -0.475 OA
ATOM      9  C   UNL     1     -11.075  11.726  65.276  0.00  0.00    +0.134 A 
ATOM     10  C   UNL     1     -10.468  10.786  66.102  0.00  0.00    +0.037 A 
ATOM     11  C   UNL     1      -9.739  11.316  67.156  0.00  0.00    +0.003 A 
ATOM     12  C   UNL     1     -10.378  12.368  67.801  0.00  0.00    -0.004 A 
ENDBRANCH   2   4
BRANCH   1  13
ATOM     13  C   UNL     1     -12.082  15.805  69.808  0.00  0.00    +0.115 C 
BRANCH  13  15
ATOM     14  C   UNL     1     -13.289  15.508  71.902  0.00  0.00    +0.241 C 
ATOM     15  N   UNL     1     -12.260  15.020  71.033  0.00  0.00    -0.205 NA
ATOM     16  O   UNL     1     -14.434  15.492  71.394  0.00  0.00    -0.273 OA
BRANCH  14  18
ATOM     17  C   UNL     1     -12.395  15.834  73.821  0.00  0.00    +0.010 C 
ATOM     18  C   UNL     1     -13.179  15.577  73.374  0.00  0.00    +0.087 C 
ENDBRANCH  14  18
ENDBRANCH  13  15
ENDBRANCH   1  13
TORSDOF 4
ENDMDL
MODEL 5
REMARK VINA RESULT:      -5.9      3.756      7.924
REMARK  Name = 
REMARK  4 active torsions:
REMARK  status: ('A' for Active; 'I' for Inactive)
REMARK    1  A    between atoms: C_2  and  C_3
REMARK    2  A    between atoms: N_5  and  C_6
REMARK    3  A    between atoms: C_6  and  C_7
REMARK    4  A    between atoms: C_9  and  C_10
REMARK                            x       y       z     vdW  Elec       q    Type
REMARK                         _______ _______ _______ _____ _____    ______ ____
ROOT
ATOM      1  C   UNL     1     -12.580  10.396  71.244  0.00  0.00    +0.026 C 
ATOM      2  C   UNL     1     -11.536  11.665  70.642  0.00  0.00    +0.024 C 
ATOM      3  C   UNL     1     -12.462  10.691  69.523  0.00  0.00    +0.006 C 
ENDROOT
BRANCH   2   4
ATOM      4  C   UNL     1     -12.646  12.879  70.788  0.00  0.00    -0.023 A 
ATOM      5  C   UNL     1     -12.195  13.984  70.069  0.00  0.00    +0.012 A 
ATOM      6  C   UNL     1     -11.512  14.089  68.767  0.00  0.00    +0.076 C 
ATOM      7  C   UNL     1     -11.616  15.557  68.401  0.00  0.00    +0.210 C 
ATOM      8  O   UNL     1     -12.181  16.180  69.531  0.00  0.00    -0.475 OA
ATOM      9  C   UNL     1     -12.627  15.245  70.445  0.00  0.00    +0.134 A 
ATOM     10  C   UNL     1     -13.307  15.396  71.649  0.00  0.00    +0.037 A 
ATOM     11  C   UNL     1     -13.993  14.270  72.080  0.00  0.00    +0.003 A 
ATOM     12  C   UNL     1     -13.274  13.090  71.932  0.00  0.00    -0.004 A 
ENDBRANCH   2   4
BRANCH   1  13
ATOM     13  C   UNL     1     -11.385   9.226  71.187  0.00  0.00    +0.115 C 
BRANCH  13  15
ATOM     14  C   UNL     1     -12.937   7.357  71.361  0.00  0.00    +0.241 C 
ATOM     15  N   UNL     1     -12.076   8.268  72.054  0.00  0.00    -0.205 NA
ATOM     16  O   UNL     1     -12.342   6.614  70.547  0.00  0.00    -0.273 OA
BRANCH  14  18
ATOM     17  C   UNL     1     -15.028   7.504  71.801  0.00  0.00    +0.010 C 
ATOM     18  C   UNL     1     -14.275   6.945  71.833  0.00  0.00    +0.087 C 
ENDBRANCH  14  18
ENDBRANCH  13  15
ENDBRANCH   1  13
TORSDOF 4
ENDMDL
MODEL 6
REMARK VINA RESULT:      -5.9      3.818      7.233
REMARK  Name = 
REMARK  4 active torsions:
REMARK  status: ('A' for Active; 'I' for Inactive)
REMARK    1  A    between atoms: C_2  and  C_3
REMARK    2  A    between atoms: N_5  and  C_6
REMARK    3  A    between atoms: C_6  and  C_7
REMARK    4  A    between atoms: C_9  and  C_10
REMARK                            x       y       z     vdW  Elec       q    Type
REMARK                         _______ _______ _______ _____ _____    ______ ____
ROOT
ATOM      1  C   UNL     1     -10.866  15.608  66.483  0.00  0.00    +0.026 C 
ATOM      2  C   UNL     1      -9.977  16.235  67.854  0.00  0.00    +0.024 C 
ATOM      3  C   UNL     1      -9.175  15.206  66.689  0.00  0.00    +0.006 C 
ENDROOT
BRANCH   2   4
ATOM      4  C   UNL     1      -9.564  17.669  67.145  0.00  0.00    -0.023 A 
ATOM      5  C   UNL     1      -8.539  18.253  67.886  0.00  0.00    +0.012 A 
ATOM      6  C   UNL     1      -7.359  17.669  68.550  0.00  0.00    +0.076 C 
ATOM      7  C   UNL     1      -6.476  18.860  68.870  0.00  0.00    +0.210 C 
ATOM      8  O   UNL     1      -7.241  19.990  68.526  0.00  0.00    -0.475 OA
ATOM      9  C   UNL     1      -8.387  19.629  67.843  0.00  0.00    +0.134 A 
ATOM     10  C   UNL     1      -9.382  20.401  67.254  0.00  0.00    +0.037 A 
ATOM     11  C   UNL     1     -10.126  19.755  66.279  0.00  0.00    +0.003 A 
ATOM     12  C   UNL     1     -10.487  18.457  66.622  0.00  0.00    -0.004 A 
ENDBRANCH   2   4
BRANCH   1  13
ATOM     13  C   UNL     1     -11.355  14.224  67.286  0.00  0.00    +0.115 C 
BRANCH  13  15
ATOM     14  C   UNL     1     -12.010  12.585  65.608  0.00  0.00    +0.241 C 
ATOM     15  N   UNL     1     -12.335  13.809  66.278  0.00  0.00    -0.205 NA
ATOM     16  O   UNL     1     -11.953  11.589  66.365  0.00  0.00    -0.273 OA
BRANCH  14  18
ATOM     17  C   UNL     1     -12.022  13.006  63.507  0.00  0.00    +0.010 C 
ATOM     18  C   UNL     1     -12.186  12.352  64.159  0.00  0.00    +0.087 C 
ENDBRANCH  14  18
ENDBRANCH  13  15
ENDBRANCH   1  13
TORSDOF 4
ENDMDL
MODEL 7
REMARK VINA RESULT:      -5.8      2.519      7.292
REMARK  Name = 
REMARK  4 active torsions:
REMARK  status: ('A' for Active; 'I' for Inactive)
REMARK    1  A    between atoms: C_2  and  C_3
REMARK    2  A    between atoms: N_5  and  C_6
REMARK    3  A    between atoms: C_6  and  C_7
REMARK    4  A    between atoms: C_9  and  C_10
REMARK                            x       y       z     vdW  Elec       q    Type
REMARK                         _______ _______ _______ _____ _____    ______ ____
ROOT
ATOM      1  C   UNL     1     -11.074  15.969  68.248  0.00  0.00    +0.026 C 
ATOM      2  C   UNL     1      -9.755  16.830  69.011  0.00  0.00    +0.024 C 
ATOM      3  C   UNL     1      -9.425  15.438  68.004  0.00  0.00    +0.006 C 
ENDROOT
BRANCH   2   4
ATOM      4  C   UNL     1      -9.583  17.961  67.820  0.00  0.00    -0.023 A 
ATOM      5  C   UNL     1      -8.426  18.697  68.069  0.00  0.00    +0.012 A 
ATOM      6  C   UNL     1      -7.099  18.290  68.566  0.00  0.00    +0.076 C 
ATOM      7  C   UNL     1      -6.205  19.482  68.278  0.00  0.00    +0.210 C 
ATOM      8  O   UNL     1      -7.071  20.488  67.808  0.00  0.00    -0.475 OA
ATOM      9  C   UNL     1      -8.337  19.987  67.574  0.00  0.00    +0.134 A 
ATOM     10  C   UNL     1      -9.474  20.587  67.043  0.00  0.00    +0.037 A 
ATOM     11  C   UNL     1     -10.415  19.708  66.527  0.00  0.00    +0.003 A 
ATOM     12  C   UNL     1     -10.634  18.594  67.328  0.00  0.00    -0.004 A 
ENDBRANCH   2   4
BRANCH   1  13
ATOM     13  C   UNL     1     -11.286  14.919  69.534  0.00  0.00    +0.115 C 
BRANCH  13  15
ATOM     14  C   UNL     1     -12.711  15.602  71.387  0.00  0.00    +0.241 C 
ATOM     15  N   UNL     1     -12.571  15.475  69.967  0.00  0.00    -0.205 NA
ATOM     16  O   UNL     1     -11.882  16.380  71.912  0.00  0.00    -0.273 OA
BRANCH  14  18
ATOM     17  C   UNL     1     -14.729  14.974  71.734  0.00  0.00    +0.010 C 
ATOM     18  C   UNL     1     -13.941  15.281  72.140  0.00  0.00    +0.087 C 
ENDBRANCH  14  18
ENDBRANCH  13  15
ENDBRANCH   1  13
TORSDOF 4
ENDMDL
MODEL 8
REMARK VINA RESULT:      -5.8      4.121      5.252
REMARK  Name = 
REMARK  4 active torsions:
REMARK  status: ('A' for Active; 'I' for Inactive)
REMARK    1  A    between atoms: C_2  and  C_3
REMARK    2  A    between atoms: N_5  and  C_6
REMARK    3  A    between atoms: C_6  and  C_7
REMARK    4  A    between atoms: C_9  and  C_10
REMARK                            x       y       z     vdW  Elec       q    Type
REMARK                         _______ _______ _______ _____ _____    ______ ____
ROOT
ATOM      1  C   UNL     1     -11.198  15.104  67.409  0.00  0.00    +0.026 C 
ATOM      2  C   UNL     1      -9.990  14.178  66.545  0.00  0.00    +0.024 C 
ATOM      3  C   UNL     1     -10.407  13.753  68.190  0.00  0.00    +0.006 C 
ENDROOT
BRANCH   2   4
ATOM      4  C   UNL     1     -11.057  13.150  65.816  0.00  0.00    -0.023 A 
ATOM      5  C   UNL     1     -10.345  12.086  65.265  0.00  0.00    +0.012 A 
ATOM      6  C   UNL     1      -9.184  11.327  65.763  0.00  0.00    +0.076 C 
ATOM      7  C   UNL     1      -9.123  10.100  64.873  0.00  0.00    +0.210 C 
ATOM      8  O   UNL     1     -10.102  10.313  63.884  0.00  0.00    -0.475 OA
ATOM      9  C   UNL     1     -10.890  11.407  64.188  0.00  0.00    +0.134 A 
ATOM     10  C   UNL     1     -12.007  11.935  63.550  0.00  0.00    +0.037 A 
ATOM     11  C   UNL     1     -12.813  12.735  64.345  0.00  0.00    +0.003 A 
ATOM     12  C   UNL     1     -12.102  13.615  65.152  0.00  0.00    -0.004 A 
ENDBRANCH   2   4
BRANCH   1  13
ATOM     13  C   UNL     1     -10.088  16.191  68.030  0.00  0.00    +0.115 C 
BRANCH  13  15
ATOM     14  C   UNL     1     -10.444  18.329  66.918  0.00  0.00    +0.241 C 
ATOM     15  N   UNL     1     -10.936  17.375  67.868  0.00  0.00    -0.205 NA
ATOM     16  O   UNL     1     -10.360  17.886  65.750  0.00  0.00    -0.273 OA
BRANCH  14  18
ATOM     17  C   UNL     1      -9.729  20.292  67.390  0.00  0.00    +0.010 C 
ATOM     18  C   UNL     1     -10.473  19.793  67.109  0.00  0.00    +0.087 C 
ENDBRANCH  14  18
ENDBRANCH  13  15
ENDBRANCH   1  13
TORSDOF 4
ENDMDL
MODEL 9
REMARK VINA RESULT:      -5.6      5.300      8.511
REMARK  Name = 
REMARK  4 active torsions:
REMARK  status: ('A' for Active; 'I' for Inactive)
REMARK    1  A    between atoms: C_2  and  C_3
REMARK    2  A    between atoms: N_5  and  C_6
REMARK    3  A    between atoms: C_6  and  C_7
REMARK    4  A    between atoms: C_9  and  C_10
REMARK                            x       y       z     vdW  Elec       q    Type
REMARK                         _______ _______ _______ _____ _____    ______ ____
ROOT
ATOM      1  C   UNL     1     -11.617  10.650  68.667  0.00  0.00    +0.026 C 
ATOM      2  C   UNL     1     -10.263  11.015  67.620  0.00  0.00    +0.024 C 
ATOM      3  C   UNL     1     -10.933   9.399  67.652  0.00  0.00    +0.006 C 
ENDROOT
BRANCH   2   4
ATOM      4  C   UNL     1     -11.173  11.563  66.355  0.00  0.00    -0.023 A 
ATOM      5  C   UNL     1     -10.464  11.357  65.174  0.00  0.00    +0.012 A 
ATOM      6  C   UNL     1      -9.615  10.238  64.727  0.00  0.00    +0.076 C 
ATOM      7  C   UNL     1      -9.435  10.468  63.239  0.00  0.00    +0.210 C 
ATOM      8  O   UNL     1     -10.029  11.719  62.984  0.00  0.00    -0.475 OA
ATOM      9  C   UNL     1     -10.731  12.171  64.086  0.00  0.00    +0.134 A 
ATOM     10  C   UNL     1     -11.523  13.300  64.264  0.00  0.00    +0.037 A 
ATOM     11  C   UNL     1     -12.430  13.221  65.310  0.00  0.00    +0.003 A 
ATOM     12  C   UNL     1     -11.898  12.663  66.467  0.00  0.00    -0.004 A 
ENDBRANCH   2   4
BRANCH   1  13
ATOM     13  C   UNL     1     -10.648  10.215  69.960  0.00  0.00    +0.115 C 
BRANCH  13  15
ATOM     14  C   UNL     1     -12.181   9.316  71.626  0.00  0.00    +0.241 C 
ATOM     15  N   UNL     1     -11.652  10.487  70.993  0.00  0.00    -0.205 NA
ATOM     16  O   UNL     1     -11.325   8.640  72.243  0.00  0.00    -0.273 OA
BRANCH  14  18
ATOM     17  C   UNL     1     -14.119   8.405  71.644  0.00  0.00    +0.010 C 
ATOM     18  C   UNL     1     -13.605   9.119  71.969  0.00  0.00    +0.087 C 
ENDBRANCH  14  18
ENDBRANCH  13  15
ENDBRANCH   1  13
TORSDOF 4
ENDMDL
