MODEL 1
REMARK VINA RESULT:      -6.8      0.000      0.000
REMARK  Name = 
REMARK  5 active torsions:
REMARK  status: ('A' for Active; 'I' for Inactive)
REMARK    1  A    between atoms: C_2  and  C_3
REMARK    2  A    between atoms: C_6  and  C_7
REMARK    3  A    between atoms: C_7  and  C_8
REMARK    4  A    between atoms: C_7  and  N_16
REMARK    5  A    between atoms: C_11  and  C_12
REMARK                            x       y       z     vdW  Elec       q    Type
REMARK                         _______ _______ _______ _____ _____    ______ ____
ROOT
ATOM      1  C   UNL     1     -12.272  13.078  69.725  0.00  0.00    +0.151 C 
ENDROOT
BRANCH   1   5
ATOM      2  C   UNL     1     -12.262   9.080  70.987  0.00  0.00    +0.068 A 
ATOM      3  C   UNL     1     -11.241   9.494  70.138  0.00  0.00    +0.010 A 
ATOM      4  C   UNL     1     -11.204  10.795  69.671  0.00  0.00    -0.001 A 
ATOM      5  C   UNL     1     -11.938  11.774  70.315  0.00  0.00    +0.004 A 
ATOM      6  C   UNL     1     -12.717  11.368  71.393  0.00  0.00    -0.001 A 
ATOM      7  C   UNL     1     -12.945  10.052  71.701  0.00  0.00    +0.010 A 
BRANCH   2   9
ATOM      8  N   UNL     1     -12.459   6.563  71.630  0.00  0.00    -0.191 NA
ATOM      9  C   UNL     1     -12.375   7.682  71.308  0.00  0.00    +0.100 C 
ENDBRANCH   2   9
ENDBRANCH   1   5
BRANCH   1  10
ATOM     10  C   UNL     1     -12.436  14.169  70.686  0.00  0.00    +0.004 A 
ATOM     11  C   UNL     1     -11.534  15.190  70.891  0.00  0.00    -0.001 A 
ATOM     12  C   UNL     1     -11.616  15.881  72.095  0.00  0.00    +0.010 A 
ATOM     13  C   UNL     1     -12.634  15.633  73.009  0.00  0.00    +0.068 A 
ATOM     14  C   UNL     1     -13.747  14.990  72.499  0.00  0.00    +0.010 A 
ATOM     15  C   UNL     1     -13.677  14.282  71.304  0.00  0.00    -0.001 A 
BRANCH  13  16
ATOM     16  C   UNL     1     -12.460  15.872  74.426  0.00  0.00    +0.100 C 
ATOM     17  N   UNL     1     -12.456  16.470  75.428  0.00  0.00    -0.191 NA
ENDBRANCH  13  16
ENDBRANCH   1  10
BRANCH   1  18
ATOM     18  N   UNL     1     -11.459  13.434  68.592  0.00  0.00    -0.224 N 
ATOM     19  N   UNL     1     -10.147  13.638  68.537  0.00  0.00    -0.145 NA
ATOM     20  C   UNL     1      -9.871  13.658  67.212  0.00  0.00    +0.221 A 
ATOM     21  N   UNL     1     -11.002  14.046  66.581  0.00  0.00    -0.201 NA
ATOM     22  C   UNL     1     -12.026  13.886  67.447  0.00  0.00    +0.198 A 
ENDBRANCH   1  18
TORSDOF 5
ENDMDL
MODEL 2
REMARK VINA RESULT:      -6.7      2.883      5.798
REMARK  Name = 
REMARK  5 active torsions:
REMARK  status: ('A' for Active; 'I' for Inactive)
REMARK    1  A    between atoms: C_2  and  C_3
REMARK    2  A    between atoms: C_6  and  C_7
REMARK    3  A    between atoms: C_7  and  C_8
REMARK    4  A    between atoms: C_7  and  N_16
REMARK    5  A    between atoms: C_11  and  C_12
REMARK                            x       y       z     vdW  Elec       q    Type
REMARK                         _______ _______ _______ _____ _____    ______ ____
ROOT
ATOM      1  C   UNL     1     -10.746  13.999  68.518  0.00  0.00    +0.151 C 
ENDROOT
BRANCH   1   5
ATOM      2  C   UNL     1      -8.339  17.426  68.314  0.00  0.00    +0.068 A 
ATOM      3  C   UNL     1      -7.837  16.321  68.993  0.00  0.00    +0.010 A 
ATOM      4  C   UNL     1      -8.594  15.170  69.112  0.00  0.00    -0.001 A 
ATOM      5  C   UNL     1      -9.669  14.967  68.267  0.00  0.00    +0.004 A 
ATOM      6  C   UNL     1      -9.951  15.979  67.355  0.00  0.00    -0.001 A 
ATOM      7  C   UNL     1      -9.361  17.215  67.400  0.00  0.00    +0.010 A 
BRANCH   2   9
ATOM      8  N   UNL     1      -7.012  19.662  68.467  0.00  0.00    -0.191 NA
ATOM      9  C   UNL     1      -7.607  18.663  68.363  0.00  0.00    +0.100 C 
ENDBRANCH   2   9
ENDBRANCH   1   5
BRANCH   1  10
ATOM     10  C   UNL     1     -11.652  14.351  69.612  0.00  0.00    +0.004 A 
ATOM     11  C   UNL     1     -12.076  15.627  69.912  0.00  0.00    -0.001 A 
ATOM     12  C   UNL     1     -12.566  15.850  71.194  0.00  0.00    +0.010 A 
ATOM     13  C   UNL     1     -12.730  14.810  72.103  0.00  0.00    +0.068 A 
ATOM     14  C   UNL     1     -12.774  13.543  71.553  0.00  0.00    +0.010 A 
ATOM     15  C   UNL     1     -12.274  13.301  70.278  0.00  0.00    -0.001 A 
BRANCH  13  16
ATOM     16  C   UNL     1     -12.678  15.033  73.532  0.00  0.00    +0.100 C 
ATOM     17  N   UNL     1     -12.445  15.588  74.532  0.00  0.00    -0.191 NA
ENDBRANCH  13  16
ENDBRANCH   1  10
BRANCH   1  18
ATOM     18  N   UNL     1     -11.430  13.561  67.330  0.00  0.00    -0.224 N 
ATOM     19  N   UNL     1     -12.414  14.156  66.665  0.00  0.00    -0.145 NA
ATOM     20  C   UNL     1     -12.480  13.478  65.496  0.00  0.00    +0.221 A 
ATOM     21  N   UNL     1     -12.001  12.236  65.734  0.00  0.00    -0.201 NA
ATOM     22  C   UNL     1     -11.310  12.283  66.893  0.00  0.00    +0.198 A 
ENDBRANCH   1  18
TORSDOF 5
ENDMDL
MODEL 3
REMARK VINA RESULT:      -6.6      3.522      6.737
REMARK  Name = 
REMARK  5 active torsions:
REMARK  status: ('A' for Active; 'I' for Inactive)
REMARK    1  A    between atoms: C_2  and  C_3
REMARK    2  A    between atoms: C_6  and  C_7
REMARK    3  A    between atoms: C_7  and  C_8
REMARK    4  A    between atoms: C_7  and  N_16
REMARK    5  A    between atoms: C_11  and  C_12
REMARK                            x       y       z     vdW  Elec       q    Type
REMARK                         _______ _______ _______ _____ _____    ______ ____
ROOT
ATOM      1  C   UNL     1     -10.055  16.414  68.019  0.00  0.00    +0.151 C 
ENDROOT
BRANCH   1   5
ATOM      2  C   UNL     1     -12.438  14.550  70.922  0.00  0.00    +0.068 A 
ATOM      3  C   UNL     1     -11.921  15.807  71.218  0.00  0.00    +0.010 A 
ATOM      4  C   UNL     1     -11.110  16.461  70.309  0.00  0.00    -0.001 A 
ATOM      5  C   UNL     1     -11.107  16.063  68.984  0.00  0.00    +0.004 A 
ATOM      6  C   UNL     1     -11.909  14.976  68.653  0.00  0.00    -0.001 A 
ATOM      7  C   UNL     1     -12.516  14.179  69.588  0.00  0.00    +0.010 A 
BRANCH   2   9
ATOM      8  N   UNL     1     -13.628  13.238  72.832  0.00  0.00    -0.191 NA
ATOM      9  C   UNL     1     -13.124  13.821  71.956  0.00  0.00    +0.100 C 
ENDBRANCH   2   9
ENDBRANCH   1   5
BRANCH   1  10
ATOM     10  C   UNL     1     -10.133  15.713  66.737  0.00  0.00    +0.004 A 
ATOM     11  C   UNL     1     -10.666  16.233  65.578  0.00  0.00    -0.001 A 
ATOM     12  C   UNL     1     -11.053  15.330  64.594  0.00  0.00    +0.010 A 
ATOM     13  C   UNL     1     -10.813  13.967  64.720  0.00  0.00    +0.068 A 
ATOM     14  C   UNL     1      -9.839  13.619  65.638  0.00  0.00    +0.010 A 
ATOM     15  C   UNL     1      -9.452  14.505  66.638  0.00  0.00    -0.001 A 
BRANCH  13  16
ATOM     16  C   UNL     1     -11.647  12.982  64.065  0.00  0.00    +0.100 C 
ATOM     17  N   UNL     1     -12.469  12.567  63.348  0.00  0.00    -0.191 NA
ENDBRANCH  13  16
ENDBRANCH   1  10
BRANCH   1  18
ATOM     18  N   UNL     1      -9.834  17.830  67.882  0.00  0.00    -0.224 N 
ATOM     19  N   UNL     1     -10.721  18.796  67.666  0.00  0.00    -0.145 NA
ATOM     20  C   UNL     1     -10.031  19.936  67.909  0.00  0.00    +0.221 A 
ATOM     21  N   UNL     1      -8.728  19.663  67.679  0.00  0.00    -0.201 NA
ATOM     22  C   UNL     1      -8.587  18.320  67.681  0.00  0.00    +0.198 A 
ENDBRANCH   1  18
TORSDOF 5
ENDMDL
MODEL 4
REMARK VINA RESULT:      -6.6      2.844      5.989
REMARK  Name = 
REMARK  5 active torsions:
REMARK  status: ('A' for Active; 'I' for Inactive)
REMARK    1  A    between atoms: C_2  and  C_3
REMARK    2  A    between atoms: C_6  and  C_7
REMARK    3  A    between atoms: C_7  and  C_8
REMARK    4  A    between atoms: C_7  and  N_16
REMARK    5  A    between atoms: C_11  and  C_12
REMARK                            x       y       z     vdW  Elec       q    Type
REMARK                         _______ _______ _______ _____ _____    ______ ____
ROOT
ATOM      1  C   UNL     1     -11.096  11.020  67.389  0.00  0.00    +0.151 C 
ENDROOT
BRANCH   1   5
ATOM      2  C   UNL     1     -12.632  12.871  70.822  0.00  0.00    +0.068 A 
ATOM      3  C   UNL     1     -12.383  11.504  70.880  0.00  0.00    +0.010 A 
ATOM      4  C   UNL     1     -11.897  10.835  69.772  0.00  0.00    -0.001 A 
ATOM      5  C   UNL     1     -11.312  11.549  68.743  0.00  0.00    +0.004 A 
ATOM      6  C   UNL     1     -11.287  12.933  68.875  0.00  0.00    -0.001 A 
ATOM      7  C   UNL     1     -11.981  13.608  69.845  0.00  0.00    +0.010 A 
BRANCH   2   9
ATOM      8  N   UNL     1     -13.872  14.058  72.782  0.00  0.00    -0.191 NA
ATOM      9  C   UNL     1     -13.305  13.501  71.927  0.00  0.00    +0.100 C 
ENDBRANCH   2   9
ENDBRANCH   1   5
BRANCH   1  10
ATOM     10  C   UNL     1     -10.945  12.034  66.345  0.00  0.00    +0.004 A 
ATOM     11  C   UNL     1      -9.786  12.728  66.074  0.00  0.00    -0.001 A 
ATOM     12  C   UNL     1      -9.908  13.923  65.373  0.00  0.00    +0.010 A 
ATOM     13  C   UNL     1     -11.130  14.349  64.866  0.00  0.00    +0.068 A 
ATOM     14  C   UNL     1     -12.094  13.366  64.737  0.00  0.00    +0.010 A 
ATOM     15  C   UNL     1     -11.994  12.172  65.443  0.00  0.00    -0.001 A 
BRANCH  13  16
ATOM     16  C   UNL     1     -11.422  15.751  64.658  0.00  0.00    +0.100 C 
ATOM     17  N   UNL     1     -11.216  16.871  64.402  0.00  0.00    -0.191 NA
ENDBRANCH  13  16
ENDBRANCH   1  10
BRANCH   1  18
ATOM     18  N   UNL     1     -10.107   9.977  67.318  0.00  0.00    -0.224 N 
ATOM     19  N   UNL     1      -8.958   9.870  67.976  0.00  0.00    -0.145 NA
ATOM     20  C   UNL     1      -8.571   8.591  67.758  0.00  0.00    +0.221 A 
ATOM     21  N   UNL     1      -9.129   8.205  66.589  0.00  0.00    -0.201 NA
ATOM     22  C   UNL     1     -10.126   9.072  66.309  0.00  0.00    +0.198 A 
ENDBRANCH   1  18
TORSDOF 5
ENDMDL
MODEL 5
REMARK VINA RESULT:      -6.5      3.485      5.893
REMARK  Name = 
REMARK  5 active torsions:
REMARK  status: ('A' for Active; 'I' for Inactive)
REMARK    1  A    between atoms: C_2  and  C_3
REMARK    2  A    between atoms: C_6  and  C_7
REMARK    3  A    between atoms: C_7  and  C_8
REMARK    4  A    between atoms: C_7  and  N_16
REMARK    5  A    between atoms: C_11  and  C_12
REMARK                            x       y       z     vdW  Elec       q    Type
REMARK                         _______ _______ _______ _____ _____    ______ ____
ROOT
ATOM      1  C   UNL     1     -11.133  15.574  66.602  0.00  0.00    +0.151 C 
ENDROOT
BRANCH   1   5
ATOM      2  C   UNL     1     -12.525  14.356  70.365  0.00  0.00    +0.068 A 
ATOM      3  C   UNL     1     -12.022  13.379  69.513  0.00  0.00    +0.010 A 
ATOM      4  C   UNL     1     -11.569  13.717  68.251  0.00  0.00    -0.001 A 
ATOM      5  C   UNL     1     -11.266  15.035  67.963  0.00  0.00    +0.004 A 
ATOM      6  C   UNL     1     -11.480  15.964  68.975  0.00  0.00    -0.001 A 
ATOM      7  C   UNL     1     -12.155  15.672  70.132  0.00  0.00    +0.010 A 
BRANCH   2   9
ATOM      8  N   UNL     1     -13.664  13.558  72.568  0.00  0.00    -0.191 NA
ATOM      9  C   UNL     1     -13.153  13.949  71.593  0.00  0.00    +0.100 C 
ENDBRANCH   2   9
ENDBRANCH   1   5
BRANCH   1  10
ATOM     10  C   UNL     1     -10.073  16.567  66.430  0.00  0.00    +0.004 A 
ATOM     11  C   UNL     1      -8.721  16.296  66.439  0.00  0.00    -0.001 A 
ATOM     12  C   UNL     1      -7.861  17.359  66.692  0.00  0.00    +0.010 A 
ATOM     13  C   UNL     1      -8.329  18.662  66.820  0.00  0.00    +0.068 A 
ATOM     14  C   UNL     1      -9.584  18.895  66.291  0.00  0.00    +0.010 A 
ATOM     15  C   UNL     1     -10.463  17.845  66.047  0.00  0.00    -0.001 A 
BRANCH  13  16
ATOM     16  C   UNL     1      -7.624  19.650  67.607  0.00  0.00    +0.100 C 
ATOM     17  N   UNL     1      -6.761  20.108  68.247  0.00  0.00    -0.191 NA
ENDBRANCH  13  16
ENDBRANCH   1  10
BRANCH   1  18
ATOM     18  N   UNL     1     -11.147  14.571  65.571  0.00  0.00    -0.224 N 
ATOM     19  N   UNL     1     -10.143  13.828  65.114  0.00  0.00    -0.145 NA
ATOM     20  C   UNL     1     -10.751  12.872  64.373  0.00  0.00    +0.221 A 
ATOM     21  N   UNL     1     -11.926  13.390  63.950  0.00  0.00    -0.201 NA
ATOM     22  C   UNL     1     -12.199  14.463  64.723  0.00  0.00    +0.198 A 
ENDBRANCH   1  18
TORSDOF 5
ENDMDL
MODEL 6
REMARK VINA RESULT:      -6.5      2.987      4.933
REMARK  Name = 
REMARK  5 active torsions:
REMARK  status: ('A' for Active; 'I' for Inactive)
REMARK    1  A    between atoms: C_2  and  C_3
REMARK    2  A    between atoms: C_6  and  C_7
REMARK    3  A    between atoms: C_7  and  C_8
REMARK    4  A    between atoms: C_7  and  N_16
REMARK    5  A    between atoms: C_11  and  C_12
REMARK                            x       y       z     vdW  Elec       q    Type
REMARK                         _______ _______ _______ _____ _____    ______ ____
ROOT
ATOM      1  C   UNL     1     -11.198  13.993  66.693  0.00  0.00    +0.151 C 
ENDROOT
BRANCH   1   5
ATOM      2  C   UNL     1     -12.113  11.526  69.956  0.00  0.00    +0.068 A 
ATOM      3  C   UNL     1     -11.490  10.943  68.857  0.00  0.00    +0.010 A 
ATOM      4  C   UNL     1     -11.184  11.702  67.743  0.00  0.00    -0.001 A 
ATOM      5  C   UNL     1     -11.147  13.080  67.843  0.00  0.00    +0.004 A 
ATOM      6  C   UNL     1     -11.467  13.629  69.080  0.00  0.00    -0.001 A 
ATOM      7  C   UNL     1     -12.005  12.900  70.108  0.00  0.00    +0.010 A 
BRANCH   2   9
ATOM      8  N   UNL     1     -13.019   9.996  71.860  0.00  0.00    -0.191 NA
ATOM      9  C   UNL     1     -12.580  10.677  71.020  0.00  0.00    +0.100 C 
ENDBRANCH   2   9
ENDBRANCH   1   5
BRANCH   1  10
ATOM     10  C   UNL     1     -10.079  14.931  66.596  0.00  0.00    +0.004 A 
ATOM     11  C   UNL     1      -8.755  14.613  66.812  0.00  0.00    -0.001 A 
ATOM     12  C   UNL     1      -7.888  15.660  67.103  0.00  0.00    +0.010 A 
ATOM     13  C   UNL     1      -8.307  16.986  67.069  0.00  0.00    +0.068 A 
ATOM     14  C   UNL     1      -9.468  17.222  66.355  0.00  0.00    +0.010 A 
ATOM     15  C   UNL     1     -10.353  16.188  66.069  0.00  0.00    -0.001 A 
BRANCH  13  16
ATOM     16  C   UNL     1      -7.670  18.007  67.871  0.00  0.00    +0.100 C 
ATOM     17  N   UNL     1      -7.588  18.897  68.622  0.00  0.00    -0.191 NA
ENDBRANCH  13  16
ENDBRANCH   1  10
BRANCH   1  18
ATOM     18  N   UNL     1     -11.509  13.348  65.445  0.00  0.00    -0.224 N 
ATOM     19  N   UNL     1     -10.686  12.970  64.472  0.00  0.00    -0.145 NA
ATOM     20  C   UNL     1     -11.449  12.173  63.686  0.00  0.00    +0.221 A 
ATOM     21  N   UNL     1     -12.731  12.564  63.858  0.00  0.00    -0.201 NA
ATOM     22  C   UNL     1     -12.785  13.297  64.990  0.00  0.00    +0.198 A 
ENDBRANCH   1  18
TORSDOF 5
ENDMDL
MODEL 7
REMARK VINA RESULT:      -6.5      3.490      6.259
REMARK  Name = 
REMARK  5 active torsions:
REMARK  status: ('A' for Active; 'I' for Inactive)
REMARK    1  A    between atoms: C_2  and  C_3
REMARK    2  A    between atoms: C_6  and  C_7
REMARK    3  A    between atoms: C_7  and  C_8
REMARK    4  A    between atoms: C_7  and  N_16
REMARK    5  A    between atoms: C_11  and  C_12
REMARK                            x       y       z     vdW  Elec       q    Type
REMARK                         _______ _______ _______ _____ _____    ______ ____
ROOT
ATOM      1  C   UNL     1     -10.191  11.241  68.515  0.00  0.00    +0.151 C 
ENDROOT
BRANCH   1   5
ATOM      2  C   UNL     1     -10.935  14.545  66.044  0.00  0.00    +0.068 A 
ATOM      3  C   UNL     1     -11.852  13.500  66.021  0.00  0.00    +0.010 A 
ATOM      4  C   UNL     1     -11.648  12.374  66.798  0.00  0.00    -0.001 A 
ATOM      5  C   UNL     1     -10.762  12.426  67.858  0.00  0.00    +0.004 A 
ATOM      6  C   UNL     1     -10.086  13.625  68.054  0.00  0.00    -0.001 A 
ATOM      7  C   UNL     1     -10.101  14.652  67.147  0.00  0.00    +0.010 A 
BRANCH   2   9
ATOM      8  N   UNL     1     -11.258  16.492  64.343  0.00  0.00    -0.191 NA
ATOM      9  C   UNL     1     -11.080  15.616  65.094  0.00  0.00    +0.100 C 
ENDBRANCH   2   9
ENDBRANCH   1   5
BRANCH   1  10
ATOM     10  C   UNL     1     -10.897  10.801  69.719  0.00  0.00    +0.004 A 
ATOM     11  C   UNL     1     -10.503   9.764  70.536  0.00  0.00    -0.001 A 
ATOM     12  C   UNL     1     -11.469   9.202  71.363  0.00  0.00    +0.010 A 
ATOM     13  C   UNL     1     -12.752   9.732  71.450  0.00  0.00    +0.068 A 
ATOM     14  C   UNL     1     -12.885  11.037  71.011  0.00  0.00    +0.010 A 
ATOM     15  C   UNL     1     -11.935  11.608  70.171  0.00  0.00    -0.001 A 
BRANCH  13  16
ATOM     16  C   UNL     1     -13.891   8.916  71.808  0.00  0.00    +0.100 C 
ATOM     17  N   UNL     1     -14.721   8.456  72.490  0.00  0.00    -0.191 NA
ENDBRANCH  13  16
ENDBRANCH   1  10
BRANCH   1  18
ATOM     18  N   UNL     1      -9.877  10.165  67.613  0.00  0.00    -0.224 N 
ATOM     19  N   UNL     1     -10.628   9.128  67.256  0.00  0.00    -0.145 NA
ATOM     20  C   UNL     1      -9.977   8.600  66.193  0.00  0.00    +0.221 A 
ATOM     21  N   UNL     1      -8.673   8.930  66.328  0.00  0.00    -0.201 NA
ATOM     22  C   UNL     1      -8.600   9.944  67.217  0.00  0.00    +0.198 A 
ENDBRANCH   1  18
TORSDOF 5
ENDMDL
MODEL 8
REMARK VINA RESULT:      -6.4      2.941      7.186
REMARK  Name = 
REMARK  5 active torsions:
REMARK  status: ('A' for Active; 'I' for Inactive)
REMARK    1  A    between atoms: C_2  and  C_3
REMARK    2  A    between atoms: C_6  and  C_7
REMARK    3  A    between atoms: C_7  and  C_8
REMARK    4  A    between atoms: C_7  and  N_16
REMARK    5  A    between atoms: C_11  and  C_12
REMARK                            x       y       z     vdW  Elec       q    Type
REMARK                         _______ _______ _______ _____ _____    ______ ____
ROOT
ATOM      1  C   UNL     1     -11.870  15.511  69.530  0.00  0.00    +0.151 C 
ENDROOT
BRANCH   1   5
ATOM      2  C   UNL     1      -8.070  16.811  68.327  0.00  0.00    +0.068 A 
ATOM      3  C   UNL     1      -9.064  17.771  68.482  0.00  0.00    +0.010 A 
ATOM      4  C   UNL     1     -10.343  17.400  68.855  0.00  0.00    -0.001 A 
ATOM      5  C   UNL     1     -10.555  16.160  69.429  0.00  0.00    +0.004 A 
ATOM      6  C   UNL     1      -9.446  15.331  69.560  0.00  0.00    -0.001 A 
ATOM      7  C   UNL     1      -8.237  15.595  68.972  0.00  0.00    +0.010 A 
BRANCH   2   9
ATOM      8  N   UNL     1      -5.800  17.501  67.252  0.00  0.00    -0.191 NA
ATOM      9  C   UNL     1      -6.806  17.206  67.765  0.00  0.00    +0.100 C 
ENDBRANCH   2   9
ENDBRANCH   1   5
BRANCH   1  10
ATOM     10  C   UNL     1     -11.929  14.149  68.998  0.00  0.00    +0.004 A 
ATOM     11  C   UNL     1     -12.031  13.003  69.757  0.00  0.00    -0.001 A 
ATOM     12  C   UNL     1     -11.652  11.807  69.159  0.00  0.00    +0.010 A 
ATOM     13  C   UNL     1     -11.290  11.745  67.817  0.00  0.00    +0.068 A 
ATOM     14  C   UNL     1     -11.711  12.808  67.040  0.00  0.00    +0.010 A 
ATOM     15  C   UNL     1     -12.080  14.016  67.622  0.00  0.00    -0.001 A 
BRANCH  13  16
ATOM     16  C   UNL     1     -10.388  10.730  67.318  0.00  0.00    +0.100 C 
ATOM     17  N   UNL     1      -9.968   9.923  66.587  0.00  0.00    -0.191 NA
ENDBRANCH  13  16
ENDBRANCH   1  10
BRANCH   1  18
ATOM     18  N   UNL     1     -12.494  15.647  70.819  0.00  0.00    -0.224 N 
ATOM     19  N   UNL     1     -13.785  15.600  71.131  0.00  0.00    -0.145 NA
ATOM     20  C   UNL     1     -13.794  15.495  72.481  0.00  0.00    +0.221 A 
ATOM     21  N   UNL     1     -12.646  16.051  72.926  0.00  0.00    -0.201 NA
ATOM     22  C   UNL     1     -11.800  16.133  71.877  0.00  0.00    +0.198 A 
ENDBRANCH   1  18
TORSDOF 5
ENDMDL
MODEL 9
REMARK VINA RESULT:      -6.3      1.995      5.991
REMARK  Name = 
REMARK  5 active torsions:
REMARK  status: ('A' for Active; 'I' for Inactive)
REMARK    1  A    between atoms: C_2  and  C_3
REMARK    2  A    between atoms: C_6  and  C_7
REMARK    3  A    between atoms: C_7  and  C_8
REMARK    4  A    between atoms: C_7  and  N_16
REMARK    5  A    between atoms: C_11  and  C_12
REMARK                            x       y       z     vdW  Elec       q    Type
REMARK                         _______ _______ _______ _____ _____    ______ ____
ROOT
ATOM      1  C   UNL     1     -10.634  13.417  67.182  0.00  0.00    +0.151 C 
ENDROOT
BRANCH   1   5
ATOM      2  C   UNL     1     -11.728  15.303  70.763  0.00  0.00    +0.068 A 
ATOM      3  C   UNL     1     -11.297  16.106  69.713  0.00  0.00    +0.010 A 
ATOM      4  C   UNL     1     -10.902  15.540  68.515  0.00  0.00    -0.001 A 
ATOM      5  C   UNL     1     -11.273  14.241  68.217  0.00  0.00    +0.004 A 
ATOM      6  C   UNL     1     -12.004  13.560  69.184  0.00  0.00    -0.001 A 
ATOM      7  C   UNL     1     -12.183  14.028  70.459  0.00  0.00    +0.010 A 
BRANCH   2   9
ATOM      8  N   UNL     1     -12.115  16.341  73.121  0.00  0.00    -0.191 NA
ATOM      9  C   UNL     1     -11.957  15.905  72.050  0.00  0.00    +0.100 C 
ENDBRANCH   2   9
ENDBRANCH   1   5
BRANCH   1  10
ATOM     10  C   UNL     1     -10.312  12.049  67.592  0.00  0.00    +0.004 A 
ATOM     11  C   UNL     1     -11.025  10.925  67.236  0.00  0.00    -0.001 A 
ATOM     12  C   UNL     1     -10.863   9.792  68.025  0.00  0.00    +0.010 A 
ATOM     13  C   UNL     1      -9.939   9.753  69.064  0.00  0.00    +0.068 A 
ATOM     14  C   UNL     1      -8.942  10.708  69.006  0.00  0.00    +0.010 A 
ATOM     15  C   UNL     1      -9.094  11.854  68.233  0.00  0.00    -0.001 A 
BRANCH  13  16
ATOM     16  C   UNL     1     -10.118   8.888  70.210  0.00  0.00    +0.100 C 
ATOM     17  N   UNL     1     -10.582   8.037  70.860  0.00  0.00    -0.191 NA
ENDBRANCH  13  16
ENDBRANCH   1  10
BRANCH   1  18
ATOM     18  N   UNL     1     -11.274  13.491  65.895  0.00  0.00    -0.224 N 
ATOM     19  N   UNL     1     -10.734  13.383  64.686  0.00  0.00    -0.145 NA
ATOM     20  C   UNL     1     -11.797  13.239  63.861  0.00  0.00    +0.221 A 
ATOM     21  N   UNL     1     -12.850  13.829  64.470  0.00  0.00    -0.201 NA
ATOM     22  C   UNL     1     -12.535  13.975  65.775  0.00  0.00    +0.198 A 
ENDBRANCH   1  18
TORSDOF 5
ENDMDL
