MODEL 1
REMARK VINA RESULT:      -4.6      0.000      0.000
REMARK  Name = 
REMARK  0 active torsions:
REMARK  status: ('A' for Active; 'I' for Inactive)
REMARK                            x       y       z     vdW  Elec       q    Type
REMARK                         _______ _______ _______ _____ _____    ______ ____
ROOT
ATOM      1  N   UNL     1     -11.322  16.674  64.250  0.00  0.00    -0.105 NA
ATOM      2  C   UNL     1     -10.812  15.592  64.997  0.00  0.00    +0.192 A 
ATOM      3  C   UNL     1     -11.317  14.304  64.860  0.00  0.00    +0.153 A 
ATOM      4  C   UNL     1     -10.987  13.358  65.824  0.00  0.00    +0.186 A 
ATOM      5  N   UNL     1     -12.007  12.464  65.804  0.00  0.00    -0.203 NA
ATOM      6  C   UNL     1     -12.775  12.674  64.707  0.00  0.00    +0.200 A 
ATOM      7  N   UNL     1     -10.275  13.768  66.901  0.00  0.00    -0.203 NA
ATOM      8  C   UNL     1      -9.454  14.828  66.716  0.00  0.00    +0.202 A 
ATOM      9  N   UNL     1     -12.444  13.897  64.228  0.00  0.00    -0.218 NA
ATOM     10  N   UNL     1      -9.779  15.774  65.821  0.00  0.00    -0.204 NA
ENDROOT
TORSDOF 0
ENDMDL
MODEL 2
REMARK VINA RESULT:      -4.6      1.682      2.835
REMARK  Name = 
REMARK  0 active torsions:
REMARK  status: ('A' for Active; 'I' for Inactive)
REMARK                            x       y       z     vdW  Elec       q    Type
REMARK                         _______ _______ _______ _____ _____    ______ ____
ROOT
ATOM      1  N   UNL     1     -12.125  15.963  64.061  0.00  0.00    -0.105 NA
ATOM      2  C   UNL     1     -12.247  14.583  64.317  0.00  0.00    +0.192 A 
ATOM      3  C   UNL     1     -12.252  14.074  65.612  0.00  0.00    +0.153 A 
ATOM      4  C   UNL     1     -12.072  12.708  65.787  0.00  0.00    +0.186 A 
ATOM      5  N   UNL     1     -11.539  12.578  67.028  0.00  0.00    -0.203 NA
ATOM      6  C   UNL     1     -11.649  13.753  67.695  0.00  0.00    +0.200 A 
ATOM      7  N   UNL     1     -11.798  11.956  64.693  0.00  0.00    -0.203 NA
ATOM      8  C   UNL     1     -12.283  12.406  63.512  0.00  0.00    +0.202 A 
ATOM      9  N   UNL     1     -11.933  14.701  66.770  0.00  0.00    -0.218 NA
ATOM     10  N   UNL     1     -12.421  13.726  63.310  0.00  0.00    -0.204 NA
ENDROOT
TORSDOF 0
ENDMDL
MODEL 3
REMARK VINA RESULT:      -4.5      5.754      6.917
REMARK  Name = 
REMARK  0 active torsions:
REMARK  status: ('A' for Active; 'I' for Inactive)
REMARK                            x       y       z     vdW  Elec       q    Type
REMARK                         _______ _______ _______ _____ _____    ______ ____
ROOT
ATOM      1  N   UNL     1     -13.478  12.583  72.097  0.00  0.00    -0.105 NA
ATOM      2  C   UNL     1     -13.159  13.954  72.159  0.00  0.00    +0.192 A 
ATOM      3  C   UNL     1     -12.753  14.665  71.035  0.00  0.00    +0.153 A 
ATOM      4  C   UNL     1     -12.172  15.914  71.215  0.00  0.00    +0.186 A 
ATOM      5  N   UNL     1     -11.377  16.093  70.131  0.00  0.00    -0.203 NA
ATOM      6  C   UNL     1     -11.663  15.154  69.197  0.00  0.00    +0.200 A 
ATOM      7  N   UNL     1     -11.938  16.331  72.483  0.00  0.00    -0.203 NA
ATOM      8  C   UNL     1     -12.764  15.848  73.441  0.00  0.00    +0.202 A 
ATOM      9  N   UNL     1     -12.383  14.191  69.821  0.00  0.00    -0.218 NA
ATOM     10  N   UNL     1     -13.299  14.625  73.304  0.00  0.00    -0.204 NA
ENDROOT
TORSDOF 0
ENDMDL
MODEL 4
REMARK VINA RESULT:      -4.4      2.868      4.780
REMARK  Name = 
REMARK  0 active torsions:
REMARK  status: ('A' for Active; 'I' for Inactive)
REMARK                            x       y       z     vdW  Elec       q    Type
REMARK                         _______ _______ _______ _____ _____    ______ ____
ROOT
ATOM      1  N   UNL     1     -11.638  16.294  69.225  0.00  0.00    -0.105 NA
ATOM      2  C   UNL     1     -10.980  16.357  67.980  0.00  0.00    +0.192 A 
ATOM      3  C   UNL     1     -10.524  17.560  67.451  0.00  0.00    +0.153 A 
ATOM      4  C   UNL     1     -10.163  17.599  66.110  0.00  0.00    +0.186 A 
ATOM      5  N   UNL     1     -10.343  18.890  65.733  0.00  0.00    -0.203 NA
ATOM      6  C   UNL     1     -10.523  19.663  66.832  0.00  0.00    +0.200 A 
ATOM      7  N   UNL     1     -10.372  16.489  65.362  0.00  0.00    -0.203 NA
ATOM      8  C   UNL     1     -10.338  15.303  66.015  0.00  0.00    +0.202 A 
ATOM      9  N   UNL     1     -10.796  18.823  67.859  0.00  0.00    -0.218 NA
ATOM     10  N   UNL     1     -10.725  15.240  67.298  0.00  0.00    -0.204 NA
ENDROOT
TORSDOF 0
ENDMDL
MODEL 5
REMARK VINA RESULT:      -4.4      1.076      3.696
REMARK  Name = 
REMARK  0 active torsions:
REMARK  status: ('A' for Active; 'I' for Inactive)
REMARK                            x       y       z     vdW  Elec       q    Type
REMARK                         _______ _______ _______ _____ _____    ______ ____
ROOT
ATOM      1  N   UNL     1     -11.815  13.236  68.175  0.00  0.00    -0.105 NA
ATOM      2  C   UNL     1     -11.749  13.401  66.777  0.00  0.00    +0.192 A 
ATOM      3  C   UNL     1     -11.068  14.464  66.194  0.00  0.00    +0.153 A 
ATOM      4  C   UNL     1     -11.290  14.736  64.850  0.00  0.00    +0.186 A 
ATOM      5  N   UNL     1     -11.025  16.059  64.709  0.00  0.00    -0.203 NA
ATOM      6  C   UNL     1     -10.400  16.518  65.820  0.00  0.00    +0.200 A 
ATOM      7  N   UNL     1     -12.237  14.015  64.202  0.00  0.00    -0.203 NA
ATOM      8  C   UNL     1     -12.466  12.763  64.663  0.00  0.00    +0.202 A 
ATOM      9  N   UNL     1     -10.579  15.582  66.782  0.00  0.00    -0.218 NA
ATOM     10  N   UNL     1     -12.298  12.493  65.968  0.00  0.00    -0.204 NA
ENDROOT
TORSDOF 0
ENDMDL
MODEL 6
REMARK VINA RESULT:      -4.3      2.970      4.063
REMARK  Name = 
REMARK  0 active torsions:
REMARK  status: ('A' for Active; 'I' for Inactive)
REMARK                            x       y       z     vdW  Elec       q    Type
REMARK                         _______ _______ _______ _____ _____    ______ ____
ROOT
ATOM      1  N   UNL     1     -10.920  16.669  64.594  0.00  0.00    -0.105 NA
ATOM      2  C   UNL     1     -10.588  17.357  65.779  0.00  0.00    +0.192 A 
ATOM      3  C   UNL     1     -10.551  16.717  67.013  0.00  0.00    +0.153 A 
ATOM      4  C   UNL     1     -10.517  17.497  68.162  0.00  0.00    +0.186 A 
ATOM      5  N   UNL     1     -11.069  16.723  69.130  0.00  0.00    -0.203 NA
ATOM      6  C   UNL     1     -11.173  15.446  68.688  0.00  0.00    +0.200 A 
ATOM      7  N   UNL     1     -10.625  18.840  68.024  0.00  0.00    -0.203 NA
ATOM      8  C   UNL     1     -10.175  19.368  66.862  0.00  0.00    +0.202 A 
ATOM      9  N   UNL     1     -11.009  15.486  67.343  0.00  0.00    -0.218 NA
ATOM     10  N   UNL     1     -10.241  18.644  65.733  0.00  0.00    -0.204 NA
ENDROOT
TORSDOF 0
ENDMDL
MODEL 7
REMARK VINA RESULT:      -4.2      1.477      2.988
REMARK  Name = 
REMARK  0 active torsions:
REMARK  status: ('A' for Active; 'I' for Inactive)
REMARK                            x       y       z     vdW  Elec       q    Type
REMARK                         _______ _______ _______ _____ _____    ______ ____
ROOT
ATOM      1  N   UNL     1     -13.170  12.221  64.323  0.00  0.00    -0.105 NA
ATOM      2  C   UNL     1     -12.262  13.082  64.971  0.00  0.00    +0.192 A 
ATOM      3  C   UNL     1     -11.666  12.745  66.181  0.00  0.00    +0.153 A 
ATOM      4  C   UNL     1     -11.028  13.744  66.906  0.00  0.00    +0.186 A 
ATOM      5  N   UNL     1     -11.082  13.333  68.197  0.00  0.00    -0.203 NA
ATOM      6  C   UNL     1     -11.466  12.033  68.245  0.00  0.00    +0.200 A 
ATOM      7  N   UNL     1     -11.109  15.016  66.445  0.00  0.00    -0.203 NA
ATOM      8  C   UNL     1     -11.253  15.168  65.108  0.00  0.00    +0.202 A 
ATOM      9  N   UNL     1     -11.977  11.734  67.027  0.00  0.00    -0.218 NA
ATOM     10  N   UNL     1     -11.906  14.233  64.399  0.00  0.00    -0.204 NA
ENDROOT
TORSDOF 0
ENDMDL
MODEL 8
REMARK VINA RESULT:      -4.1      1.033      2.423
REMARK  Name = 
REMARK  0 active torsions:
REMARK  status: ('A' for Active; 'I' for Inactive)
REMARK                            x       y       z     vdW  Elec       q    Type
REMARK                         _______ _______ _______ _____ _____    ______ ____
ROOT
ATOM      1  N   UNL     1      -8.929  15.379  66.130  0.00  0.00    -0.105 NA
ATOM      2  C   UNL     1     -10.247  15.214  65.660  0.00  0.00    +0.192 A 
ATOM      3  C   UNL     1     -11.035  14.136  66.049  0.00  0.00    +0.153 A 
ATOM      4  C   UNL     1     -12.194  13.869  65.329  0.00  0.00    +0.186 A 
ATOM      5  N   UNL     1     -12.414  12.541  65.495  0.00  0.00    -0.203 NA
ATOM      6  C   UNL     1     -11.616  12.067  66.483  0.00  0.00    +0.200 A 
ATOM      7  N   UNL     1     -12.442  14.611  64.223  0.00  0.00    -0.203 NA
ATOM      8  C   UNL     1     -11.939  15.868  64.212  0.00  0.00    +0.202 A 
ATOM      9  N   UNL     1     -10.666  13.007  66.701  0.00  0.00    -0.218 NA
ATOM     10  N   UNL     1     -10.796  16.133  64.865  0.00  0.00    -0.204 NA
ENDROOT
TORSDOF 0
ENDMDL
MODEL 9
REMARK VINA RESULT:      -4.0      2.773      3.749
REMARK  Name = 
REMARK  0 active torsions:
REMARK  status: ('A' for Active; 'I' for Inactive)
REMARK                            x       y       z     vdW  Elec       q    Type
REMARK                         _______ _______ _______ _____ _____    ______ ____
ROOT
ATOM      1  N   UNL     1     -12.414  12.539  65.482  0.00  0.00    -0.105 NA
ATOM      2  C   UNL     1     -11.987  13.126  66.690  0.00  0.00    +0.192 A 
ATOM      3  C   UNL     1     -11.706  12.363  67.818  0.00  0.00    +0.153 A 
ATOM      4  C   UNL     1     -11.585  13.009  69.042  0.00  0.00    +0.186 A 
ATOM      5  N   UNL     1     -11.908  12.074  69.969  0.00  0.00    -0.203 NA
ATOM      6  C   UNL     1     -11.944  10.850  69.387  0.00  0.00    +0.200 A 
ATOM      7  N   UNL     1     -11.849  14.338  69.089  0.00  0.00    -0.203 NA
ATOM      8  C   UNL     1     -11.629  15.040  67.953  0.00  0.00    +0.202 A 
ATOM      9  N   UNL     1     -11.982  11.057  68.049  0.00  0.00    -0.218 NA
ATOM     10  N   UNL     1     -11.784  14.442  66.761  0.00  0.00    -0.204 NA
ENDROOT
TORSDOF 0
ENDMDL
