MODEL 1
REMARK VINA RESULT:      -5.2      0.000      0.000
REMARK  Name = 
REMARK  1 active torsions:
REMARK  status: ('A' for Active; 'I' for Inactive)
REMARK    1  A    between atoms: C_6  and  C_8
REMARK                            x       y       z     vdW  Elec       q    Type
REMARK                         _______ _______ _______ _____ _____    ______ ____
ROOT
ATOM      1  C   UNL     1     -12.385  12.182  63.566  0.00  0.00    +0.123 C 
ATOM      2  N   UNL     1     -11.889  12.631  64.550  0.00  0.00    -0.228 N 
ATOM      3  C   UNL     1     -10.717  12.177  65.240  0.00  0.00    +0.235 C 
ATOM      4  O   UNL     1      -9.860  11.453  64.648  0.00  0.00    -0.274 OA
ATOM      5  C   UNL     1     -10.567  12.908  66.521  0.00  0.00    +0.097 C 
ATOM      6  C   UNL     1      -9.117  13.179  66.814  0.00  0.00    +0.014 C 
ATOM      7  C   UNL     1     -11.315  14.205  66.256  0.00  0.00    +0.098 C 
ATOM      8  C   UNL     1     -12.392  13.723  65.334  0.00  0.00    +0.232 C 
ATOM      9  O   UNL     1     -13.615  14.055  65.349  0.00  0.00    -0.274 OA
ENDROOT
BRANCH   5  10
ATOM     10  C   UNL     1     -11.234  12.183  67.623  0.00  0.00    -0.014 A 
ATOM     11  C   UNL     1     -11.744  12.869  68.715  0.00  0.00    -0.004 A 
ATOM     12  C   UNL     1     -11.921  12.227  69.919  0.00  0.00    -0.000 A 
ATOM     13  C   UNL     1     -12.023  10.842  69.915  0.00  0.00    -0.000 A 
ATOM     14  C   UNL     1     -11.306  10.155  68.951  0.00  0.00    -0.000 A 
ATOM     15  C   UNL     1     -11.112  10.821  67.747  0.00  0.00    -0.004 A 
ENDBRANCH   5  10
TORSDOF 1
ENDMDL
MODEL 2
REMARK VINA RESULT:      -5.2      1.714      2.353
REMARK  Name = 
REMARK  1 active torsions:
REMARK  status: ('A' for Active; 'I' for Inactive)
REMARK    1  A    between atoms: C_6  and  C_8
REMARK                            x       y       z     vdW  Elec       q    Type
REMARK                         _______ _______ _______ _____ _____    ______ ____
ROOT
ATOM      1  C   UNL     1     -12.436  12.208  64.150  0.00  0.00    +0.123 C 
ATOM      2  N   UNL     1     -11.732  12.959  64.747  0.00  0.00    -0.228 N 
ATOM      3  C   UNL     1     -10.827  12.664  65.820  0.00  0.00    +0.235 C 
ATOM      4  O   UNL     1     -10.406  11.480  66.002  0.00  0.00    -0.274 OA
ATOM      5  C   UNL     1     -10.292  13.922  66.393  0.00  0.00    +0.097 C 
ATOM      6  C   UNL     1      -8.850  13.758  66.790  0.00  0.00    +0.014 C 
ATOM      7  C   UNL     1     -10.425  14.900  65.237  0.00  0.00    +0.098 C 
ATOM      8  C   UNL     1     -11.662  14.381  64.572  0.00  0.00    +0.232 C 
ATOM      9  O   UNL     1     -12.620  15.065  64.101  0.00  0.00    -0.274 OA
ENDROOT
BRANCH   5  10
ATOM     10  C   UNL     1     -11.132  14.387  67.517  0.00  0.00    -0.014 A 
ATOM     11  C   UNL     1     -11.100  15.713  67.923  0.00  0.00    -0.004 A 
ATOM     12  C   UNL     1     -11.472  16.058  69.202  0.00  0.00    -0.000 A 
ATOM     13  C   UNL     1     -12.285  15.181  69.908  0.00  0.00    -0.000 A 
ATOM     14  C   UNL     1     -12.129  13.829  69.656  0.00  0.00    -0.000 A 
ATOM     15  C   UNL     1     -11.731  13.492  68.369  0.00  0.00    -0.004 A 
ENDBRANCH   5  10
TORSDOF 1
ENDMDL
MODEL 3
REMARK VINA RESULT:      -5.1      1.524      4.091
REMARK  Name = 
REMARK  1 active torsions:
REMARK  status: ('A' for Active; 'I' for Inactive)
REMARK    1  A    between atoms: C_6  and  C_8
REMARK                            x       y       z     vdW  Elec       q    Type
REMARK                         _______ _______ _______ _____ _____    ______ ____
ROOT
ATOM      1  C   UNL     1     -12.293  12.141  63.449  0.00  0.00    +0.123 C 
ATOM      2  N   UNL     1     -11.859  12.320  64.542  0.00  0.00    -0.228 N 
ATOM      3  C   UNL     1     -12.190  13.362  65.470  0.00  0.00    +0.235 C 
ATOM      4  O   UNL     1     -13.278  14.006  65.355  0.00  0.00    -0.274 OA
ATOM      5  C   UNL     1     -11.276  13.313  66.636  0.00  0.00    +0.097 C 
ATOM      6  C   UNL     1     -12.009  13.658  67.904  0.00  0.00    +0.014 C 
ATOM      7  C   UNL     1     -10.829  11.860  66.650  0.00  0.00    +0.098 C 
ATOM      8  C   UNL     1     -10.831  11.552  65.185  0.00  0.00    +0.232 C 
ATOM      9  O   UNL     1      -9.962  10.891  64.543  0.00  0.00    -0.274 OA
ENDROOT
BRANCH   5  10
ATOM     10  C   UNL     1     -10.098  14.178  66.418  0.00  0.00    -0.014 A 
ATOM     11  C   UNL     1      -8.887  13.894  67.032  0.00  0.00    -0.004 A 
ATOM     12  C   UNL     1      -7.960  14.889  67.236  0.00  0.00    -0.000 A 
ATOM     13  C   UNL     1      -8.036  16.029  66.446  0.00  0.00    -0.000 A 
ATOM     14  C   UNL     1      -9.295  16.435  66.037  0.00  0.00    -0.000 A 
ATOM     15  C   UNL     1     -10.231  15.425  65.857  0.00  0.00    -0.004 A 
ENDBRANCH   5  10
TORSDOF 1
ENDMDL
MODEL 4
REMARK VINA RESULT:      -5.1      3.130      4.544
REMARK  Name = 
REMARK  1 active torsions:
REMARK  status: ('A' for Active; 'I' for Inactive)
REMARK    1  A    between atoms: C_6  and  C_8
REMARK                            x       y       z     vdW  Elec       q    Type
REMARK                         _______ _______ _______ _____ _____    ______ ____
ROOT
ATOM      1  C   UNL     1     -10.560  18.351  67.409  0.00  0.00    +0.123 C 
ATOM      2  N   UNL     1     -10.285  17.203  67.555  0.00  0.00    -0.228 N 
ATOM      3  C   UNL     1      -9.494  16.364  66.702  0.00  0.00    +0.235 C 
ATOM      4  O   UNL     1      -8.683  16.873  65.869  0.00  0.00    -0.274 OA
ATOM      5  C   UNL     1      -9.565  14.958  67.166  0.00  0.00    +0.097 C 
ATOM      6  C   UNL     1      -8.240  14.268  66.986  0.00  0.00    +0.014 C 
ATOM      7  C   UNL     1      -9.899  15.108  68.641  0.00  0.00    +0.098 C 
ATOM      8  C   UNL     1     -10.740  16.346  68.613  0.00  0.00    +0.232 C 
ATOM      9  O   UNL     1     -11.810  16.557  69.257  0.00  0.00    -0.274 OA
ENDROOT
BRANCH   5  10
ATOM     10  C   UNL     1     -10.665  14.236  66.493  0.00  0.00    -0.014 A 
ATOM     11  C   UNL     1     -11.083  12.995  66.951  0.00  0.00    -0.004 A 
ATOM     12  C   UNL     1     -11.730  12.124  66.106  0.00  0.00    -0.000 A 
ATOM     13  C   UNL     1     -12.351  12.643  64.978  0.00  0.00    -0.000 A 
ATOM     14  C   UNL     1     -11.773  13.755  64.389  0.00  0.00    -0.000 A 
ATOM     15  C   UNL     1     -11.101  14.617  65.247  0.00  0.00    -0.004 A 
ENDBRANCH   5  10
TORSDOF 1
ENDMDL
MODEL 5
REMARK VINA RESULT:      -5.0      2.329      3.039
REMARK  Name = 
REMARK  1 active torsions:
REMARK  status: ('A' for Active; 'I' for Inactive)
REMARK    1  A    between atoms: C_6  and  C_8
REMARK                            x       y       z     vdW  Elec       q    Type
REMARK                         _______ _______ _______ _____ _____    ______ ____
ROOT
ATOM      1  C   UNL     1     -11.213  11.804  66.246  0.00  0.00    +0.123 C 
ATOM      2  N   UNL     1     -11.130  12.828  66.848  0.00  0.00    -0.228 N 
ATOM      3  C   UNL     1     -10.379  13.100  68.039  0.00  0.00    +0.235 C 
ATOM      4  O   UNL     1      -9.410  12.352  68.375  0.00  0.00    -0.274 OA
ATOM      5  C   UNL     1     -10.711  14.450  68.551  0.00  0.00    +0.097 C 
ATOM      6  C   UNL     1      -9.491  15.120  69.123  0.00  0.00    +0.014 C 
ATOM      7  C   UNL     1     -11.188  15.174  67.302  0.00  0.00    +0.098 C 
ATOM      8  C   UNL     1     -11.827  14.047  66.552  0.00  0.00    +0.232 C 
ATOM      9  O   UNL     1     -12.921  14.078  65.915  0.00  0.00    -0.274 OA
ENDROOT
BRANCH   5  10
ATOM     10  C   UNL     1     -11.821  14.386  69.525  0.00  0.00    -0.014 A 
ATOM     11  C   UNL     1     -12.400  15.547  70.017  0.00  0.00    -0.004 A 
ATOM     12  C   UNL     1     -13.061  15.536  71.222  0.00  0.00    -0.000 A 
ATOM     13  C   UNL     1     -13.531  14.322  71.704  0.00  0.00    -0.000 A 
ATOM     14  C   UNL     1     -12.796  13.190  71.397  0.00  0.00    -0.000 A 
ATOM     15  C   UNL     1     -12.111  13.219  70.188  0.00  0.00    -0.004 A 
ENDBRANCH   5  10
TORSDOF 1
ENDMDL
MODEL 6
REMARK VINA RESULT:      -5.0      2.269      4.127
REMARK  Name = 
REMARK  1 active torsions:
REMARK  status: ('A' for Active; 'I' for Inactive)
REMARK    1  A    between atoms: C_6  and  C_8
REMARK                            x       y       z     vdW  Elec       q    Type
REMARK                         _______ _______ _______ _____ _____    ______ ____
ROOT
ATOM      1  C   UNL     1      -8.300  15.599  66.561  0.00  0.00    +0.123 C 
ATOM      2  N   UNL     1      -9.367  15.083  66.665  0.00  0.00    -0.228 N 
ATOM      3  C   UNL     1      -9.701  13.862  67.340  0.00  0.00    +0.235 C 
ATOM      4  O   UNL     1      -8.931  13.386  68.229  0.00  0.00    -0.274 OA
ATOM      5  C   UNL     1     -11.109  13.495  67.058  0.00  0.00    +0.097 C 
ATOM      6  C   UNL     1     -11.755  12.885  68.273  0.00  0.00    +0.014 C 
ATOM      7  C   UNL     1     -11.744  14.835  66.726  0.00  0.00    +0.098 C 
ATOM      8  C   UNL     1     -10.594  15.536  66.073  0.00  0.00    +0.232 C 
ATOM      9  O   UNL     1     -10.630  16.261  65.035  0.00  0.00    -0.274 OA
ENDROOT
BRANCH   5  10
ATOM     10  C   UNL     1     -11.197  12.612  65.876  0.00  0.00    -0.014 A 
ATOM     11  C   UNL     1     -10.078  11.935  65.413  0.00  0.00    -0.004 A 
ATOM     12  C   UNL     1     -10.010  11.518  64.104  0.00  0.00    -0.000 A 
ATOM     13  C   UNL     1     -11.197  11.370  63.400  0.00  0.00    -0.000 A 
ATOM     14  C   UNL     1     -12.236  12.227  63.718  0.00  0.00    -0.000 A 
ATOM     15  C   UNL     1     -12.283  12.662  65.037  0.00  0.00    -0.004 A 
ENDBRANCH   5  10
TORSDOF 1
ENDMDL
MODEL 7
REMARK VINA RESULT:      -4.9      3.718      5.754
REMARK  Name = 
REMARK  1 active torsions:
REMARK  status: ('A' for Active; 'I' for Inactive)
REMARK    1  A    between atoms: C_6  and  C_8
REMARK                            x       y       z     vdW  Elec       q    Type
REMARK                         _______ _______ _______ _____ _____    ______ ____
ROOT
ATOM      1  C   UNL     1     -12.415  14.042  66.429  0.00  0.00    +0.123 C 
ATOM      2  N   UNL     1     -11.358  14.498  66.729  0.00  0.00    -0.228 N 
ATOM      3  C   UNL     1     -11.019  15.260  67.897  0.00  0.00    +0.235 C 
ATOM      4  O   UNL     1     -11.750  15.211  68.933  0.00  0.00    -0.274 OA
ATOM      5  C   UNL     1      -9.638  15.785  67.776  0.00  0.00    +0.097 C 
ATOM      6  C   UNL     1      -8.941  15.769  69.109  0.00  0.00    +0.014 C 
ATOM      7  C   UNL     1      -8.988  14.803  66.815  0.00  0.00    +0.098 C 
ATOM      8  C   UNL     1     -10.155  14.446  65.948  0.00  0.00    +0.232 C 
ATOM      9  O   UNL     1     -10.157  14.312  64.688  0.00  0.00    -0.274 OA
ENDROOT
BRANCH   5  10
ATOM     10  C   UNL     1      -9.639  17.131  67.163  0.00  0.00    -0.014 A 
ATOM     11  C   UNL     1      -8.512  17.615  66.517  0.00  0.00    -0.004 A 
ATOM     12  C   UNL     1      -8.320  18.970  66.373  0.00  0.00    -0.000 A 
ATOM     13  C   UNL     1      -9.429  19.802  66.458  0.00  0.00    -0.000 A 
ATOM     14  C   UNL     1     -10.452  19.412  67.304  0.00  0.00    -0.000 A 
ATOM     15  C   UNL     1     -10.623  18.042  67.461  0.00  0.00    -0.004 A 
ENDBRANCH   5  10
TORSDOF 1
ENDMDL
MODEL 8
REMARK VINA RESULT:      -4.8      2.726      4.335
REMARK  Name = 
REMARK  1 active torsions:
REMARK  status: ('A' for Active; 'I' for Inactive)
REMARK    1  A    between atoms: C_6  and  C_8
REMARK                            x       y       z     vdW  Elec       q    Type
REMARK                         _______ _______ _______ _____ _____    ______ ____
ROOT
ATOM      1  C   UNL     1      -9.607  15.107  68.636  0.00  0.00    +0.123 C 
ATOM      2  N   UNL     1     -10.100  14.896  67.574  0.00  0.00    -0.228 N 
ATOM      3  C   UNL     1     -11.235  14.074  67.269  0.00  0.00    +0.235 C 
ATOM      4  O   UNL     1     -12.073  13.770  68.173  0.00  0.00    -0.274 OA
ATOM      5  C   UNL     1     -11.389  13.946  65.801  0.00  0.00    +0.097 C 
ATOM      6  C   UNL     1     -12.844  13.931  65.415  0.00  0.00    +0.014 C 
ATOM      7  C   UNL     1     -10.706  15.200  65.281  0.00  0.00    +0.098 C 
ATOM      8  C   UNL     1      -9.630  15.377  66.306  0.00  0.00    +0.232 C 
ATOM      9  O   UNL     1      -8.423  15.702  66.098  0.00  0.00    -0.274 OA
ENDROOT
BRANCH   5  10
ATOM     10  C   UNL     1     -10.667  12.758  65.297  0.00  0.00    -0.014 A 
ATOM     11  C   UNL     1     -10.493  12.560  63.935  0.00  0.00    -0.004 A 
ATOM     12  C   UNL     1     -10.272  11.296  63.440  0.00  0.00    -0.000 A 
ATOM     13  C   UNL     1      -9.781  10.328  64.305  0.00  0.00    -0.000 A 
ATOM     14  C   UNL     1     -10.165  10.409  65.633  0.00  0.00    -0.000 A 
ATOM     15  C   UNL     1     -10.410  11.688  66.118  0.00  0.00    -0.004 A 
ENDBRANCH   5  10
TORSDOF 1
ENDMDL
MODEL 9
REMARK VINA RESULT:      -4.8      5.876      7.750
REMARK  Name = 
REMARK  1 active torsions:
REMARK  status: ('A' for Active; 'I' for Inactive)
REMARK    1  A    between atoms: C_6  and  C_8
REMARK                            x       y       z     vdW  Elec       q    Type
REMARK                         _______ _______ _______ _____ _____    ______ ____
ROOT
ATOM      1  C   UNL     1      -9.509  15.248  66.650  0.00  0.00    +0.123 C 
ATOM      2  N   UNL     1      -9.550  16.353  67.089  0.00  0.00    -0.228 N 
ATOM      3  C   UNL     1      -9.882  17.569  66.405  0.00  0.00    +0.235 C 
ATOM      4  O   UNL     1     -10.539  17.539  65.320  0.00  0.00    -0.274 OA
ATOM      5  C   UNL     1      -9.623  18.733  67.285  0.00  0.00    +0.097 C 
ATOM      6  C   UNL     1     -10.667  19.798  67.083  0.00  0.00    +0.014 C 
ATOM      7  C   UNL     1      -9.729  18.131  68.677  0.00  0.00    +0.098 C 
ATOM      8  C   UNL     1      -9.208  16.751  68.425  0.00  0.00    +0.232 C 
ATOM      9  O   UNL     1      -8.419  16.086  69.161  0.00  0.00    -0.274 OA
ENDROOT
BRANCH   5  10
ATOM     10  C   UNL     1      -8.253  19.249  67.085  0.00  0.00    -0.014 A 
ATOM     11  C   UNL     1      -7.640  20.027  68.058  0.00  0.00    -0.004 A 
ATOM     12  C   UNL     1      -6.619  20.884  67.721  0.00  0.00    -0.000 A 
ATOM     13  C   UNL     1      -5.920  20.643  66.546  0.00  0.00    -0.000 A 
ATOM     14  C   UNL     1      -6.621  20.079  65.494  0.00  0.00    -0.000 A 
ATOM     15  C   UNL     1      -7.666  19.233  65.844  0.00  0.00    -0.004 A 
ENDBRANCH   5  10
TORSDOF 1
ENDMDL
