MODEL 1
REMARK VINA RESULT:      -9.1      0.000      0.000
REMARK  Name = 
REMARK  13 active torsions:
REMARK  status: ('A' for Active; 'I' for Inactive)
REMARK    1  A    between atoms: C_2  and  N_5
REMARK    2  A    between atoms: C_6  and  C_8
REMARK    3  A    between atoms: N_17  and  C_18
REMARK    4  A    between atoms: C_18  and  C_19
REMARK    5  A    between atoms: C_19  and  C_21
REMARK    6  A    between atoms: C_21  and  C_22
REMARK    7  A    between atoms: C_21  and  N_29
REMARK    8  A    between atoms: C_22  and  C_23
REMARK    9  A    between atoms: C_30  and  C_32
REMARK   10  A    between atoms: C_32  and  C_33
REMARK   11  A    between atoms: C_32  and  N_37
REMARK   12  A    between atoms: C_33  and  C_34
REMARK   13  A    between atoms: C_38  and  C_40
REMARK                            x       y       z     vdW  Elec       q    Type
REMARK                         _______ _______ _______ _____ _____    ______ ____
ROOT
ATOM      1  C   UNL     1     -11.401  12.607  69.530  0.00  0.00    +0.131 C 
ENDROOT
BRANCH   1   2
ATOM      2  N   UNL     1     -11.730  12.950  68.037  0.00  0.00    -0.203 NA
ATOM      3  C   UNL     1     -10.823  13.711  67.287  0.00  0.00    +0.262 C 
ATOM      4  O   UNL     1      -9.593  13.602  67.579  0.00  0.00    -0.271 OA
BRANCH   3   5
ATOM      5  C   UNL     1     -11.140  15.287  67.074  0.00  0.00    +0.182 C 
BRANCH   5   6
ATOM      6  N   UNL     1      -9.738  15.757  67.638  0.00  0.00    -0.192 NA
ATOM      7  C   UNL     1      -9.771  17.193  67.642  0.00  0.00    +0.283 C 
ATOM      8  O   UNL     1     -10.831  17.833  67.920  0.00  0.00    -0.267 OA
BRANCH   7   9
ATOM      9  C   UNL     1      -8.567  18.012  67.564  0.00  0.00    +0.136 A 
ATOM     10  N   UNL     1      -7.439  17.754  68.243  0.00  0.00    -0.241 NA
ATOM     11  C   UNL     1      -6.622  18.759  68.639  0.00  0.00    +0.081 A 
ATOM     12  C   UNL     1      -6.693  19.933  67.909  0.00  0.00    +0.018 A 
ATOM     13  C   UNL     1      -5.994  21.047  68.311  0.00  0.00    +0.001 A 
ATOM     14  C   UNL     1      -5.154  20.921  69.383  0.00  0.00    +0.000 A 
ATOM     15  C   UNL     1      -5.389  19.931  70.325  0.00  0.00    +0.002 A 
ATOM     16  C   UNL     1      -7.589  20.056  66.881  0.00  0.00    +0.003 A 
ATOM     17  C   UNL     1      -5.969  18.763  69.853  0.00  0.00    +0.019 A 
ATOM     18  C   UNL     1      -8.538  19.086  66.700  0.00  0.00    +0.024 A 
ENDBRANCH   7   9
ENDBRANCH   5   6
BRANCH   5  19
ATOM     19  C   UNL     1     -10.601  15.307  65.519  0.00  0.00    +0.120 C 
BRANCH  19  20
ATOM     20  C   UNL     1     -11.740  15.628  64.659  0.00  0.00    +0.263 C 
ATOM     21  O   UNL     1     -11.575  16.655  63.928  0.00  0.00    -0.272 OA
ATOM     22  N   UNL     1     -12.506  14.608  64.004  0.00  0.00    -0.088 NA
ENDBRANCH  19  20
ENDBRANCH   5  19
ENDBRANCH   3   5
ENDBRANCH   1   2
BRANCH   1  23
ATOM     23  C   UNL     1     -11.980  10.983  69.465  0.00  0.00    +0.188 C 
ATOM     24  O   UNL     1     -11.869  10.783  70.963  0.00  0.00    -0.220 OA
BRANCH  23  25
ATOM     25  C   UNL     1     -10.529  10.281  69.180  0.00  0.00    +0.107 C 
BRANCH  25  27
ATOM     26  C   UNL     1      -9.373   8.901  67.638  0.00  0.00    +0.137 C 
ATOM     27  N   UNL     1     -10.692   9.067  68.497  0.00  0.00    -0.264 NA
ATOM     28  C   UNL     1     -10.364   8.053  69.510  0.00  0.00    +0.072 C 
ATOM     29  C   UNL     1      -9.413   6.955  68.789  0.00  0.00    +0.016 C 
ATOM     30  C   UNL     1     -10.577   6.648  67.594  0.00  0.00    +0.003 C 
ATOM     31  C   UNL     1      -9.619   5.605  66.799  0.00  0.00    +0.000 C 
ATOM     32  C   UNL     1      -8.946   4.726  67.786  0.00  0.00    +0.000 C 
ATOM     33  C   UNL     1      -9.870   4.492  68.945  0.00  0.00    +0.000 C 
ATOM     34  C   UNL     1      -9.959   5.759  69.737  0.00  0.00    +0.001 C 
ATOM     35  C   UNL     1     -10.137   7.863  66.616  0.00  0.00    +0.025 C 
BRANCH  26  37
ATOM     36  N   UNL     1     -10.254   9.865  65.430  0.00  0.00    -0.208 NA
ATOM     37  C   UNL     1      -9.624  10.184  66.680  0.00  0.00    +0.256 C 
ATOM     38  O   UNL     1      -8.458  10.667  66.500  0.00  0.00    -0.272 OA
BRANCH  36  40
ATOM     39  C   UNL     1     -10.154  10.395  64.062  0.00  0.00    +0.022 C 
ATOM     40  C   UNL     1      -9.876  10.487  64.222  0.00  0.00    +0.079 C 
ATOM     41  C   UNL     1     -10.142  11.904  64.030  0.00  0.00    +0.022 C 
ATOM     42  C   UNL     1      -8.767   9.856  63.471  0.00  0.00    +0.022 C 
ENDBRANCH  36  40
ENDBRANCH  26  37
ENDBRANCH  25  27
ENDBRANCH  23  25
ENDBRANCH   1  23
BRANCH   1  43
ATOM     43  C   UNL     1     -12.818  13.204  70.054  0.00  0.00    +0.051 C 
BRANCH  43  44
ATOM     44  C   UNL     1     -12.636  14.312  70.938  0.00  0.00    -0.020 A 
ATOM     45  C   UNL     1     -12.108  15.551  70.837  0.00  0.00    -0.004 A 
ATOM     46  C   UNL     1     -11.695  16.318  71.918  0.00  0.00    -0.000 A 
ATOM     47  C   UNL     1     -12.407  16.128  73.084  0.00  0.00    -0.000 A 
ATOM     48  C   UNL     1     -13.098  14.936  73.241  0.00  0.00    -0.000 A 
ATOM     49  C   UNL     1     -13.088  14.027  72.227  0.00  0.00    -0.004 A 
ENDBRANCH  43  44
ENDBRANCH   1  43
TORSDOF 13
ENDMDL
MODEL 2
REMARK VINA RESULT:      -9.0      1.284      1.633
REMARK  Name = 
REMARK  13 active torsions:
REMARK  status: ('A' for Active; 'I' for Inactive)
REMARK    1  A    between atoms: C_2  and  N_5
REMARK    2  A    between atoms: C_6  and  C_8
REMARK    3  A    between atoms: N_17  and  C_18
REMARK    4  A    between atoms: C_18  and  C_19
REMARK    5  A    between atoms: C_19  and  C_21
REMARK    6  A    between atoms: C_21  and  C_22
REMARK    7  A    between atoms: C_21  and  N_29
REMARK    8  A    between atoms: C_22  and  C_23
REMARK    9  A    between atoms: C_30  and  C_32
REMARK   10  A    between atoms: C_32  and  C_33
REMARK   11  A    between atoms: C_32  and  N_37
REMARK   12  A    between atoms: C_33  and  C_34
REMARK   13  A    between atoms: C_38  and  C_40
REMARK                            x       y       z     vdW  Elec       q    Type
REMARK                         _______ _______ _______ _____ _____    ______ ____
ROOT
ATOM      1  C   UNL     1     -11.724  12.075  70.223  0.00  0.00    +0.131 C 
ENDROOT
BRANCH   1   2
ATOM      2  N   UNL     1     -11.964  12.201  68.681  0.00  0.00    -0.203 NA
ATOM      3  C   UNL     1     -11.085  12.967  67.904  0.00  0.00    +0.262 C 
ATOM      4  O   UNL     1      -9.878  13.035  68.291  0.00  0.00    -0.271 OA
BRANCH   3   5
ATOM      5  C   UNL     1     -11.547  14.461  67.474  0.00  0.00    +0.182 C 
BRANCH   5   6
ATOM      6  N   UNL     1     -10.132  15.103  67.772  0.00  0.00    -0.192 NA
ATOM      7  C   UNL     1     -10.315  16.525  67.694  0.00  0.00    +0.283 C 
ATOM      8  O   UNL     1     -11.380  17.082  68.103  0.00  0.00    -0.267 OA
BRANCH   7   9
ATOM      9  C   UNL     1      -9.232  17.446  67.371  0.00  0.00    +0.136 A 
ATOM     10  N   UNL     1      -8.005  17.380  67.909  0.00  0.00    -0.241 NA
ATOM     11  C   UNL     1      -7.263  18.499  68.089  0.00  0.00    +0.081 A 
ATOM     12  C   UNL     1      -7.560  19.571  67.264  0.00  0.00    +0.018 A 
ATOM     13  C   UNL     1      -6.947  20.787  67.455  0.00  0.00    +0.001 A 
ATOM     14  C   UNL     1      -5.969  20.866  68.407  0.00  0.00    +0.000 A 
ATOM     15  C   UNL     1      -5.967  19.970  69.465  0.00  0.00    +0.002 A 
ATOM     16  C   UNL     1      -8.588  19.489  66.363  0.00  0.00    +0.003 A 
ATOM     17  C   UNL     1      -6.467  18.704  69.195  0.00  0.00    +0.019 A 
ATOM     18  C   UNL     1      -9.436  18.415  66.411  0.00  0.00    +0.024 A 
ENDBRANCH   7   9
ENDBRANCH   5   6
BRANCH   5  19
ATOM     19  C   UNL     1     -11.192  14.241  65.882  0.00  0.00    +0.120 C 
BRANCH  19  20
ATOM     20  C   UNL     1     -12.454  14.041  65.170  0.00  0.00    +0.263 C 
ATOM     21  O   UNL     1     -12.651  14.852  64.210  0.00  0.00    -0.272 OA
ATOM     22  N   UNL     1     -12.969  12.731  64.894  0.00  0.00    -0.088 NA
ENDBRANCH  19  20
ENDBRANCH   5  19
ENDBRANCH   3   5
ENDBRANCH   1   2
BRANCH   1  23
ATOM     23  C   UNL     1     -12.462  10.524  70.387  0.00  0.00    +0.188 C 
ATOM     24  O   UNL     1     -12.818  10.742  71.844  0.00  0.00    -0.220 OA
BRANCH  23  25
ATOM     25  C   UNL     1     -11.093   9.707  70.758  0.00  0.00    +0.107 C 
BRANCH  25  27
ATOM     26  C   UNL     1      -9.749   8.131  69.605  0.00  0.00    +0.137 C 
ATOM     27  N   UNL     1     -11.158   8.390  70.280  0.00  0.00    -0.264 NA
ATOM     28  C   UNL     1     -10.923   7.573  71.480  0.00  0.00    +0.072 C 
ATOM     29  C   UNL     1      -9.879   6.406  71.061  0.00  0.00    +0.016 C 
ATOM     30  C   UNL     1     -10.900   5.859  69.821  0.00  0.00    +0.003 C 
ATOM     31  C   UNL     1      -9.841   4.734  69.322  0.00  0.00    +0.000 C 
ATOM     32  C   UNL     1      -9.264   4.059  70.509  0.00  0.00    +0.000 C 
ATOM     33  C   UNL     1     -10.304   3.989  71.587  0.00  0.00    +0.000 C 
ATOM     34  C   UNL     1     -10.503   5.367  72.138  0.00  0.00    +0.001 C 
ATOM     35  C   UNL     1     -10.378   6.908  68.701  0.00  0.00    +0.025 C 
BRANCH  26  37
ATOM     36  N   UNL     1     -10.239   8.656  67.142  0.00  0.00    -0.208 NA
ATOM     37  C   UNL     1      -9.918   9.224  68.421  0.00  0.00    +0.256 C 
ATOM     38  O   UNL     1      -8.792   9.822  68.391  0.00  0.00    -0.272 OA
BRANCH  36  40
ATOM     39  C   UNL     1      -9.909   9.001  65.752  0.00  0.00    +0.022 C 
ATOM     40  C   UNL     1      -9.678   9.146  65.945  0.00  0.00    +0.079 C 
ATOM     41  C   UNL     1     -10.024  10.482  65.485  0.00  0.00    +0.022 C 
ATOM     42  C   UNL     1      -8.389   8.552  65.525  0.00  0.00    +0.022 C 
ENDBRANCH  36  40
ENDBRANCH  26  37
ENDBRANCH  25  27
ENDBRANCH  23  25
ENDBRANCH   1  23
BRANCH   1  43
ATOM     43  C   UNL     1     -13.090  12.881  70.575  0.00  0.00    +0.051 C 
BRANCH  43  44
ATOM     44  C   UNL     1     -12.825  14.110  71.252  0.00  0.00    -0.020 A 
ATOM     45  C   UNL     1     -12.348  15.324  70.900  0.00  0.00    -0.004 A 
ATOM     46  C   UNL     1     -11.820  16.248  71.791  0.00  0.00    -0.000 A 
ATOM     47  C   UNL     1     -12.369  16.230  73.056  0.00  0.00    -0.000 A 
ATOM     48  C   UNL     1     -13.002  15.071  73.478  0.00  0.00    -0.000 A 
ATOM     49  C   UNL     1     -13.099  14.020  72.618  0.00  0.00    -0.004 A 
ENDBRANCH  43  44
ENDBRANCH   1  43
TORSDOF 13
ENDMDL
MODEL 3
REMARK VINA RESULT:      -8.3      2.261      3.537
REMARK  Name = 
REMARK  13 active torsions:
REMARK  status: ('A' for Active; 'I' for Inactive)
REMARK    1  A    between atoms: C_2  and  N_5
REMARK    2  A    between atoms: C_6  and  C_8
REMARK    3  A    between atoms: N_17  and  C_18
REMARK    4  A    between atoms: C_18  and  C_19
REMARK    5  A    between atoms: C_19  and  C_21
REMARK    6  A    between atoms: C_21  and  C_22
REMARK    7  A    between atoms: C_21  and  N_29
REMARK    8  A    between atoms: C_22  and  C_23
REMARK    9  A    between atoms: C_30  and  C_32
REMARK   10  A    between atoms: C_32  and  C_33
REMARK   11  A    between atoms: C_32  and  N_37
REMARK   12  A    between atoms: C_33  and  C_34
REMARK   13  A    between atoms: C_38  and  C_40
REMARK                            x       y       z     vdW  Elec       q    Type
REMARK                         _______ _______ _______ _____ _____    ______ ____
ROOT
ATOM      1  C   UNL     1     -11.838  11.148  70.461  0.00  0.00    +0.131 C 
ENDROOT
BRANCH   1   2
ATOM      2  N   UNL     1     -12.361  11.021  68.990  0.00  0.00    -0.203 NA
ATOM      3  C   UNL     1     -11.544  11.431  67.928  0.00  0.00    +0.262 C 
ATOM      4  O   UNL     1     -10.290  11.326  68.087  0.00  0.00    -0.271 OA
BRANCH   3   5
ATOM      5  C   UNL     1     -11.835  12.875  67.252  0.00  0.00    +0.182 C 
BRANCH   5   6
ATOM      6  N   UNL     1     -10.448  13.488  67.702  0.00  0.00    -0.192 NA
ATOM      7  C   UNL     1     -10.629  14.913  67.723  0.00  0.00    +0.283 C 
ATOM      8  O   UNL     1     -11.723  15.438  68.096  0.00  0.00    -0.267 OA
BRANCH   7   9
ATOM      9  C   UNL     1      -9.528  15.853  67.555  0.00  0.00    +0.136 A 
ATOM     10  N   UNL     1      -9.358  16.952  68.306  0.00  0.00    -0.241 NA
ATOM     11  C   UNL     1      -8.770  18.060  67.793  0.00  0.00    +0.081 A 
ATOM     12  C   UNL     1      -7.918  17.861  66.720  0.00  0.00    +0.018 A 
ATOM     13  C   UNL     1      -7.373  18.935  66.056  0.00  0.00    +0.001 A 
ATOM     14  C   UNL     1      -7.615  20.184  66.556  0.00  0.00    +0.000 A 
ATOM     15  C   UNL     1      -8.747  20.408  67.325  0.00  0.00    +0.002 A 
ATOM     16  C   UNL     1      -7.743  16.608  66.195  0.00  0.00    +0.003 A 
ATOM     17  C   UNL     1      -9.186  19.339  68.092  0.00  0.00    +0.019 A 
ATOM     18  C   UNL     1      -8.554  15.588  66.616  0.00  0.00    +0.024 A 
ENDBRANCH   7   9
ENDBRANCH   5   6
BRANCH   5  19
ATOM     19  C   UNL     1     -11.245  12.438  65.778  0.00  0.00    +0.120 C 
BRANCH  19  20
ATOM     20  C   UNL     1     -12.154  12.967  64.761  0.00  0.00    +0.263 C 
ATOM     21  O   UNL     1     -12.757  12.078  64.080  0.00  0.00    -0.272 OA
ATOM     22  N   UNL     1     -12.972  14.120  65.003  0.00  0.00    -0.088 NA
ENDBRANCH  19  20
ENDBRANCH   5  19
ENDBRANCH   3   5
ENDBRANCH   1   2
BRANCH   1  23
ATOM     23  C   UNL     1     -12.492   9.648  71.007  0.00  0.00    +0.188 C 
ATOM     24  O   UNL     1     -12.854  10.195  72.373  0.00  0.00    -0.220 OA
BRANCH  23  25
ATOM     25  C   UNL     1     -11.080   9.016  71.543  0.00  0.00    +0.107 C 
BRANCH  25  27
ATOM     26  C   UNL     1      -9.829   7.066  71.043  0.00  0.00    +0.137 C 
ATOM     27  N   UNL     1     -11.176   7.622  71.663  0.00  0.00    -0.264 NA
ATOM     28  C   UNL     1     -10.831   7.370  73.070  0.00  0.00    +0.072 C 
ATOM     29  C   UNL     1      -9.818   6.104  73.090  0.00  0.00    +0.016 C 
ATOM     30  C   UNL     1     -10.938   5.123  72.278  0.00  0.00    +0.003 C 
ATOM     31  C   UNL     1      -9.918   3.861  72.207  0.00  0.00    +0.000 C 
ATOM     32  C   UNL     1      -9.235   3.723  73.515  0.00  0.00    +0.000 C 
ATOM     33  C   UNL     1     -10.177   4.137  74.607  0.00  0.00    +0.000 C 
ATOM     34  C   UNL     1     -10.338   5.624  74.549  0.00  0.00    +0.001 C 
ATOM     35  C   UNL     1     -10.524   5.597  70.785  0.00  0.00    +0.025 C 
BRANCH  26  37
ATOM     36  N   UNL     1     -10.916   6.677  68.753  0.00  0.00    -0.208 NA
ATOM     37  C   UNL     1     -10.109   7.574  69.530  0.00  0.00    +0.256 C 
ATOM     38  O   UNL     1      -8.944   7.700  69.028  0.00  0.00    -0.272 OA
BRANCH  36  40
ATOM     39  C   UNL     1     -10.977   6.409  67.309  0.00  0.00    +0.022 C 
ATOM     40  C   UNL     1     -10.654   6.424  67.391  0.00  0.00    +0.079 C 
ATOM     41  C   UNL     1     -10.402   7.538  66.490  0.00  0.00    +0.022 C 
ATOM     42  C   UNL     1     -10.100   5.092  67.059  0.00  0.00    +0.022 C 
ENDBRANCH  36  40
ENDBRANCH  26  37
ENDBRANCH  25  27
ENDBRANCH  23  25
ENDBRANCH   1  23
BRANCH   1  43
ATOM     43  C   UNL     1     -13.137  12.006  70.925  0.00  0.00    +0.051 C 
BRANCH  43  44
ATOM     44  C   UNL     1     -12.783  13.326  71.341  0.00  0.00    -0.020 A 
ATOM     45  C   UNL     1     -11.859  14.241  70.972  0.00  0.00    -0.004 A 
ATOM     46  C   UNL     1     -11.452  15.306  71.764  0.00  0.00    -0.000 A 
ATOM     47  C   UNL     1     -12.416  15.821  72.604  0.00  0.00    -0.000 A 
ATOM     48  C   UNL     1     -13.485  15.009  72.949  0.00  0.00    -0.000 A 
ATOM     49  C   UNL     1     -13.568  13.761  72.411  0.00  0.00    -0.004 A 
ENDBRANCH  43  44
ENDBRANCH   1  43
TORSDOF 13
ENDMDL
MODEL 4
REMARK VINA RESULT:      -8.1      1.963      4.144
REMARK  Name = 
REMARK  13 active torsions:
REMARK  status: ('A' for Active; 'I' for Inactive)
REMARK    1  A    between atoms: C_2  and  N_5
REMARK    2  A    between atoms: C_6  and  C_8
REMARK    3  A    between atoms: N_17  and  C_18
REMARK    4  A    between atoms: C_18  and  C_19
REMARK    5  A    between atoms: C_19  and  C_21
REMARK    6  A    between atoms: C_21  and  C_22
REMARK    7  A    between atoms: C_21  and  N_29
REMARK    8  A    between atoms: C_22  and  C_23
REMARK    9  A    between atoms: C_30  and  C_32
REMARK   10  A    between atoms: C_32  and  C_33
REMARK   11  A    between atoms: C_32  and  N_37
REMARK   12  A    between atoms: C_33  and  C_34
REMARK   13  A    between atoms: C_38  and  C_40
REMARK                            x       y       z     vdW  Elec       q    Type
REMARK                         _______ _______ _______ _____ _____    ______ ____
ROOT
ATOM      1  C   UNL     1     -10.881  11.733  69.744  0.00  0.00    +0.131 C 
ENDROOT
BRANCH   1   2
ATOM      2  N   UNL     1     -11.001  11.933  68.195  0.00  0.00    -0.203 NA
ATOM      3  C   UNL     1     -10.342  13.008  67.584  0.00  0.00    +0.262 C 
ATOM      4  O   UNL     1      -9.262  13.406  68.118  0.00  0.00    -0.271 OA
BRANCH   3   5
ATOM      5  C   UNL     1     -11.212  14.321  67.200  0.00  0.00    +0.182 C 
BRANCH   5   6
ATOM      6  N   UNL     1      -9.969  15.297  67.259  0.00  0.00    -0.192 NA
ATOM      7  C   UNL     1     -10.504  16.612  67.479  0.00  0.00    +0.283 C 
ATOM      8  O   UNL     1     -11.516  16.802  68.222  0.00  0.00    -0.267 OA
BRANCH   7   9
ATOM      9  C   UNL     1      -9.809  17.827  67.075  0.00  0.00    +0.136 A 
ATOM     10  N   UNL     1      -8.856  17.869  66.130  0.00  0.00    -0.241 NA
ATOM     11  C   UNL     1      -7.853  18.777  66.194  0.00  0.00    +0.081 A 
ATOM     12  C   UNL     1      -8.116  19.933  66.910  0.00  0.00    +0.018 A 
ATOM     13  C   UNL     1      -7.121  20.854  67.134  0.00  0.00    +0.001 A 
ATOM     14  C   UNL     1      -5.908  20.641  66.540  0.00  0.00    +0.000 A 
ATOM     15  C   UNL     1      -5.528  19.351  66.199  0.00  0.00    +0.002 A 
ATOM     16  C   UNL     1      -9.316  20.093  67.551  0.00  0.00    +0.003 A 
ATOM     17  C   UNL     1      -6.553  18.487  65.842  0.00  0.00    +0.019 A 
ATOM     18  C   UNL     1     -10.177  19.032  67.635  0.00  0.00    +0.024 A 
ENDBRANCH   7   9
ENDBRANCH   5   6
BRANCH   5  19
ATOM     19  C   UNL     1     -11.051  14.099  65.577  0.00  0.00    +0.120 C 
BRANCH  19  20
ATOM     20  C   UNL     1     -12.394  13.968  65.011  0.00  0.00    +0.263 C 
ATOM     21  O   UNL     1     -12.650  14.781  64.069  0.00  0.00    -0.272 OA
ATOM     22  N   UNL     1     -13.010  12.688  64.813  0.00  0.00    -0.088 NA
ENDBRANCH  19  20
ENDBRANCH   5  19
ENDBRANCH   3   5
ENDBRANCH   1   2
BRANCH   1  23
ATOM     23  C   UNL     1     -11.355  10.074  69.741  0.00  0.00    +0.188 C 
ATOM     24  O   UNL     1     -12.208  10.216  70.985  0.00  0.00    -0.220 OA
BRANCH  23  25
ATOM     25  C   UNL     1     -10.069   9.514  70.586  0.00  0.00    +0.107 C 
BRANCH  25  27
ATOM     26  C   UNL     1     -10.704   7.252  70.275  0.00  0.00    +0.137 C 
ATOM     27  N   UNL     1      -9.577   8.332  70.013  0.00  0.00    -0.264 NA
ATOM     28  C   UNL     1      -9.840   8.507  68.577  0.00  0.00    +0.072 C 
ATOM     29  C   UNL     1     -10.446   7.105  68.033  0.00  0.00    +0.016 C 
ATOM     30  C   UNL     1      -9.088   6.244  68.572  0.00  0.00    +0.003 C 
ATOM     31  C   UNL     1      -9.701   4.811  68.115  0.00  0.00    +0.000 C 
ATOM     32  C   UNL     1     -10.321   4.961  66.776  0.00  0.00    +0.000 C 
ATOM     33  C   UNL     1      -9.543   5.970  65.985  0.00  0.00    +0.000 C 
ATOM     34  C   UNL     1      -9.816   7.327  66.556  0.00  0.00    +0.001 C 
ATOM     35  C   UNL     1      -9.615   6.032  70.090  0.00  0.00    +0.025 C 
BRANCH  26  37
ATOM     36  N   UNL     1      -9.779   6.180  72.414  0.00  0.00    -0.208 NA
ATOM     37  C   UNL     1     -10.576   7.252  71.891  0.00  0.00    +0.256 C 
ATOM     38  O   UNL     1     -11.782   7.170  72.295  0.00  0.00    -0.272 OA
BRANCH  36  40
ATOM     39  C   UNL     1      -9.836   5.338  73.618  0.00  0.00    +0.022 C 
ATOM     40  C   UNL     1     -10.131   5.491  73.593  0.00  0.00    +0.079 C 
ATOM     41  C   UNL     1      -9.984   6.152  74.880  0.00  0.00    +0.022 C 
ATOM     42  C   UNL     1     -11.126   4.404  73.452  0.00  0.00    +0.022 C 
ENDBRANCH  36  40
ENDBRANCH  26  37
ENDBRANCH  25  27
ENDBRANCH  23  25
ENDBRANCH   1  23
BRANCH   1  43
ATOM     43  C   UNL     1     -12.391  12.274  70.004  0.00  0.00    +0.051 C 
BRANCH  43  44
ATOM     44  C   UNL     1     -12.402  13.474  70.778  0.00  0.00    -0.020 A 
ATOM     45  C   UNL     1     -11.729  14.646  70.754  0.00  0.00    -0.004 A 
ATOM     46  C   UNL     1     -11.636  15.518  71.829  0.00  0.00    -0.000 A 
ATOM     47  C   UNL     1     -12.730  15.542  72.668  0.00  0.00    -0.000 A 
ATOM     48  C   UNL     1     -13.569  14.438  72.680  0.00  0.00    -0.000 A 
ATOM     49  C   UNL     1     -13.311  13.402  71.835  0.00  0.00    -0.004 A 
ENDBRANCH  43  44
ENDBRANCH   1  43
TORSDOF 13
ENDMDL
MODEL 5
REMARK VINA RESULT:      -8.1      2.676      3.676
REMARK  Name = 
REMARK  13 active torsions:
REMARK  status: ('A' for Active; 'I' for Inactive)
REMARK    1  A    between atoms: C_2  and  N_5
REMARK    2  A    between atoms: C_6  and  C_8
REMARK    3  A    between atoms: N_17  and  C_18
REMARK    4  A    between atoms: C_18  and  C_19
REMARK    5  A    between atoms: C_19  and  C_21
REMARK    6  A    between atoms: C_21  and  C_22
REMARK    7  A    between atoms: C_21  and  N_29
REMARK    8  A    between atoms: C_22  and  C_23
REMARK    9  A    between atoms: C_30  and  C_32
REMARK   10  A    between atoms: C_32  and  C_33
REMARK   11  A    between atoms: C_32  and  N_37
REMARK   12  A    between atoms: C_33  and  C_34
REMARK   13  A    between atoms: C_38  and  C_40
REMARK                            x       y       z     vdW  Elec       q    Type
REMARK                         _______ _______ _______ _____ _____    ______ ____
ROOT
ATOM      1  C   UNL     1      -7.900  13.419  67.791  0.00  0.00    +0.131 C 
ENDROOT
BRANCH   1   2
ATOM      2  N   UNL     1      -9.435  13.467  68.094  0.00  0.00    -0.203 NA
ATOM      3  C   UNL     1     -10.351  13.415  67.034  0.00  0.00    +0.262 C 
ATOM      4  O   UNL     1     -10.004  12.768  65.999  0.00  0.00    -0.271 OA
BRANCH   3   5
ATOM      5  C   UNL     1     -11.031  14.802  66.542  0.00  0.00    +0.182 C 
BRANCH   5   6
ATOM      6  N   UNL     1      -9.744  15.669  66.848  0.00  0.00    -0.192 NA
ATOM      7  C   UNL     1     -10.214  16.875  67.471  0.00  0.00    +0.283 C 
ATOM      8  O   UNL     1     -11.199  16.869  68.272  0.00  0.00    -0.267 OA
BRANCH   7   9
ATOM      9  C   UNL     1      -9.473  18.129  67.426  0.00  0.00    +0.136 A 
ATOM     10  N   UNL     1      -9.015  18.691  66.297  0.00  0.00    -0.241 NA
ATOM     11  C   UNL     1      -7.886  19.440  66.301  0.00  0.00    +0.081 A 
ATOM     12  C   UNL     1      -7.541  20.023  67.509  0.00  0.00    +0.018 A 
ATOM     13  C   UNL     1      -6.350  20.697  67.641  0.00  0.00    +0.001 A 
ATOM     14  C   UNL     1      -5.581  20.860  66.523  0.00  0.00    +0.000 A 
ATOM     15  C   UNL     1      -5.702  19.965  65.471  0.00  0.00    +0.002 A 
ATOM     16  C   UNL     1      -8.292  19.791  68.630  0.00  0.00    +0.003 A 
ATOM     17  C   UNL     1      -6.960  19.410  65.282  0.00  0.00    +0.019 A 
ATOM     18  C   UNL     1      -9.272  18.835  68.594  0.00  0.00    +0.024 A 
ENDBRANCH   7   9
ENDBRANCH   5   6
BRANCH   5  19
ATOM     19  C   UNL     1     -10.602  14.592  64.966  0.00  0.00    +0.120 C 
BRANCH  19  20
ATOM     20  C   UNL     1     -11.558  15.333  64.144  0.00  0.00    +0.263 C 
ATOM     21  O   UNL     1     -12.734  14.848  64.137  0.00  0.00    -0.272 OA
ATOM     22  N   UNL     1     -11.556  16.766  64.086  0.00  0.00    -0.088 NA
ENDBRANCH  19  20
ENDBRANCH   5  19
ENDBRANCH   3   5
ENDBRANCH   1   2
BRANCH   1  23
ATOM     23  C   UNL     1      -7.586  11.993  68.712  0.00  0.00    +0.188 C 
ATOM     24  O   UNL     1      -6.087  12.212  68.718  0.00  0.00    -0.220 OA
BRANCH  23  25
ATOM     25  C   UNL     1      -7.514  10.965  67.440  0.00  0.00    +0.107 C 
BRANCH  25  27
ATOM     26  C   UNL     1      -8.303   8.985  66.402  0.00  0.00    +0.137 C 
ATOM     27  N   UNL     1      -8.676  10.182  67.370  0.00  0.00    -0.264 NA
ATOM     28  C   UNL     1      -8.646   9.406  68.618  0.00  0.00    +0.072 C 
ATOM     29  C   UNL     1      -9.031   7.878  68.235  0.00  0.00    +0.016 C 
ATOM     30  C   UNL     1     -10.503   8.362  67.544  0.00  0.00    +0.003 C 
ATOM     31  C   UNL     1     -10.881   6.856  67.071  0.00  0.00    +0.000 C 
ATOM     32  C   UNL     1     -10.557   5.914  68.169  0.00  0.00    +0.000 C 
ATOM     33  C   UNL     1     -10.789   6.595  69.485  0.00  0.00    +0.000 C 
ATOM     34  C   UNL     1      -9.710   7.613  69.683  0.00  0.00    +0.001 C 
ATOM     35  C   UNL     1      -9.895   8.713  66.083  0.00  0.00    +0.025 C 
BRANCH  26  37
ATOM     36  N   UNL     1      -9.182   9.829  64.145  0.00  0.00    -0.208 NA
ATOM     37  C   UNL     1      -8.092   9.891  65.075  0.00  0.00    +0.256 C 
ATOM     38  O   UNL     1      -7.018   9.435  64.560  0.00  0.00    -0.272 OA
BRANCH  36  40
ATOM     39  C   UNL     1      -9.295   9.855  62.679  0.00  0.00    +0.022 C 
ATOM     40  C   UNL     1      -8.975   9.791  62.751  0.00  0.00    +0.079 C 
ATOM     41  C   UNL     1      -8.505  10.983  62.063  0.00  0.00    +0.022 C 
ATOM     42  C   UNL     1      -8.699   8.463  62.158  0.00  0.00    +0.022 C 
ENDBRANCH  36  40
ENDBRANCH  26  37
ENDBRANCH  25  27
ENDBRANCH  23  25
ENDBRANCH   1  23
BRANCH   1  43
ATOM     43  C   UNL     1      -7.552  14.419  69.023  0.00  0.00    +0.051 C 
BRANCH  43  44
ATOM     44  C   UNL     1      -6.705  15.495  68.614  0.00  0.00    -0.020 A 
ATOM     45  C   UNL     1      -6.264  15.982  67.434  0.00  0.00    -0.004 A 
ATOM     46  C   UNL     1      -5.151  16.798  67.290  0.00  0.00    -0.000 A 
ATOM     47  C   UNL     1      -4.894  17.640  68.351  0.00  0.00    -0.000 A 
ATOM     48  C   UNL     1      -5.410  17.304  69.593  0.00  0.00    -0.000 A 
ATOM     49  C   UNL     1      -6.186  16.190  69.707  0.00  0.00    -0.004 A 
ENDBRANCH  43  44
ENDBRANCH   1  43
TORSDOF 13
ENDMDL
MODEL 6
REMARK VINA RESULT:      -8.0      1.652      1.934
REMARK  Name = 
REMARK  13 active torsions:
REMARK  status: ('A' for Active; 'I' for Inactive)
REMARK    1  A    between atoms: C_2  and  N_5
REMARK    2  A    between atoms: C_6  and  C_8
REMARK    3  A    between atoms: N_17  and  C_18
REMARK    4  A    between atoms: C_18  and  C_19
REMARK    5  A    between atoms: C_19  and  C_21
REMARK    6  A    between atoms: C_21  and  C_22
REMARK    7  A    between atoms: C_21  and  N_29
REMARK    8  A    between atoms: C_22  and  C_23
REMARK    9  A    between atoms: C_30  and  C_32
REMARK   10  A    between atoms: C_32  and  C_33
REMARK   11  A    between atoms: C_32  and  N_37
REMARK   12  A    between atoms: C_33  and  C_34
REMARK   13  A    between atoms: C_38  and  C_40
REMARK                            x       y       z     vdW  Elec       q    Type
REMARK                         _______ _______ _______ _____ _____    ______ ____
ROOT
ATOM      1  C   UNL     1     -10.509  11.644  69.141  0.00  0.00    +0.131 C 
ENDROOT
BRANCH   1   2
ATOM      2  N   UNL     1     -10.763  11.974  67.631  0.00  0.00    -0.203 NA
ATOM      3  C   UNL     1     -10.153  13.097  67.056  0.00  0.00    +0.262 C 
ATOM      4  O   UNL     1      -9.028  13.449  67.525  0.00  0.00    -0.271 OA
BRANCH   3   5
ATOM      5  C   UNL     1     -11.046  14.436  66.862  0.00  0.00    +0.182 C 
BRANCH   5   6
ATOM      6  N   UNL     1      -9.804  15.411  66.966  0.00  0.00    -0.192 NA
ATOM      7  C   UNL     1     -10.337  16.701  67.304  0.00  0.00    +0.283 C 
ATOM      8  O   UNL     1     -11.329  16.827  68.086  0.00  0.00    -0.267 OA
BRANCH   7   9
ATOM      9  C   UNL     1      -9.655  17.948  66.980  0.00  0.00    +0.136 A 
ATOM     10  N   UNL     1      -8.719  18.066  66.026  0.00  0.00    -0.241 NA
ATOM     11  C   UNL     1      -7.720  18.975  66.141  0.00  0.00    +0.081 A 
ATOM     12  C   UNL     1      -7.978  20.072  66.945  0.00  0.00    +0.018 A 
ATOM     13  C   UNL     1      -6.985  20.982  67.221  0.00  0.00    +0.001 A 
ATOM     14  C   UNL     1      -5.781  20.822  66.593  0.00  0.00    +0.000 A 
ATOM     15  C   UNL     1      -5.399  19.564  66.152  0.00  0.00    +0.002 A 
ATOM     16  C   UNL     1      -9.168  20.176  67.615  0.00  0.00    +0.003 A 
ATOM     17  C   UNL     1      -6.424  18.721  65.748  0.00  0.00    +0.019 A 
ATOM     18  C   UNL     1     -10.022  19.106  67.634  0.00  0.00    +0.024 A 
ENDBRANCH   7   9
ENDBRANCH   5   6
BRANCH   5  19
ATOM     19  C   UNL     1     -10.966  14.394  65.218  0.00  0.00    +0.120 C 
BRANCH  19  20
ATOM     20  C   UNL     1     -12.336  14.402  64.706  0.00  0.00    +0.263 C 
ATOM     21  O   UNL     1     -12.447  14.041  63.492  0.00  0.00    -0.272 OA
ATOM     22  N   UNL     1     -13.446  13.976  65.508  0.00  0.00    -0.088 NA
ENDBRANCH  19  20
ENDBRANCH   5  19
ENDBRANCH   3   5
ENDBRANCH   1   2
BRANCH   1  23
ATOM     23  C   UNL     1     -10.680   9.935  68.976  0.00  0.00    +0.188 C 
ATOM     24  O   UNL     1     -10.282   9.661  70.412  0.00  0.00    -0.220 OA
BRANCH  23  25
ATOM     25  C   UNL     1      -9.168   9.652  68.416  0.00  0.00    +0.107 C 
BRANCH  25  27
ATOM     26  C   UNL     1      -7.941   8.654  66.651  0.00  0.00    +0.137 C 
ATOM     27  N   UNL     1      -9.128   8.459  67.680  0.00  0.00    -0.264 NA
ATOM     28  C   UNL     1      -8.427   7.524  68.572  0.00  0.00    +0.072 C 
ATOM     29  C   UNL     1      -7.350   6.721  67.664  0.00  0.00    +0.016 C 
ATOM     30  C   UNL     1      -8.562   6.176  66.609  0.00  0.00    +0.003 C 
ATOM     31  C   UNL     1      -7.502   5.430  65.631  0.00  0.00    +0.000 C 
ATOM     32  C   UNL     1      -6.506   4.712  66.462  0.00  0.00    +0.000 C 
ATOM     33  C   UNL     1      -7.175   4.217  67.711  0.00  0.00    +0.000 C 
ATOM     34  C   UNL     1      -7.455   5.395  68.592  0.00  0.00    +0.001 C 
ATOM     35  C   UNL     1      -8.568   7.494  65.666  0.00  0.00    +0.025 C 
BRANCH  26  37
ATOM     36  N   UNL     1      -9.305   9.448  64.629  0.00  0.00    -0.208 NA
ATOM     37  C   UNL     1      -8.624   9.867  65.821  0.00  0.00    +0.256 C 
ATOM     38  O   UNL     1      -7.649  10.641  65.548  0.00  0.00    -0.272 OA
BRANCH  36  40
ATOM     39  C   UNL     1      -9.496  10.021  63.289  0.00  0.00    +0.022 C 
ATOM     40  C   UNL     1      -9.250  10.195  63.434  0.00  0.00    +0.079 C 
ATOM     41  C   UNL     1      -9.979  11.450  63.339  0.00  0.00    +0.022 C 
ATOM     42  C   UNL     1      -8.061   9.987  62.578  0.00  0.00    +0.022 C 
ENDBRANCH  36  40
ENDBRANCH  26  37
ENDBRANCH  25  27
ENDBRANCH  23  25
ENDBRANCH   1  23
BRANCH   1  43
ATOM     43  C   UNL     1     -12.071  11.870  69.528  0.00  0.00    +0.051 C 
BRANCH  43  44
ATOM     44  C   UNL     1     -12.247  12.983  70.406  0.00  0.00    -0.020 A 
ATOM     45  C   UNL     1     -11.785  14.252  70.462  0.00  0.00    -0.004 A 
ATOM     46  C   UNL     1     -11.789  15.037  71.606  0.00  0.00    -0.000 A 
ATOM     47  C   UNL     1     -12.828  14.802  72.482  0.00  0.00    -0.000 A 
ATOM     48  C   UNL     1     -13.464  13.572  72.426  0.00  0.00    -0.000 A 
ATOM     49  C   UNL     1     -13.076  12.668  71.484  0.00  0.00    -0.004 A 
ENDBRANCH  43  44
ENDBRANCH   1  43
TORSDOF 13
ENDMDL
MODEL 7
REMARK VINA RESULT:      -8.0      2.679      9.851
REMARK  Name = 
REMARK  13 active torsions:
REMARK  status: ('A' for Active; 'I' for Inactive)
REMARK    1  A    between atoms: C_2  and  N_5
REMARK    2  A    between atoms: C_6  and  C_8
REMARK    3  A    between atoms: N_17  and  C_18
REMARK    4  A    between atoms: C_18  and  C_19
REMARK    5  A    between atoms: C_19  and  C_21
REMARK    6  A    between atoms: C_21  and  C_22
REMARK    7  A    between atoms: C_21  and  N_29
REMARK    8  A    between atoms: C_22  and  C_23
REMARK    9  A    between atoms: C_30  and  C_32
REMARK   10  A    between atoms: C_32  and  C_33
REMARK   11  A    between atoms: C_32  and  N_37
REMARK   12  A    between atoms: C_33  and  C_34
REMARK   13  A    between atoms: C_38  and  C_40
REMARK                            x       y       z     vdW  Elec       q    Type
REMARK                         _______ _______ _______ _____ _____    ______ ____
ROOT
ATOM      1  C   UNL     1      -9.870  15.467  67.230  0.00  0.00    +0.131 C 
ENDROOT
BRANCH   1   2
ATOM      2  N   UNL     1     -10.990  16.146  68.088  0.00  0.00    -0.203 NA
ATOM      3  C   UNL     1     -11.218  15.708  69.400  0.00  0.00    +0.262 C 
ATOM      4  O   UNL     1     -10.223  15.250  70.040  0.00  0.00    -0.271 OA
BRANCH   3   5
ATOM      5  C   UNL     1     -12.473  14.717  69.668  0.00  0.00    +0.182 C 
BRANCH   5   6
ATOM      6  N   UNL     1     -11.589  13.610  70.372  0.00  0.00    -0.192 NA
ATOM      7  C   UNL     1     -11.846  12.386  69.666  0.00  0.00    +0.283 C 
ATOM      8  O   UNL     1     -12.031  12.369  68.410  0.00  0.00    -0.267 OA
BRANCH   7   9
ATOM      9  C   UNL     1     -11.684  11.072  70.275  0.00  0.00    +0.136 A 
ATOM     10  N   UNL     1     -10.679  10.230  69.988  0.00  0.00    -0.241 NA
ATOM     11  C   UNL     1     -10.856   8.888  70.056  0.00  0.00    +0.081 A 
ATOM     12  C   UNL     1     -11.864   8.444  70.895  0.00  0.00    +0.018 A 
ATOM     13  C   UNL     1     -12.199   7.111  70.935  0.00  0.00    +0.001 A 
ATOM     14  C   UNL     1     -11.438   6.240  70.206  0.00  0.00    +0.000 A 
ATOM     15  C   UNL     1     -10.744   6.697  69.096  0.00  0.00    +0.002 A 
ATOM     16  C   UNL     1     -12.655   9.339  71.564  0.00  0.00    +0.003 A 
ATOM     17  C   UNL     1     -10.299   8.010  69.152  0.00  0.00    +0.019 A 
ATOM     18  C   UNL     1     -12.567  10.670  71.256  0.00  0.00    +0.024 A 
ENDBRANCH   7   9
ENDBRANCH   5   6
BRANCH   5  19
ATOM     19  C   UNL     1     -12.870  15.416  71.105  0.00  0.00    +0.120 C 
BRANCH  19  20
ATOM     20  C   UNL     1     -14.121  14.809  71.562  0.00  0.00    +0.263 C 
ATOM     21  O   UNL     1     -14.012  14.114  72.621  0.00  0.00    -0.272 OA
ATOM     22  N   UNL     1     -15.371  15.508  71.492  0.00  0.00    -0.088 NA
ENDBRANCH  19  20
ENDBRANCH   5  19
ENDBRANCH   3   5
ENDBRANCH   1   2
BRANCH   1  23
ATOM     23  C   UNL     1      -8.860  16.862  67.127  0.00  0.00    +0.188 C 
ATOM     24  O   UNL     1      -8.449  16.577  65.697  0.00  0.00    -0.220 OA
BRANCH  23  25
ATOM     25  C   UNL     1      -7.514  16.161  67.741  0.00  0.00    +0.107 C 
BRANCH  25  27
ATOM     26  C   UNL     1      -5.438  16.598  68.798  0.00  0.00    +0.137 C 
ATOM     27  N   UNL     1      -6.985  16.936  68.784  0.00  0.00    -0.264 NA
ATOM     28  C   UNL     1      -6.861  18.275  68.193  0.00  0.00    +0.072 C 
ATOM     29  C   UNL     1      -5.410  18.853  68.629  0.00  0.00    +0.016 C 
ATOM     30  C   UNL     1      -5.764  18.657  70.276  0.00  0.00    +0.003 C 
ATOM     31  C   UNL     1      -4.290  19.151  70.746  0.00  0.00    +0.000 C 
ATOM     32  C   UNL     1      -3.905  20.337  69.943  0.00  0.00    +0.000 C 
ATOM     33  C   UNL     1      -5.133  21.138  69.630  0.00  0.00    +0.000 C 
ATOM     34  C   UNL     1      -5.941  20.385  68.619  0.00  0.00    +0.001 C 
ATOM     35  C   UNL     1      -5.315  17.102  70.360  0.00  0.00    +0.025 C 
BRANCH  26  37
ATOM     36  N   UNL     1      -5.765  14.822  70.619  0.00  0.00    -0.208 NA
ATOM     37  C   UNL     1      -5.601  15.040  69.210  0.00  0.00    +0.256 C 
ATOM     38  O   UNL     1      -4.532  14.494  68.780  0.00  0.00    -0.272 OA
BRANCH  36  40
ATOM     39  C   UNL     1      -5.387  13.725  71.522  0.00  0.00    +0.022 C 
ATOM     40  C   UNL     1      -5.152  13.741  71.286  0.00  0.00    +0.079 C 
ATOM     41  C   UNL     1      -5.406  12.383  70.834  0.00  0.00    +0.022 C 
ATOM     42  C   UNL     1      -3.892  14.036  72.006  0.00  0.00    +0.022 C 
ENDBRANCH  36  40
ENDBRANCH  26  37
ENDBRANCH  25  27
ENDBRANCH  23  25
ENDBRANCH   1  23
BRANCH   1  43
ATOM     43  C   UNL     1     -10.640  15.790  65.837  0.00  0.00    +0.051 C 
BRANCH  43  44
ATOM     44  C   UNL     1     -11.198  14.612  65.251  0.00  0.00    -0.020 A 
ATOM     45  C   UNL     1     -12.445  14.130  65.053  0.00  0.00    -0.004 A 
ATOM     46  C   UNL     1     -12.738  12.796  64.804  0.00  0.00    -0.000 A 
ATOM     47  C   UNL     1     -11.772  12.097  64.111  0.00  0.00    -0.000 A 
ATOM     48  C   UNL     1     -10.472  12.577  64.138  0.00  0.00    -0.000 A 
ATOM     49  C   UNL     1     -10.208  13.737  64.802  0.00  0.00    -0.004 A 
ENDBRANCH  43  44
ENDBRANCH   1  43
TORSDOF 13
ENDMDL
MODEL 8
REMARK VINA RESULT:      -8.0      2.126      4.388
REMARK  Name = 
REMARK  13 active torsions:
REMARK  status: ('A' for Active; 'I' for Inactive)
REMARK    1  A    between atoms: C_2  and  N_5
REMARK    2  A    between atoms: C_6  and  C_8
REMARK    3  A    between atoms: N_17  and  C_18
REMARK    4  A    between atoms: C_18  and  C_19
REMARK    5  A    between atoms: C_19  and  C_21
REMARK    6  A    between atoms: C_21  and  C_22
REMARK    7  A    between atoms: C_21  and  N_29
REMARK    8  A    between atoms: C_22  and  C_23
REMARK    9  A    between atoms: C_30  and  C_32
REMARK   10  A    between atoms: C_32  and  C_33
REMARK   11  A    between atoms: C_32  and  N_37
REMARK   12  A    between atoms: C_33  and  C_34
REMARK   13  A    between atoms: C_38  and  C_40
REMARK                            x       y       z     vdW  Elec       q    Type
REMARK                         _______ _______ _______ _____ _____    ______ ____
ROOT
ATOM      1  C   UNL     1      -8.044  13.440  67.873  0.00  0.00    +0.131 C 
ENDROOT
BRANCH   1   2
ATOM      2  N   UNL     1      -9.518  13.758  68.296  0.00  0.00    -0.203 NA
ATOM      3  C   UNL     1     -10.505  13.896  67.312  0.00  0.00    +0.262 C 
ATOM      4  O   UNL     1     -10.362  13.221  66.247  0.00  0.00    -0.271 OA
BRANCH   3   5
ATOM      5  C   UNL     1     -10.957  15.394  66.887  0.00  0.00    +0.182 C 
BRANCH   5   6
ATOM      6  N   UNL     1      -9.538  16.025  67.188  0.00  0.00    -0.192 NA
ATOM      7  C   UNL     1      -9.770  17.416  67.464  0.00  0.00    +0.283 C 
ATOM      8  O   UNL     1     -10.802  17.805  68.094  0.00  0.00    -0.267 OA
BRANCH   7   9
ATOM      9  C   UNL     1      -8.756  18.443  67.263  0.00  0.00    +0.136 A 
ATOM     10  N   UNL     1      -8.274  18.796  66.062  0.00  0.00    -0.241 NA
ATOM     11  C   UNL     1      -7.001  19.243  65.928  0.00  0.00    +0.081 A 
ATOM     12  C   UNL     1      -6.425  19.802  67.056  0.00  0.00    +0.018 A 
ATOM     13  C   UNL     1      -5.100  20.169  67.051  0.00  0.00    +0.001 A 
ATOM     14  C   UNL     1      -4.412  20.061  65.874  0.00  0.00    +0.000 A 
ATOM     15  C   UNL     1      -4.833  19.155  64.913  0.00  0.00    +0.002 A 
ATOM     16  C   UNL     1      -7.112  19.838  68.240  0.00  0.00    +0.003 A 
ATOM     17  C   UNL     1      -6.199  18.916  64.856  0.00  0.00    +0.019 A 
ATOM     18  C   UNL     1      -8.293  19.154  68.350  0.00  0.00    +0.024 A 
ENDBRANCH   7   9
ENDBRANCH   5   6
BRANCH   5  19
ATOM     19  C   UNL     1     -10.603  15.177  65.294  0.00  0.00    +0.120 C 
BRANCH  19  20
ATOM     20  C   UNL     1     -11.780  15.570  64.520  0.00  0.00    +0.263 C 
ATOM     21  O   UNL     1     -11.646  16.655  63.872  0.00  0.00    -0.272 OA
ATOM     22  N   UNL     1     -12.580  14.608  63.819  0.00  0.00    -0.088 NA
ENDBRANCH  19  20
ENDBRANCH   5  19
ENDBRANCH   3   5
ENDBRANCH   1   2
BRANCH   1  23
ATOM     23  C   UNL     1      -7.962  11.910  68.667  0.00  0.00    +0.188 C 
ATOM     24  O   UNL     1      -6.590  11.588  68.111  0.00  0.00    -0.220 OA
BRANCH  23  25
ATOM     25  C   UNL     1      -8.727  11.055  67.500  0.00  0.00    +0.107 C 
BRANCH  25  27
ATOM     26  C   UNL     1     -10.536   9.532  67.654  0.00  0.00    +0.137 C 
ATOM     27  N   UNL     1      -8.994   9.749  67.938  0.00  0.00    -0.264 NA
ATOM     28  C   UNL     1      -8.499   8.908  66.839  0.00  0.00    +0.072 C 
ATOM     29  C   UNL     1      -9.622   7.769  66.573  0.00  0.00    +0.016 C 
ATOM     30  C   UNL     1      -9.545   7.236  68.181  0.00  0.00    +0.003 C 
ATOM     31  C   UNL     1     -10.726   6.142  67.972  0.00  0.00    +0.000 C 
ATOM     32  C   UNL     1     -10.511   5.447  66.680  0.00  0.00    +0.000 C 
ATOM     33  C   UNL     1      -9.037   5.333  66.423  0.00  0.00    +0.000 C 
ATOM     34  C   UNL     1      -8.513   6.693  66.082  0.00  0.00    +0.001 C 
ATOM     35  C   UNL     1     -10.597   8.321  68.767  0.00  0.00    +0.025 C 
BRANCH  26  37
ATOM     36  N   UNL     1     -11.171  10.185  70.052  0.00  0.00    -0.208 NA
ATOM     37  C   UNL     1     -11.067  10.651  68.699  0.00  0.00    +0.256 C 
ATOM     38  O   UNL     1     -12.207  10.986  68.238  0.00  0.00    -0.272 OA
BRANCH  36  40
ATOM     39  C   UNL     1     -12.057  10.545  71.169  0.00  0.00    +0.022 C 
ATOM     40  C   UNL     1     -12.242  10.555  70.891  0.00  0.00    +0.079 C 
ATOM     41  C   UNL     1     -12.565  11.962  71.064  0.00  0.00    +0.022 C 
ATOM     42  C   UNL     1     -13.304   9.544  71.094  0.00  0.00    +0.022 C 
ENDBRANCH  36  40
ENDBRANCH  26  37
ENDBRANCH  25  27
ENDBRANCH  23  25
ENDBRANCH   1  23
BRANCH   1  43
ATOM     43  C   UNL     1      -7.428  14.250  69.139  0.00  0.00    +0.051 C 
BRANCH  43  44
ATOM     44  C   UNL     1      -6.469  15.228  68.732  0.00  0.00    -0.020 A 
ATOM     45  C   UNL     1      -6.038  15.724  67.552  0.00  0.00    -0.004 A 
ATOM     46  C   UNL     1      -4.834  16.393  67.376  0.00  0.00    -0.000 A 
ATOM     47  C   UNL     1      -4.401  17.127  68.461  0.00  0.00    -0.000 A 
ATOM     48  C   UNL     1      -4.883  16.786  69.715  0.00  0.00    -0.000 A 
ATOM     49  C   UNL     1      -5.795  15.779  69.823  0.00  0.00    -0.004 A 
ENDBRANCH  43  44
ENDBRANCH   1  43
TORSDOF 13
ENDMDL
MODEL 9
REMARK VINA RESULT:      -7.9      2.341      9.919
REMARK  Name = 
REMARK  13 active torsions:
REMARK  status: ('A' for Active; 'I' for Inactive)
REMARK    1  A    between atoms: C_2  and  N_5
REMARK    2  A    between atoms: C_6  and  C_8
REMARK    3  A    between atoms: N_17  and  C_18
REMARK    4  A    between atoms: C_18  and  C_19
REMARK    5  A    between atoms: C_19  and  C_21
REMARK    6  A    between atoms: C_21  and  C_22
REMARK    7  A    between atoms: C_21  and  N_29
REMARK    8  A    between atoms: C_22  and  C_23
REMARK    9  A    between atoms: C_30  and  C_32
REMARK   10  A    between atoms: C_32  and  C_33
REMARK   11  A    between atoms: C_32  and  N_37
REMARK   12  A    between atoms: C_33  and  C_34
REMARK   13  A    between atoms: C_38  and  C_40
REMARK                            x       y       z     vdW  Elec       q    Type
REMARK                         _______ _______ _______ _____ _____    ______ ____
ROOT
ATOM      1  C   UNL     1      -8.875  13.926  68.032  0.00  0.00    +0.131 C 
ENDROOT
BRANCH   1   2
ATOM      2  N   UNL     1     -10.126  14.851  67.854  0.00  0.00    -0.203 NA
ATOM      3  C   UNL     1     -10.815  15.308  68.985  0.00  0.00    +0.262 C 
ATOM      4  O   UNL     1     -10.140  15.478  70.046  0.00  0.00    -0.271 OA
BRANCH   3   5
ATOM      5  C   UNL     1     -12.195  14.562  69.395  0.00  0.00    +0.182 C 
BRANCH   5   6
ATOM      6  N   UNL     1     -11.468  13.458  70.263  0.00  0.00    -0.192 NA
ATOM      7  C   UNL     1     -11.917  12.191  69.758  0.00  0.00    +0.283 C 
ATOM      8  O   UNL     1     -12.131  12.008  68.520  0.00  0.00    -0.267 OA
BRANCH   7   9
ATOM      9  C   UNL     1     -11.936  10.978  70.565  0.00  0.00    +0.136 A 
ATOM     10  N   UNL     1     -10.952  10.066  70.573  0.00  0.00    -0.241 NA
ATOM     11  C   UNL     1     -11.219   8.757  70.799  0.00  0.00    +0.081 A 
ATOM     12  C   UNL     1     -12.374   8.480  71.511  0.00  0.00    +0.018 A 
ATOM     13  C   UNL     1     -12.791   7.182  71.681  0.00  0.00    +0.001 A 
ATOM     14  C   UNL     1     -11.977   6.184  71.221  0.00  0.00    +0.000 A 
ATOM     15  C   UNL     1     -11.087   6.444  70.191  0.00  0.00    +0.002 A 
ATOM     16  C   UNL     1     -13.207   9.494  71.903  0.00  0.00    +0.003 A 
ATOM     17  C   UNL     1     -10.578   7.734  70.136  0.00  0.00    +0.019 A 
ATOM     18  C   UNL     1     -12.989  10.760  71.429  0.00  0.00    +0.024 A 
ENDBRANCH   7   9
ENDBRANCH   5   6
BRANCH   5  19
ATOM     19  C   UNL     1     -12.463  15.520  70.706  0.00  0.00    +0.120 C 
BRANCH  19  20
ATOM     20  C   UNL     1     -13.558  14.926  71.474  0.00  0.00    +0.263 C 
ATOM     21  O   UNL     1     -13.250  14.601  72.664  0.00  0.00    -0.272 OA
ATOM     22  N   UNL     1     -14.904  15.407  71.368  0.00  0.00    -0.088 NA
ENDBRANCH  19  20
ENDBRANCH   5  19
ENDBRANCH   3   5
ENDBRANCH   1   2
BRANCH   1  23
ATOM     23  C   UNL     1      -7.773  14.965  67.207  0.00  0.00    +0.188 C 
ATOM     24  O   UNL     1      -6.658  13.938  67.205  0.00  0.00    -0.220 OA
BRANCH  23  25
ATOM     25  C   UNL     1      -7.192  15.714  68.542  0.00  0.00    +0.107 C 
BRANCH  25  27
ATOM     26  C   UNL     1      -7.015  18.044  68.944  0.00  0.00    +0.137 C 
ATOM     27  N   UNL     1      -6.385  16.805  68.185  0.00  0.00    -0.264 NA
ATOM     28  C   UNL     1      -5.205  16.660  69.048  0.00  0.00    +0.072 C 
ATOM     29  C   UNL     1      -4.864  18.132  69.637  0.00  0.00    +0.016 C 
ATOM     30  C   UNL     1      -4.729  18.786  68.078  0.00  0.00    +0.003 C 
ATOM     31  C   UNL     1      -4.468  20.290  68.632  0.00  0.00    +0.000 C 
ATOM     32  C   UNL     1      -3.522  20.223  69.771  0.00  0.00    +0.000 C 
ATOM     33  C   UNL     1      -2.552  19.102  69.538  0.00  0.00    +0.000 C 
ATOM     34  C   UNL     1      -3.278  17.806  69.722  0.00  0.00    +0.001 C 
ATOM     35  C   UNL     1      -6.310  19.086  67.884  0.00  0.00    +0.025 C 
BRANCH  26  37
ATOM     36  N   UNL     1      -8.421  18.811  66.941  0.00  0.00    -0.208 NA
ATOM     37  C   UNL     1      -8.427  18.038  68.150  0.00  0.00    +0.256 C 
ATOM     38  O   UNL     1      -9.258  18.509  68.995  0.00  0.00    -0.272 OA
BRANCH  36  40
ATOM     39  C   UNL     1      -9.382  19.694  66.264  0.00  0.00    +0.022 C 
ATOM     40  C   UNL     1      -9.522  19.601  66.552  0.00  0.00    +0.079 C 
ATOM     41  C   UNL     1     -10.655  18.976  65.887  0.00  0.00    +0.022 C 
ATOM     42  C   UNL     1      -9.735  20.857  67.306  0.00  0.00    +0.022 C 
ENDBRANCH  36  40
ENDBRANCH  26  37
ENDBRANCH  25  27
ENDBRANCH  23  25
ENDBRANCH   1  23
BRANCH   1  43
ATOM     43  C   UNL     1      -9.230  13.067  66.700  0.00  0.00    +0.051 C 
BRANCH  43  44
ATOM     44  C   UNL     1      -9.169  11.660  66.940  0.00  0.00    -0.020 A 
ATOM     45  C   UNL     1      -8.652  10.866  67.903  0.00  0.00    -0.004 A 
ATOM     46  C   UNL     1      -8.381   9.514  67.742  0.00  0.00    -0.000 A 
ATOM     47  C   UNL     1      -9.222   8.840  66.881  0.00  0.00    -0.000 A 
ATOM     48  C   UNL     1      -9.909   9.577  65.928  0.00  0.00    -0.000 A 
ATOM     49  C   UNL     1      -9.766  10.931  65.910  0.00  0.00    -0.004 A 
ENDBRANCH  43  44
ENDBRANCH   1  43
TORSDOF 13
ENDMDL
