MODEL 1
REMARK VINA RESULT:      -4.9      0.000      0.000
REMARK  Name = 
REMARK  1 active torsions:
REMARK  status: ('A' for Active; 'I' for Inactive)
REMARK    1  A    between atoms: C_2  and  C_4
REMARK                            x       y       z     vdW  Elec       q    Type
REMARK                         _______ _______ _______ _____ _____    ______ ____
ROOT
ATOM      1  C   UNL     1     -11.341  13.310  65.110  0.00  0.00    +0.016 C 
ATOM      2  C   UNL     1     -12.528  13.943  65.832  0.00  0.00    +0.001 C 
ATOM      3  C   UNL     1     -12.059  14.255  67.228  0.00  0.00    +0.000 C 
ATOM      4  C   UNL     1     -11.626  12.991  67.961  0.00  0.00    +0.000 C 
ATOM      5  C   UNL     1     -10.511  12.353  67.144  0.00  0.00    +0.000 C 
ATOM      6  C   UNL     1      -9.314  13.265  67.017  0.00  0.00    +0.000 C 
ATOM      7  C   UNL     1      -9.740  14.564  66.343  0.00  0.00    +0.000 C 
ATOM      8  C   UNL     1     -10.830  15.157  67.201  0.00  0.00    +0.000 C 
ATOM      9  C   UNL     1     -11.096  12.011  65.814  0.00  0.00    +0.001 C 
ATOM     10  C   UNL     1     -10.220  14.223  64.982  0.00  0.00    +0.001 C 
ENDROOT
BRANCH   1  12
ATOM     11  C   UNL     1     -11.178  11.480  63.484  0.00  0.00    +0.020 C 
ATOM     12  C   UNL     1     -11.960  12.930  63.636  0.00  0.00    +0.092 C 
ATOM     13  N   UNL     1     -13.235  12.219  64.255  0.00  0.00    -0.133 NA
ENDBRANCH   1  12
TORSDOF 1
ENDMDL
MODEL 2
REMARK VINA RESULT:      -4.9      0.150      2.018
REMARK  Name = 
REMARK  1 active torsions:
REMARK  status: ('A' for Active; 'I' for Inactive)
REMARK    1  A    between atoms: C_2  and  C_4
REMARK                            x       y       z     vdW  Elec       q    Type
REMARK                         _______ _______ _______ _____ _____    ______ ____
ROOT
ATOM      1  C   UNL     1     -11.505  13.280  65.104  0.00  0.00    +0.016 C 
ATOM      2  C   UNL     1     -11.166  11.926  65.723  0.00  0.00    +0.001 C 
ATOM      3  C   UNL     1     -10.631  12.210  67.101  0.00  0.00    +0.000 C 
ATOM      4  C   UNL     1      -9.377  13.074  67.040  0.00  0.00    +0.000 C 
ATOM      5  C   UNL     1      -9.753  14.366  66.326  0.00  0.00    +0.000 C 
ATOM      6  C   UNL     1     -10.823  15.129  67.070  0.00  0.00    +0.000 C 
ATOM      7  C   UNL     1     -12.067  14.256  67.199  0.00  0.00    +0.000 C 
ATOM      8  C   UNL     1     -11.639  13.004  67.924  0.00  0.00    +0.000 C 
ATOM      9  C   UNL     1     -10.192  13.985  64.952  0.00  0.00    +0.001 C 
ATOM     10  C   UNL     1     -12.556  13.972  65.829  0.00  0.00    +0.001 C 
ENDROOT
BRANCH   1  12
ATOM     11  C   UNL     1     -11.122  11.486  63.474  0.00  0.00    +0.020 C 
ATOM     12  C   UNL     1     -12.000  12.884  63.588  0.00  0.00    +0.092 C 
ATOM     13  N   UNL     1     -13.268  12.089  64.114  0.00  0.00    -0.133 NA
ENDBRANCH   1  12
TORSDOF 1
ENDMDL
MODEL 3
REMARK VINA RESULT:      -4.9      0.095      2.060
REMARK  Name = 
REMARK  1 active torsions:
REMARK  status: ('A' for Active; 'I' for Inactive)
REMARK    1  A    between atoms: C_2  and  C_4
REMARK                            x       y       z     vdW  Elec       q    Type
REMARK                         _______ _______ _______ _____ _____    ______ ____
ROOT
ATOM      1  C   UNL     1     -11.430  13.182  65.189  0.00  0.00    +0.016 C 
ATOM      2  C   UNL     1     -10.259  14.139  64.982  0.00  0.00    +0.001 C 
ATOM      3  C   UNL     1      -9.766  14.510  66.354  0.00  0.00    +0.000 C 
ATOM      4  C   UNL     1     -10.855  15.201  67.166  0.00  0.00    +0.000 C 
ATOM      5  C   UNL     1     -12.032  14.237  67.255  0.00  0.00    +0.000 C 
ATOM      6  C   UNL     1     -11.656  12.953  67.955  0.00  0.00    +0.000 C 
ATOM      7  C   UNL     1     -10.521  12.278  67.192  0.00  0.00    +0.000 C 
ATOM      8  C   UNL     1      -9.383  13.268  67.150  0.00  0.00    +0.000 C 
ATOM      9  C   UNL     1     -12.495  13.997  65.856  0.00  0.00    +0.001 C 
ATOM     10  C   UNL     1     -11.027  11.948  65.839  0.00  0.00    +0.001 C 
ENDROOT
BRANCH   1  12
ATOM     11  C   UNL     1     -11.142  11.468  63.458  0.00  0.00    +0.020 C 
ATOM     12  C   UNL     1     -11.954  12.895  63.659  0.00  0.00    +0.092 C 
ATOM     13  N   UNL     1     -13.252  12.128  64.152  0.00  0.00    -0.133 NA
ENDBRANCH   1  12
TORSDOF 1
ENDMDL
MODEL 4
REMARK VINA RESULT:      -4.7      1.063      2.513
REMARK  Name = 
REMARK  1 active torsions:
REMARK  status: ('A' for Active; 'I' for Inactive)
REMARK    1  A    between atoms: C_2  and  C_4
REMARK                            x       y       z     vdW  Elec       q    Type
REMARK                         _______ _______ _______ _____ _____    ______ ____
ROOT
ATOM      1  C   UNL     1     -11.300  14.135  65.440  0.00  0.00    +0.016 C 
ATOM      2  C   UNL     1     -10.148  13.142  65.573  0.00  0.00    +0.001 C 
ATOM      3  C   UNL     1      -9.349  13.576  66.772  0.00  0.00    +0.000 C 
ATOM      4  C   UNL     1      -8.794  14.983  66.586  0.00  0.00    +0.000 C 
ATOM      5  C   UNL     1      -9.981  15.911  66.361  0.00  0.00    +0.000 C 
ATOM      6  C   UNL     1     -10.921  15.920  67.543  0.00  0.00    +0.000 C 
ATOM      7  C   UNL     1     -11.437  14.506  67.786  0.00  0.00    +0.000 C 
ATOM      8  C   UNL     1     -10.225  13.639  68.018  0.00  0.00    +0.000 C 
ATOM      9  C   UNL     1     -10.656  15.447  65.113  0.00  0.00    +0.001 C 
ATOM     10  C   UNL     1     -12.198  14.097  66.581  0.00  0.00    +0.001 C 
ENDROOT
BRANCH   1  12
ATOM     11  C   UNL     1     -10.995  12.435  63.698  0.00  0.00    +0.020 C 
ATOM     12  C   UNL     1     -12.066  13.639  64.074  0.00  0.00    +0.092 C 
ATOM     13  N   UNL     1     -12.994  12.618  64.858  0.00  0.00    -0.133 NA
ENDBRANCH   1  12
TORSDOF 1
ENDMDL
MODEL 5
REMARK VINA RESULT:      -4.7      2.108      3.792
REMARK  Name = 
REMARK  1 active torsions:
REMARK  status: ('A' for Active; 'I' for Inactive)
REMARK    1  A    between atoms: C_2  and  C_4
REMARK                            x       y       z     vdW  Elec       q    Type
REMARK                         _______ _______ _______ _____ _____    ______ ____
ROOT
ATOM      1  C   UNL     1     -10.457  15.384  66.392  0.00  0.00    +0.016 C 
ATOM      2  C   UNL     1      -9.320  14.369  66.479  0.00  0.00    +0.001 C 
ATOM      3  C   UNL     1      -9.901  13.043  66.069  0.00  0.00    +0.000 C 
ATOM      4  C   UNL     1     -11.034  12.624  66.997  0.00  0.00    +0.000 C 
ATOM      5  C   UNL     1     -12.091  13.720  66.943  0.00  0.00    +0.000 C 
ATOM      6  C   UNL     1     -12.653  13.892  65.552  0.00  0.00    +0.000 C 
ATOM      7  C   UNL     1     -11.521  14.248  64.594  0.00  0.00    +0.000 C 
ATOM      8  C   UNL     1     -10.517  13.126  64.677  0.00  0.00    +0.000 C 
ATOM      9  C   UNL     1     -11.441  14.968  67.442  0.00  0.00    +0.001 C 
ATOM     10  C   UNL     1     -10.953  15.544  65.037  0.00  0.00    +0.001 C 
ENDROOT
BRANCH   1  12
ATOM     11  C   UNL     1      -8.286  16.515  66.225  0.00  0.00    +0.020 C 
ATOM     12  C   UNL     1      -9.762  16.772  66.930  0.00  0.00    +0.092 C 
ATOM     13  N   UNL     1     -10.255  17.610  65.676  0.00  0.00    -0.133 NA
ENDBRANCH   1  12
TORSDOF 1
ENDMDL
MODEL 6
REMARK VINA RESULT:      -4.6      3.883      5.512
REMARK  Name = 
REMARK  1 active torsions:
REMARK  status: ('A' for Active; 'I' for Inactive)
REMARK    1  A    between atoms: C_2  and  C_4
REMARK                            x       y       z     vdW  Elec       q    Type
REMARK                         _______ _______ _______ _____ _____    ______ ____
ROOT
ATOM      1  C   UNL     1      -9.455  17.325  66.543  0.00  0.00    +0.016 C 
ATOM      2  C   UNL     1      -9.677  17.189  68.047  0.00  0.00    +0.001 C 
ATOM      3  C   UNL     1      -9.375  18.536  68.646  0.00  0.00    +0.000 C 
ATOM      4  C   UNL     1      -7.934  18.951  68.376  0.00  0.00    +0.000 C 
ATOM      5  C   UNL     1      -7.745  18.974  66.864  0.00  0.00    +0.000 C 
ATOM      6  C   UNL     1      -8.662  19.972  66.198  0.00  0.00    +0.000 C 
ATOM      7  C   UNL     1     -10.110  19.611  66.511  0.00  0.00    +0.000 C 
ATOM      8  C   UNL     1     -10.241  19.620  68.013  0.00  0.00    +0.000 C 
ATOM      9  C   UNL     1      -7.988  17.582  66.381  0.00  0.00    +0.001 C 
ATOM     10  C   UNL     1     -10.371  18.272  65.932  0.00  0.00    +0.001 C 
ENDROOT
BRANCH   1  12
ATOM     11  C   UNL     1     -10.966  15.453  67.022  0.00  0.00    +0.020 C 
ATOM     12  C   UNL     1      -9.724  15.804  65.985  0.00  0.00    +0.092 C 
ATOM     13  N   UNL     1     -10.744  16.296  64.874  0.00  0.00    -0.133 NA
ENDBRANCH   1  12
TORSDOF 1
ENDMDL
MODEL 7
REMARK VINA RESULT:      -4.6      1.614      3.548
REMARK  Name = 
REMARK  1 active torsions:
REMARK  status: ('A' for Active; 'I' for Inactive)
REMARK    1  A    between atoms: C_2  and  C_4
REMARK                            x       y       z     vdW  Elec       q    Type
REMARK                         _______ _______ _______ _____ _____    ______ ____
ROOT
ATOM      1  C   UNL     1     -11.024  12.952  66.960  0.00  0.00    +0.016 C 
ATOM      2  C   UNL     1     -11.151  11.611  66.243  0.00  0.00    +0.001 C 
ATOM      3  C   UNL     1     -11.428  11.925  64.798  0.00  0.00    +0.000 C 
ATOM      4  C   UNL     1     -12.723  12.714  64.642  0.00  0.00    +0.000 C 
ATOM      5  C   UNL     1     -12.575  13.992  65.457  0.00  0.00    +0.000 C 
ATOM      6  C   UNL     1     -11.433  14.847  64.960  0.00  0.00    +0.000 C 
ATOM      7  C   UNL     1     -10.135  14.051  65.047  0.00  0.00    +0.000 C 
ATOM      8  C   UNL     1     -10.334  12.811  64.213  0.00  0.00    +0.000 C 
ATOM      9  C   UNL     1     -12.384  13.575  66.878  0.00  0.00    +0.001 C 
ATOM     10  C   UNL     1      -9.901  13.735  66.477  0.00  0.00    +0.001 C 
ENDROOT
BRANCH   1  12
ATOM     11  C   UNL     1     -11.865  13.618  69.166  0.00  0.00    +0.020 C 
ATOM     12  C   UNL     1     -10.805  12.519  68.529  0.00  0.00    +0.092 C 
ATOM     13  N   UNL     1     -11.936  11.407  68.473  0.00  0.00    -0.133 NA
ENDBRANCH   1  12
TORSDOF 1
ENDMDL
MODEL 8
REMARK VINA RESULT:      -4.6      2.116      3.746
REMARK  Name = 
REMARK  1 active torsions:
REMARK  status: ('A' for Active; 'I' for Inactive)
REMARK    1  A    between atoms: C_2  and  C_4
REMARK                            x       y       z     vdW  Elec       q    Type
REMARK                         _______ _______ _______ _____ _____    ______ ____
ROOT
ATOM      1  C   UNL     1     -10.388  15.400  66.567  0.00  0.00    +0.016 C 
ATOM      2  C   UNL     1     -10.886  15.654  65.146  0.00  0.00    +0.001 C 
ATOM      3  C   UNL     1     -11.494  14.363  64.671  0.00  0.00    +0.000 C 
ATOM      4  C   UNL     1     -10.465  13.239  64.660  0.00  0.00    +0.000 C 
ATOM      5  C   UNL     1      -9.933  13.098  66.080  0.00  0.00    +0.000 C 
ATOM      6  C   UNL     1     -11.026  12.735  67.057  0.00  0.00    +0.000 C 
ATOM      7  C   UNL     1     -12.100  13.817  67.036  0.00  0.00    +0.000 C 
ATOM      8  C   UNL     1     -12.599  13.901  65.614  0.00  0.00    +0.000 C 
ATOM      9  C   UNL     1      -9.284  14.397  66.425  0.00  0.00    +0.001 C 
ATOM     10  C   UNL     1     -11.468  15.081  67.483  0.00  0.00    +0.001 C 
ENDROOT
BRANCH   1  12
ATOM     11  C   UNL     1      -8.231  16.517  66.225  0.00  0.00    +0.020 C 
ATOM     12  C   UNL     1      -9.674  16.823  66.973  0.00  0.00    +0.092 C 
ATOM     13  N   UNL     1     -10.225  17.569  65.686  0.00  0.00    -0.133 NA
ENDBRANCH   1  12
TORSDOF 1
ENDMDL
MODEL 9
REMARK VINA RESULT:      -4.6      2.070      3.623
REMARK  Name = 
REMARK  1 active torsions:
REMARK  status: ('A' for Active; 'I' for Inactive)
REMARK    1  A    between atoms: C_2  and  C_4
REMARK                            x       y       z     vdW  Elec       q    Type
REMARK                         _______ _______ _______ _____ _____    ______ ____
ROOT
ATOM      1  C   UNL     1     -10.348  15.234  66.402  0.00  0.00    +0.016 C 
ATOM      2  C   UNL     1     -11.499  14.981  67.372  0.00  0.00    +0.001 C 
ATOM      3  C   UNL     1     -12.148  13.696  66.937  0.00  0.00    +0.000 C 
ATOM      4  C   UNL     1     -12.689  13.803  65.516  0.00  0.00    +0.000 C 
ATOM      5  C   UNL     1     -11.515  14.152  64.610  0.00  0.00    +0.000 C 
ATOM      6  C   UNL     1     -10.447  13.084  64.636  0.00  0.00    +0.000 C 
ATOM      7  C   UNL     1      -9.938  12.916  66.063  0.00  0.00    +0.000 C 
ATOM      8  C   UNL     1     -11.135  12.557  66.908  0.00  0.00    +0.000 C 
ATOM      9  C   UNL     1     -10.995  15.473  65.072  0.00  0.00    +0.001 C 
ATOM     10  C   UNL     1      -9.328  14.203  66.473  0.00  0.00    +0.001 C 
ENDROOT
BRANCH   1  12
ATOM     11  C   UNL     1      -8.255  16.500  66.217  0.00  0.00    +0.020 C 
ATOM     12  C   UNL     1      -9.753  16.683  66.896  0.00  0.00    +0.092 C 
ATOM     13  N   UNL     1     -10.284  17.441  65.608  0.00  0.00    -0.133 NA
ENDBRANCH   1  12
TORSDOF 1
ENDMDL
