MODEL 1
REMARK VINA RESULT:      -5.9      0.000      0.000
REMARK  Name = 
REMARK  4 active torsions:
REMARK  status: ('A' for Active; 'I' for Inactive)
REMARK    1  A    between atoms: C_2  and  N_5
REMARK    2  A    between atoms: N_5  and  C_6
REMARK    3  A    between atoms: C_6  and  C_7
REMARK    4  A    between atoms: C_7  and  C_9
REMARK                            x       y       z     vdW  Elec       q    Type
REMARK                         _______ _______ _______ _____ _____    ______ ____
ROOT
ATOM      1  C   UNL     1     -11.000  14.085  68.575  0.00  0.00    +0.192 C 
ATOM      2  O   UNL     1     -11.823  12.799  68.645  0.00  0.00    -0.217 OA
ENDROOT
BRANCH   1   3
ATOM      3  C   UNL     1     -11.266  14.266  66.987  0.00  0.00    +0.015 A 
ATOM      4  C   UNL     1     -11.888  13.201  66.426  0.00  0.00    +0.040 A 
ATOM      5  C   UNL     1     -12.359  13.375  65.133  0.00  0.00    +0.199 A 
ATOM      6  O   UNL     1     -13.333  12.488  64.681  0.00  0.00    -0.286 OA
ATOM      7  C   UNL     1     -12.094  14.571  64.480  0.00  0.00    +0.084 A 
ATOM      8  C   UNL     1     -11.244  15.495  65.046  0.00  0.00    +0.199 A 
ATOM      9  O   UNL     1     -11.157  16.739  64.436  0.00  0.00    -0.286 OA
ATOM     10  C   UNL     1     -10.763  15.290  66.331  0.00  0.00    +0.040 A 
ENDBRANCH   1   3
BRANCH   1  11
ATOM     11  C   UNL     1     -12.299  14.999  69.104  0.00  0.00    +0.126 C 
BRANCH  11  12
ATOM     12  N   UNL     1     -12.504  14.196  70.176  0.00  0.00    -0.218 NA
BRANCH  12  14
ATOM     13  C   UNL     1     -12.031  15.076  72.106  0.00  0.00    +0.017 C 
ATOM     14  C   UNL     1     -12.978  14.473  71.435  0.00  0.00    +0.060 C 
ATOM     15  C   UNL     1     -13.205  13.056  71.981  0.00  0.00    +0.017 C 
ATOM     16  C   UNL     1     -14.325  15.154  71.556  0.00  0.00    +0.017 C 
ENDBRANCH  12  14
ENDBRANCH  11  12
ENDBRANCH   1  11
TORSDOF 4
ENDMDL
MODEL 2
REMARK VINA RESULT:      -5.7      2.462      6.131
REMARK  Name = 
REMARK  4 active torsions:
REMARK  status: ('A' for Active; 'I' for Inactive)
REMARK    1  A    between atoms: C_2  and  N_5
REMARK    2  A    between atoms: N_5  and  C_6
REMARK    3  A    between atoms: C_6  and  C_7
REMARK    4  A    between atoms: C_7  and  C_9
REMARK                            x       y       z     vdW  Elec       q    Type
REMARK                         _______ _______ _______ _____ _____    ______ ____
ROOT
ATOM      1  C   UNL     1     -10.952  15.286  69.511  0.00  0.00    +0.192 C 
ATOM      2  O   UNL     1     -11.771  16.477  69.013  0.00  0.00    -0.217 OA
ENDROOT
BRANCH   1   3
ATOM      3  C   UNL     1     -11.873  15.100  70.831  0.00  0.00    +0.015 A 
ATOM      4  C   UNL     1     -12.565  13.935  70.838  0.00  0.00    +0.040 A 
ATOM      5  C   UNL     1     -13.187  13.596  72.031  0.00  0.00    +0.199 A 
ATOM      6  O   UNL     1     -13.546  12.262  72.210  0.00  0.00    -0.286 OA
ATOM      7  C   UNL     1     -13.134  14.491  73.091  0.00  0.00    +0.084 A 
ATOM      8  C   UNL     1     -12.616  15.754  72.905  0.00  0.00    +0.199 A 
ATOM      9  O   UNL     1     -12.427  16.538  74.034  0.00  0.00    -0.286 OA
ATOM     10  C   UNL     1     -12.022  16.081  71.694  0.00  0.00    +0.040 A 
ENDBRANCH   1   3
BRANCH   1  11
ATOM     11  C   UNL     1     -11.796  14.232  68.523  0.00  0.00    +0.126 C 
BRANCH  11  12
ATOM     12  N   UNL     1     -11.465  14.920  67.405  0.00  0.00    -0.218 NA
BRANCH  12  14
ATOM     13  C   UNL     1     -12.418  13.952  65.707  0.00  0.00    +0.017 C 
ATOM     14  C   UNL     1     -11.302  14.507  66.105  0.00  0.00    +0.060 C 
ATOM     15  C   UNL     1     -10.204  13.446  66.270  0.00  0.00    +0.017 C 
ATOM     16  C   UNL     1     -10.736  15.497  65.108  0.00  0.00    +0.017 C 
ENDBRANCH  12  14
ENDBRANCH  11  12
ENDBRANCH   1  11
TORSDOF 4
ENDMDL
MODEL 3
REMARK VINA RESULT:      -5.7      2.634      6.365
REMARK  Name = 
REMARK  4 active torsions:
REMARK  status: ('A' for Active; 'I' for Inactive)
REMARK    1  A    between atoms: C_2  and  N_5
REMARK    2  A    between atoms: N_5  and  C_6
REMARK    3  A    between atoms: C_6  and  C_7
REMARK    4  A    between atoms: C_7  and  C_9
REMARK                            x       y       z     vdW  Elec       q    Type
REMARK                         _______ _______ _______ _____ _____    ______ ____
ROOT
ATOM      1  C   UNL     1     -10.977  15.475  69.848  0.00  0.00    +0.192 C 
ATOM      2  O   UNL     1     -11.712  16.542  69.036  0.00  0.00    -0.217 OA
ENDROOT
BRANCH   1   3
ATOM      3  C   UNL     1     -12.144  15.409  70.971  0.00  0.00    +0.015 A 
ATOM      4  C   UNL     1     -11.715  15.760  72.207  0.00  0.00    +0.040 A 
ATOM      5  C   UNL     1     -12.697  15.956  73.166  0.00  0.00    +0.199 A 
ATOM      6  O   UNL     1     -12.352  16.695  74.296  0.00  0.00    -0.286 OA
ATOM      7  C   UNL     1     -14.020  15.702  72.830  0.00  0.00    +0.084 A 
ATOM      8  C   UNL     1     -14.327  15.113  71.623  0.00  0.00    +0.199 A 
ATOM      9  O   UNL     1     -15.667  15.046  71.269  0.00  0.00    -0.286 OA
ATOM     10  C   UNL     1     -13.324  14.902  70.688  0.00  0.00    +0.040 A 
ENDBRANCH   1   3
BRANCH   1  11
ATOM     11  C   UNL     1     -11.568  14.255  68.868  0.00  0.00    +0.126 C 
BRANCH  11  12
ATOM     12  N   UNL     1     -11.235  14.921  67.736  0.00  0.00    -0.218 NA
BRANCH  12  14
ATOM     13  C   UNL     1     -12.229  13.985  66.044  0.00  0.00    +0.017 C 
ATOM     14  C   UNL     1     -11.088  14.486  66.442  0.00  0.00    +0.060 C 
ATOM     15  C   UNL     1     -10.048  13.371  66.624  0.00  0.00    +0.017 C 
ATOM     16  C   UNL     1     -10.466  15.433  65.437  0.00  0.00    +0.017 C 
ENDBRANCH  12  14
ENDBRANCH  11  12
ENDBRANCH   1  11
TORSDOF 4
ENDMDL
MODEL 4
REMARK VINA RESULT:      -5.7      1.339      1.487
REMARK  Name = 
REMARK  4 active torsions:
REMARK  status: ('A' for Active; 'I' for Inactive)
REMARK    1  A    between atoms: C_2  and  N_5
REMARK    2  A    between atoms: N_5  and  C_6
REMARK    3  A    between atoms: C_6  and  C_7
REMARK    4  A    between atoms: C_7  and  C_9
REMARK                            x       y       z     vdW  Elec       q    Type
REMARK                         _______ _______ _______ _____ _____    ______ ____
ROOT
ATOM      1  C   UNL     1     -11.638  15.609  69.480  0.00  0.00    +0.192 C 
ATOM      2  O   UNL     1     -10.181  15.420  69.905  0.00  0.00    -0.217 OA
ENDROOT
BRANCH   1   3
ATOM      3  C   UNL     1     -11.345  15.122  67.963  0.00  0.00    +0.015 A 
ATOM      4  C   UNL     1     -11.582  13.801  67.772  0.00  0.00    +0.040 A 
ATOM      5  C   UNL     1     -11.583  13.361  66.456  0.00  0.00    +0.199 A 
ATOM      6  O   UNL     1     -12.209  12.146  66.188  0.00  0.00    -0.286 OA
ATOM      7  C   UNL     1     -11.263  14.261  65.450  0.00  0.00    +0.084 A 
ATOM      8  C   UNL     1     -10.797  15.518  65.767  0.00  0.00    +0.199 A 
ATOM      9  O   UNL     1     -10.663  16.429  64.729  0.00  0.00    -0.286 OA
ATOM     10  C   UNL     1     -10.780  15.930  67.092  0.00  0.00    +0.040 A 
ENDBRANCH   1   3
BRANCH   1  11
ATOM     11  C   UNL     1     -12.060  14.112  70.097  0.00  0.00    +0.126 C 
BRANCH  11  12
ATOM     12  N   UNL     1     -12.215  14.604  71.349  0.00  0.00    -0.218 NA
BRANCH  12  14
ATOM     13  C   UNL     1     -12.863  14.932  73.398  0.00  0.00    +0.017 C 
ATOM     14  C   UNL     1     -13.275  14.540  72.221  0.00  0.00    +0.060 C 
ATOM     15  C   UNL     1     -13.559  13.031  72.227  0.00  0.00    +0.017 C 
ATOM     16  C   UNL     1     -14.583  15.177  71.801  0.00  0.00    +0.017 C 
ENDBRANCH  12  14
ENDBRANCH  11  12
ENDBRANCH   1  11
TORSDOF 4
ENDMDL
MODEL 5
REMARK VINA RESULT:      -5.7      1.453      2.016
REMARK  Name = 
REMARK  4 active torsions:
REMARK  status: ('A' for Active; 'I' for Inactive)
REMARK    1  A    between atoms: C_2  and  N_5
REMARK    2  A    between atoms: N_5  and  C_6
REMARK    3  A    between atoms: C_6  and  C_7
REMARK    4  A    between atoms: C_7  and  C_9
REMARK                            x       y       z     vdW  Elec       q    Type
REMARK                         _______ _______ _______ _____ _____    ______ ____
ROOT
ATOM      1  C   UNL     1     -11.601  15.361  69.061  0.00  0.00    +0.192 C 
ATOM      2  O   UNL     1     -10.118  15.101  69.329  0.00  0.00    -0.217 OA
ENDROOT
BRANCH   1   3
ATOM      3  C   UNL     1     -11.640  14.332  67.810  0.00  0.00    +0.015 A 
ATOM      4  C   UNL     1     -11.370  13.052  68.164  0.00  0.00    +0.040 A 
ATOM      5  C   UNL     1     -11.615  12.083  67.201  0.00  0.00    +0.199 A 
ATOM      6  O   UNL     1     -11.746  10.766  67.636  0.00  0.00    -0.286 OA
ATOM      7  C   UNL     1     -12.029  12.485  65.939  0.00  0.00    +0.084 A 
ATOM      8  C   UNL     1     -12.037  13.821  65.606  0.00  0.00    +0.199 A 
ATOM      9  O   UNL     1     -12.624  14.174  64.399  0.00  0.00    -0.286 OA
ATOM     10  C   UNL     1     -11.764  14.773  66.577  0.00  0.00    +0.040 A 
ENDBRANCH   1   3
BRANCH   1  11
ATOM     11  C   UNL     1     -12.054  14.264  70.242  0.00  0.00    +0.126 C 
BRANCH  11  12
ATOM     12  N   UNL     1     -12.885  15.154  70.834  0.00  0.00    -0.218 NA
BRANCH  12  14
ATOM     13  C   UNL     1     -13.484  15.782  72.827  0.00  0.00    +0.017 C 
ATOM     14  C   UNL     1     -13.813  14.996  71.835  0.00  0.00    +0.060 C 
ATOM     15  C   UNL     1     -13.584  13.526  72.217  0.00  0.00    +0.017 C 
ATOM     16  C   UNL     1     -15.279  15.076  71.467  0.00  0.00    +0.017 C 
ENDBRANCH  12  14
ENDBRANCH  11  12
ENDBRANCH   1  11
TORSDOF 4
ENDMDL
MODEL 6
REMARK VINA RESULT:      -5.6      3.015      6.605
REMARK  Name = 
REMARK  4 active torsions:
REMARK  status: ('A' for Active; 'I' for Inactive)
REMARK    1  A    between atoms: C_2  and  N_5
REMARK    2  A    between atoms: N_5  and  C_6
REMARK    3  A    between atoms: C_6  and  C_7
REMARK    4  A    between atoms: C_7  and  C_9
REMARK                            x       y       z     vdW  Elec       q    Type
REMARK                         _______ _______ _______ _____ _____    ______ ____
ROOT
ATOM      1  C   UNL     1     -11.934  15.637  69.165  0.00  0.00    +0.192 C 
ATOM      2  O   UNL     1     -10.969  14.464  68.988  0.00  0.00    -0.217 OA
ENDROOT
BRANCH   1   3
ATOM      3  C   UNL     1     -12.276  15.232  70.696  0.00  0.00    +0.015 A 
ATOM      4  C   UNL     1     -11.748  16.087  71.604  0.00  0.00    +0.040 A 
ATOM      5  C   UNL     1     -12.190  15.945  72.911  0.00  0.00    +0.199 A 
ATOM      6  O   UNL     1     -12.002  17.025  73.772  0.00  0.00    -0.286 OA
ATOM      7  C   UNL     1     -13.058  14.906  73.215  0.00  0.00    +0.084 A 
ATOM      8  C   UNL     1     -13.343  13.944  72.271  0.00  0.00    +0.199 A 
ATOM      9  O   UNL     1     -14.348  13.035  72.571  0.00  0.00    -0.286 OA
ATOM     10  C   UNL     1     -12.869  14.091  70.975  0.00  0.00    +0.040 A 
ENDBRANCH   1   3
BRANCH   1  11
ATOM     11  C   UNL     1     -10.673  16.683  69.507  0.00  0.00    +0.126 C 
BRANCH  11  12
ATOM     12  N   UNL     1     -10.923  17.438  68.411  0.00  0.00    -0.218 NA
BRANCH  12  14
ATOM     13  C   UNL     1      -8.880  17.949  67.872  0.00  0.00    +0.017 C 
ATOM     14  C   UNL     1     -10.096  17.862  67.399  0.00  0.00    +0.060 C 
ATOM     15  C   UNL     1     -10.666  19.261  67.122  0.00  0.00    +0.017 C 
ATOM     16  C   UNL     1     -10.171  17.144  66.068  0.00  0.00    +0.017 C 
ENDBRANCH  12  14
ENDBRANCH  11  12
ENDBRANCH   1  11
TORSDOF 4
ENDMDL
MODEL 7
REMARK VINA RESULT:      -5.5      2.079      3.058
REMARK  Name = 
REMARK  4 active torsions:
REMARK  status: ('A' for Active; 'I' for Inactive)
REMARK    1  A    between atoms: C_2  and  N_5
REMARK    2  A    between atoms: N_5  and  C_6
REMARK    3  A    between atoms: C_6  and  C_7
REMARK    4  A    between atoms: C_7  and  C_9
REMARK                            x       y       z     vdW  Elec       q    Type
REMARK                         _______ _______ _______ _____ _____    ______ ____
ROOT
ATOM      1  C   UNL     1     -11.076  14.749  69.290  0.00  0.00    +0.192 C 
ATOM      2  O   UNL     1     -12.107  14.261  68.273  0.00  0.00    -0.217 OA
ENDROOT
BRANCH   1   3
ATOM      3  C   UNL     1     -10.614  15.986  68.351  0.00  0.00    +0.015 A 
ATOM      4  C   UNL     1     -10.535  15.659  67.039  0.00  0.00    +0.040 A 
ATOM      5  C   UNL     1     -10.378  16.713  66.151  0.00  0.00    +0.199 A 
ATOM      6  O   UNL     1     -10.699  16.480  64.815  0.00  0.00    -0.286 OA
ATOM      7  C   UNL     1     -10.228  17.997  66.657  0.00  0.00    +0.084 A 
ATOM      8  C   UNL     1     -10.076  18.194  68.011  0.00  0.00    +0.199 A 
ATOM      9  O   UNL     1     -10.108  19.502  68.473  0.00  0.00    -0.286 OA
ATOM     10  C   UNL     1     -10.211  17.121  68.881  0.00  0.00    +0.040 A 
ENDBRANCH   1   3
BRANCH   1  11
ATOM     11  C   UNL     1     -12.248  15.574  70.153  0.00  0.00    +0.126 C 
BRANCH  11  12
ATOM     12  N   UNL     1     -12.426  14.543  71.013  0.00  0.00    -0.218 NA
BRANCH  12  14
ATOM     13  C   UNL     1     -13.570  13.156  72.235  0.00  0.00    +0.017 C 
ATOM     14  C   UNL     1     -13.236  14.415  72.115  0.00  0.00    +0.060 C 
ATOM     15  C   UNL     1     -14.449  15.254  71.686  0.00  0.00    +0.017 C 
ATOM     16  C   UNL     1     -12.775  15.039  73.415  0.00  0.00    +0.017 C 
ENDBRANCH  12  14
ENDBRANCH  11  12
ENDBRANCH   1  11
TORSDOF 4
ENDMDL
MODEL 8
REMARK VINA RESULT:      -5.5      2.391      6.237
REMARK  Name = 
REMARK  4 active torsions:
REMARK  status: ('A' for Active; 'I' for Inactive)
REMARK    1  A    between atoms: C_2  and  N_5
REMARK    2  A    between atoms: N_5  and  C_6
REMARK    3  A    between atoms: C_6  and  C_7
REMARK    4  A    between atoms: C_7  and  C_9
REMARK                            x       y       z     vdW  Elec       q    Type
REMARK                         _______ _______ _______ _____ _____    ______ ____
ROOT
ATOM      1  C   UNL     1     -11.216  14.998  69.177  0.00  0.00    +0.192 C 
ATOM      2  O   UNL     1     -12.120  16.206  68.930  0.00  0.00    -0.217 OA
ENDROOT
BRANCH   1   3
ATOM      3  C   UNL     1     -12.102  14.488  70.433  0.00  0.00    +0.015 A 
ATOM      4  C   UNL     1     -12.698  15.498  71.111  0.00  0.00    +0.040 A 
ATOM      5  C   UNL     1     -13.655  15.132  72.046  0.00  0.00    +0.199 A 
ATOM      6  O   UNL     1     -14.560  16.109  72.454  0.00  0.00    -0.286 OA
ATOM      7  C   UNL     1     -13.875  13.782  72.283  0.00  0.00    +0.084 A 
ATOM      8  C   UNL     1     -13.046  12.836  71.722  0.00  0.00    +0.199 A 
ATOM      9  O   UNL     1     -13.418  11.505  71.850  0.00  0.00    -0.286 OA
ATOM     10  C   UNL     1     -12.077  13.227  70.809  0.00  0.00    +0.040 A 
ENDBRANCH   1   3
BRANCH   1  11
ATOM     11  C   UNL     1     -12.003  14.109  67.997  0.00  0.00    +0.126 C 
BRANCH  11  12
ATOM     12  N   UNL     1     -11.089  14.440  67.054  0.00  0.00    -0.218 NA
BRANCH  12  14
ATOM     13  C   UNL     1     -10.240  13.435  65.323  0.00  0.00    +0.017 C 
ATOM     14  C   UNL     1     -11.123  14.329  65.685  0.00  0.00    +0.060 C 
ATOM     15  C   UNL     1     -10.667  15.735  65.266  0.00  0.00    +0.017 C 
ATOM     16  C   UNL     1     -12.470  14.146  65.018  0.00  0.00    +0.017 C 
ENDBRANCH  12  14
ENDBRANCH  11  12
ENDBRANCH   1  11
TORSDOF 4
ENDMDL
MODEL 9
REMARK VINA RESULT:      -5.5      1.006      2.273
REMARK  Name = 
REMARK  4 active torsions:
REMARK  status: ('A' for Active; 'I' for Inactive)
REMARK    1  A    between atoms: C_2  and  N_5
REMARK    2  A    between atoms: N_5  and  C_6
REMARK    3  A    between atoms: C_6  and  C_7
REMARK    4  A    between atoms: C_7  and  C_9
REMARK                            x       y       z     vdW  Elec       q    Type
REMARK                         _______ _______ _______ _____ _____    ______ ____
ROOT
ATOM      1  C   UNL     1     -11.019  14.239  69.247  0.00  0.00    +0.192 C 
ATOM      2  O   UNL     1     -12.047  13.116  69.113  0.00  0.00    -0.217 OA
ENDROOT
BRANCH   1   3
ATOM      3  C   UNL     1     -11.183  14.685  67.698  0.00  0.00    +0.015 A 
ATOM      4  C   UNL     1     -10.421  15.756  67.368  0.00  0.00    +0.040 A 
ATOM      5  C   UNL     1     -10.325  16.050  66.016  0.00  0.00    +0.199 A 
ATOM      6  O   UNL     1      -9.262  16.852  65.608  0.00  0.00    -0.286 OA
ATOM      7  C   UNL     1     -11.067  15.299  65.114  0.00  0.00    +0.084 A 
ATOM      8  C   UNL     1     -11.999  14.393  65.570  0.00  0.00    +0.199 A 
ATOM      9  O   UNL     1     -12.581  13.550  64.633  0.00  0.00    -0.286 OA
ATOM     10  C   UNL     1     -12.097  14.133  66.930  0.00  0.00    +0.040 A 
ENDBRANCH   1   3
BRANCH   1  11
ATOM     11  C   UNL     1     -12.167  15.278  69.881  0.00  0.00    +0.126 C 
BRANCH  11  12
ATOM     12  N   UNL     1     -12.465  14.428  70.892  0.00  0.00    -0.218 NA
BRANCH  12  14
ATOM     13  C   UNL     1     -12.760  15.152  72.921  0.00  0.00    +0.017 C 
ATOM     14  C   UNL     1     -13.356  14.538  71.932  0.00  0.00    +0.060 C 
ATOM     15  C   UNL     1     -13.585  13.059  72.279  0.00  0.00    +0.017 C 
ATOM     16  C   UNL     1     -14.737  15.082  71.632  0.00  0.00    +0.017 C 
ENDBRANCH  12  14
ENDBRANCH  11  12
ENDBRANCH   1  11
TORSDOF 4
ENDMDL
