MODEL 1
REMARK VINA RESULT:      -4.3      0.000      0.000
REMARK  Name = 
REMARK  5 active torsions:
REMARK  status: ('A' for Active; 'I' for Inactive)
REMARK    1  A    between atoms: P_2  and  N_3
REMARK    2  A    between atoms: N_3  and  C_4
REMARK    3  A    between atoms: C_4  and  C_5
REMARK    4  A    between atoms: N_11  and  C_12
REMARK    5  A    between atoms: C_12  and  C_13
REMARK                            x       y       z     vdW  Elec       q    Type
REMARK                         _______ _______ _______ _____ _____    ______ ____
ROOT
ATOM      1  O   UNL     1      -7.977  18.027  65.768  0.00  0.00    -0.253 OA
ATOM      2  P   UNL     1      -9.123  17.461  66.329  0.00  0.00    +0.365 P 
ATOM      3  N   UNL     1      -9.036  17.704  68.066  0.00  0.00    -0.196 NA
ATOM      4  C   UNL     1      -9.824  18.889  68.363  0.00  0.00    +0.084 C 
ATOM      5  C   UNL     1      -9.570  19.897  67.268  0.00  0.00    +0.050 C 
ATOM      6  C   UNL     1     -10.521  19.604  66.140  0.00  0.00    +0.153 C 
ATOM      7  O   UNL     1     -10.483  18.281  65.725  0.00  0.00    -0.291 OA
ENDROOT
BRANCH   3   8
ATOM      8  C   UNL     1      -9.487  16.540  68.783  0.00  0.00    +0.099 C 
BRANCH   8   9
ATOM      9  C   UNL     1     -10.982  16.584  68.987  0.00  0.00    +0.113 C 
ATOM     10 CL   UNL     1     -11.645  14.964  68.655  0.00  0.00    -0.112 Cl
ENDBRANCH   8   9
ENDBRANCH   3   8
BRANCH   2  11
ATOM     11  N   UNL     1      -9.303  15.785  65.907  0.00  0.00    -0.132 NA
BRANCH  11  12
ATOM     12  C   UNL     1     -10.508  15.497  65.181  0.00  0.00    +0.117 C 
BRANCH  12  13
ATOM     13  C   UNL     1     -10.877  14.045  65.159  0.00  0.00    +0.114 C 
ATOM     14 CL   UNL     1     -12.588  13.744  65.466  0.00  0.00    -0.112 Cl
ENDBRANCH  12  13
ENDBRANCH  11  12
ENDBRANCH   2  11
TORSDOF 5
ENDMDL
MODEL 2
REMARK VINA RESULT:      -4.3      1.038      1.038
REMARK  Name = 
REMARK  5 active torsions:
REMARK  status: ('A' for Active; 'I' for Inactive)
REMARK    1  A    between atoms: P_2  and  N_3
REMARK    2  A    between atoms: N_3  and  C_4
REMARK    3  A    between atoms: C_4  and  C_5
REMARK    4  A    between atoms: N_11  and  C_12
REMARK    5  A    between atoms: C_12  and  C_13
REMARK                            x       y       z     vdW  Elec       q    Type
REMARK                         _______ _______ _______ _____ _____    ______ ____
ROOT
ATOM      1  O   UNL     1      -8.173  17.131  65.764  0.00  0.00    -0.253 OA
ATOM      2  P   UNL     1      -9.417  16.724  66.248  0.00  0.00    +0.365 P 
ATOM      3  N   UNL     1      -9.384  16.890  67.996  0.00  0.00    -0.196 NA
ATOM      4  C   UNL     1     -10.002  18.168  68.307  0.00  0.00    +0.084 C 
ATOM      5  C   UNL     1      -9.545  19.164  67.268  0.00  0.00    +0.050 C 
ATOM      6  C   UNL     1     -10.470  19.058  66.087  0.00  0.00    +0.153 C 
ATOM      7  O   UNL     1     -10.607  17.760  65.618  0.00  0.00    -0.291 OA
ENDROOT
BRANCH   3   8
ATOM      8  C   UNL     1     -10.039  15.782  68.641  0.00  0.00    +0.099 C 
BRANCH   8   9
ATOM      9  C   UNL     1     -11.490  16.101  68.908  0.00  0.00    +0.113 C 
ATOM     10 CL   UNL     1     -11.780  15.980  70.662  0.00  0.00    -0.112 Cl
ENDBRANCH   8   9
ENDBRANCH   3   8
BRANCH   2  11
ATOM     11  N   UNL     1      -9.821  15.110  65.747  0.00  0.00    -0.132 NA
BRANCH  11  12
ATOM     12  C   UNL     1     -11.076  15.016  65.054  0.00  0.00    +0.117 C 
BRANCH  12  13
ATOM     13  C   UNL     1     -12.110  14.200  65.767  0.00  0.00    +0.114 C 
ATOM     14 CL   UNL     1     -12.485  12.674  64.965  0.00  0.00    -0.112 Cl
ENDBRANCH  12  13
ENDBRANCH  11  12
ENDBRANCH   2  11
TORSDOF 5
ENDMDL
MODEL 3
REMARK VINA RESULT:      -4.3      2.022      2.242
REMARK  Name = 
REMARK  5 active torsions:
REMARK  status: ('A' for Active; 'I' for Inactive)
REMARK    1  A    between atoms: P_2  and  N_3
REMARK    2  A    between atoms: N_3  and  C_4
REMARK    3  A    between atoms: C_4  and  C_5
REMARK    4  A    between atoms: N_11  and  C_12
REMARK    5  A    between atoms: C_12  and  C_13
REMARK                            x       y       z     vdW  Elec       q    Type
REMARK                         _______ _______ _______ _____ _____    ______ ____
ROOT
ATOM      1  O   UNL     1     -10.955  17.650  64.907  0.00  0.00    -0.253 OA
ATOM      2  P   UNL     1     -10.352  17.208  66.086  0.00  0.00    +0.365 P 
ATOM      3  N   UNL     1      -8.627  17.494  65.938  0.00  0.00    -0.196 NA
ATOM      4  C   UNL     1      -8.352  18.754  66.609  0.00  0.00    +0.084 C 
ATOM      5  C   UNL     1      -9.484  19.701  66.291  0.00  0.00    +0.050 C 
ATOM      6  C   UNL     1     -10.583  19.462  67.290  0.00  0.00    +0.153 C 
ATOM      7  O   UNL     1     -10.955  18.128  67.380  0.00  0.00    -0.291 OA
ENDROOT
BRANCH   3   8
ATOM      8  C   UNL     1      -7.864  16.398  66.475  0.00  0.00    +0.099 C 
BRANCH   8   9
ATOM      9  C   UNL     1      -7.282  16.760  67.820  0.00  0.00    +0.113 C 
ATOM     10 CL   UNL     1      -8.299  16.032  69.089  0.00  0.00    -0.112 Cl
ENDBRANCH   8   9
ENDBRANCH   3   8
BRANCH   2  11
ATOM     11  N   UNL     1     -10.717  15.543  66.424  0.00  0.00    -0.132 NA
BRANCH  11  12
ATOM     12  C   UNL     1     -11.212  14.816  65.289  0.00  0.00    +0.117 C 
BRANCH  12  13
ATOM     13  C   UNL     1     -12.512  14.111  65.533  0.00  0.00    +0.114 C 
ATOM     14 CL   UNL     1     -12.585  12.497  64.823  0.00  0.00    -0.112 Cl
ENDBRANCH  12  13
ENDBRANCH  11  12
ENDBRANCH   2  11
TORSDOF 5
ENDMDL
MODEL 4
REMARK VINA RESULT:      -4.2      3.095      5.101
REMARK  Name = 
REMARK  5 active torsions:
REMARK  status: ('A' for Active; 'I' for Inactive)
REMARK    1  A    between atoms: P_2  and  N_3
REMARK    2  A    between atoms: N_3  and  C_4
REMARK    3  A    between atoms: C_4  and  C_5
REMARK    4  A    between atoms: N_11  and  C_12
REMARK    5  A    between atoms: C_12  and  C_13
REMARK                            x       y       z     vdW  Elec       q    Type
REMARK                         _______ _______ _______ _____ _____    ______ ____
ROOT
ATOM      1  O   UNL     1     -10.957  17.495  68.255  0.00  0.00    -0.253 OA
ATOM      2  P   UNL     1     -10.998  16.185  68.736  0.00  0.00    +0.365 P 
ATOM      3  N   UNL     1     -11.106  15.115  67.348  0.00  0.00    -0.196 NA
ATOM      4  C   UNL     1      -9.755  14.663  67.061  0.00  0.00    +0.084 C 
ATOM      5  C   UNL     1      -8.825  15.835  67.263  0.00  0.00    +0.050 C 
ATOM      6  C   UNL     1      -8.450  15.884  68.718  0.00  0.00    +0.153 C 
ATOM      7  O   UNL     1      -9.549  15.868  69.565  0.00  0.00    -0.291 OA
ENDROOT
BRANCH   3   8
ATOM      8  C   UNL     1     -12.019  14.029  67.593  0.00  0.00    +0.099 C 
BRANCH   8   9
ATOM      9  C   UNL     1     -11.688  12.845  66.716  0.00  0.00    +0.113 C 
ATOM     10 CL   UNL     1     -12.606  12.996  65.197  0.00  0.00    -0.112 Cl
ENDBRANCH   8   9
ENDBRANCH   3   8
BRANCH   2  11
ATOM     11  N   UNL     1     -12.299  15.939  69.861  0.00  0.00    -0.132 NA
BRANCH  11  12
ATOM     12  C   UNL     1     -11.873  15.854  71.230  0.00  0.00    +0.117 C 
BRANCH  12  13
ATOM     13  C   UNL     1     -12.980  15.576  72.200  0.00  0.00    +0.114 C 
ATOM     14 CL   UNL     1     -12.441  15.458  73.875  0.00  0.00    -0.112 Cl
ENDBRANCH  12  13
ENDBRANCH  11  12
ENDBRANCH   2  11
TORSDOF 5
ENDMDL
MODEL 5
REMARK VINA RESULT:      -4.2      2.284      4.622
REMARK  Name = 
REMARK  5 active torsions:
REMARK  status: ('A' for Active; 'I' for Inactive)
REMARK    1  A    between atoms: P_2  and  N_3
REMARK    2  A    between atoms: N_3  and  C_4
REMARK    3  A    between atoms: C_4  and  C_5
REMARK    4  A    between atoms: N_11  and  C_12
REMARK    5  A    between atoms: C_12  and  C_13
REMARK                            x       y       z     vdW  Elec       q    Type
REMARK                         _______ _______ _______ _____ _____    ______ ____
ROOT
ATOM      1  O   UNL     1      -8.965  16.086  67.685  0.00  0.00    -0.253 OA
ATOM      2  P   UNL     1     -10.161  16.318  67.003  0.00  0.00    +0.365 P 
ATOM      3  N   UNL     1     -10.717  14.778  66.371  0.00  0.00    -0.196 NA
ATOM      4  C   UNL     1     -11.692  14.264  67.319  0.00  0.00    +0.084 C 
ATOM      5  C   UNL     1     -11.190  14.574  68.709  0.00  0.00    +0.050 C 
ATOM      6  C   UNL     1     -11.644  15.963  69.065  0.00  0.00    +0.153 C 
ATOM      7  O   UNL     1     -11.308  16.909  68.107  0.00  0.00    -0.291 OA
ENDROOT
BRANCH   3   8
ATOM      8  C   UNL     1     -11.251  14.917  65.041  0.00  0.00    +0.099 C 
BRANCH   8   9
ATOM      9  C   UNL     1     -12.429  13.995  64.839  0.00  0.00    +0.113 C 
ATOM     10 CL   UNL     1     -12.071  12.915  63.468  0.00  0.00    -0.112 Cl
ENDBRANCH   8   9
ENDBRANCH   3   8
BRANCH   2  11
ATOM     11  N   UNL     1      -9.983  17.516  65.756  0.00  0.00    -0.132 NA
BRANCH  11  12
ATOM     12  C   UNL     1     -10.498  18.807  66.116  0.00  0.00    +0.117 C 
BRANCH  12  13
ATOM     13  C   UNL     1      -9.510  19.686  66.821  0.00  0.00    +0.114 C 
ATOM     14 CL   UNL     1      -9.814  19.847  68.551  0.00  0.00    -0.112 Cl
ENDBRANCH  12  13
ENDBRANCH  11  12
ENDBRANCH   2  11
TORSDOF 5
ENDMDL
MODEL 6
REMARK VINA RESULT:      -4.2      3.333      4.978
REMARK  Name = 
REMARK  5 active torsions:
REMARK  status: ('A' for Active; 'I' for Inactive)
REMARK    1  A    between atoms: P_2  and  N_3
REMARK    2  A    between atoms: N_3  and  C_4
REMARK    3  A    between atoms: C_4  and  C_5
REMARK    4  A    between atoms: N_11  and  C_12
REMARK    5  A    between atoms: C_12  and  C_13
REMARK                            x       y       z     vdW  Elec       q    Type
REMARK                         _______ _______ _______ _____ _____    ______ ____
ROOT
ATOM      1  O   UNL     1      -9.961  14.516  68.665  0.00  0.00    -0.253 OA
ATOM      2  P   UNL     1     -10.901  15.430  68.183  0.00  0.00    +0.365 P 
ATOM      3  N   UNL     1     -10.058  16.545  67.122  0.00  0.00    -0.196 NA
ATOM      4  C   UNL     1     -10.257  16.064  65.765  0.00  0.00    +0.084 C 
ATOM      5  C   UNL     1     -10.165  14.557  65.794  0.00  0.00    +0.050 C 
ATOM      6  C   UNL     1     -11.526  14.017  66.135  0.00  0.00    +0.153 C 
ATOM      7  O   UNL     1     -12.065  14.583  67.281  0.00  0.00    -0.291 OA
ENDROOT
BRANCH   3   8
ATOM      8  C   UNL     1     -10.519  17.897  67.308  0.00  0.00    +0.099 C 
BRANCH   8   9
ATOM      9  C   UNL     1      -9.632  18.870  66.571  0.00  0.00    +0.113 C 
ATOM     10 CL   UNL     1      -9.791  20.470  67.339  0.00  0.00    -0.112 Cl
ENDBRANCH   8   9
ENDBRANCH   3   8
BRANCH   2  11
ATOM     11  N   UNL     1     -11.738  16.247  69.467  0.00  0.00    -0.132 NA
BRANCH  11  12
ATOM     12  C   UNL     1     -12.296  15.362  70.451  0.00  0.00    +0.117 C 
BRANCH  12  13
ATOM     13  C   UNL     1     -12.228  15.884  71.854  0.00  0.00    +0.114 C 
ATOM     14 CL   UNL     1     -13.772  15.831  72.705  0.00  0.00    -0.112 Cl
ENDBRANCH  12  13
ENDBRANCH  11  12
ENDBRANCH   2  11
TORSDOF 5
ENDMDL
MODEL 7
REMARK VINA RESULT:      -4.1      2.439      4.269
REMARK  Name = 
REMARK  5 active torsions:
REMARK  status: ('A' for Active; 'I' for Inactive)
REMARK    1  A    between atoms: P_2  and  N_3
REMARK    2  A    between atoms: N_3  and  C_4
REMARK    3  A    between atoms: C_4  and  C_5
REMARK    4  A    between atoms: N_11  and  C_12
REMARK    5  A    between atoms: C_12  and  C_13
REMARK                            x       y       z     vdW  Elec       q    Type
REMARK                         _______ _______ _______ _____ _____    ______ ____
ROOT
ATOM      1  O   UNL     1     -10.890  16.299  64.742  0.00  0.00    -0.253 OA
ATOM      2  P   UNL     1     -10.335  15.376  65.630  0.00  0.00    +0.365 P 
ATOM      3  N   UNL     1     -11.515  15.087  66.897  0.00  0.00    -0.196 NA
ATOM      4  C   UNL     1     -12.232  13.875  66.535  0.00  0.00    +0.084 C 
ATOM      5  C   UNL     1     -12.457  13.904  65.042  0.00  0.00    +0.050 C 
ATOM      6  C   UNL     1     -11.238  13.325  64.379  0.00  0.00    +0.153 C 
ATOM      7  O   UNL     1     -10.056  13.923  64.794  0.00  0.00    -0.291 OA
ENDROOT
BRANCH   3   8
ATOM      8  C   UNL     1     -10.886  14.997  68.190  0.00  0.00    +0.099 C 
BRANCH   8   9
ATOM      9  C   UNL     1     -11.626  15.836  69.203  0.00  0.00    +0.113 C 
ATOM     10 CL   UNL     1     -12.486  14.743  70.318  0.00  0.00    -0.112 Cl
ENDBRANCH   8   9
ENDBRANCH   3   8
BRANCH   2  11
ATOM     11  N   UNL     1      -8.807  15.908  66.261  0.00  0.00    -0.132 NA
BRANCH  11  12
ATOM     12  C   UNL     1      -8.627  17.332  66.217  0.00  0.00    +0.117 C 
BRANCH  12  13
ATOM     13  C   UNL     1      -9.079  18.046  67.455  0.00  0.00    +0.114 C 
ATOM     14 CL   UNL     1     -10.636  18.856  67.276  0.00  0.00    -0.112 Cl
ENDBRANCH  12  13
ENDBRANCH  11  12
ENDBRANCH   2  11
TORSDOF 5
ENDMDL
MODEL 8
REMARK VINA RESULT:      -4.1      4.127      5.686
REMARK  Name = 
REMARK  5 active torsions:
REMARK  status: ('A' for Active; 'I' for Inactive)
REMARK    1  A    between atoms: P_2  and  N_3
REMARK    2  A    between atoms: N_3  and  C_4
REMARK    3  A    between atoms: C_4  and  C_5
REMARK    4  A    between atoms: N_11  and  C_12
REMARK    5  A    between atoms: C_12  and  C_13
REMARK                            x       y       z     vdW  Elec       q    Type
REMARK                         _______ _______ _______ _____ _____    ______ ____
ROOT
ATOM      1  O   UNL     1     -12.003  14.433  67.887  0.00  0.00    -0.253 OA
ATOM      2  P   UNL     1     -11.522  13.465  67.003  0.00  0.00    +0.365 P 
ATOM      3  N   UNL     1     -12.192  13.816  65.419  0.00  0.00    -0.196 NA
ATOM      4  C   UNL     1     -11.181  14.568  64.694  0.00  0.00    +0.084 C 
ATOM      5  C   UNL     1     -10.536  15.527  65.665  0.00  0.00    +0.050 C 
ATOM      6  C   UNL     1      -9.424  14.796  66.366  0.00  0.00    +0.153 C 
ATOM      7  O   UNL     1      -9.830  13.594  66.927  0.00  0.00    -0.291 OA
ENDROOT
BRANCH   3   8
ATOM      8  C   UNL     1     -12.589  12.611  64.737  0.00  0.00    +0.099 C 
BRANCH   8   9
ATOM      9  C   UNL     1     -11.628  12.291  63.617  0.00  0.00    +0.113 C 
ATOM     10 CL   UNL     1     -10.598  10.931  64.131  0.00  0.00    -0.112 Cl
ENDBRANCH   8   9
ENDBRANCH   3   8
BRANCH   2  11
ATOM     11  N   UNL     1     -11.892  11.852  67.531  0.00  0.00    -0.132 NA
BRANCH  11  12
ATOM     12  C   UNL     1     -11.793  11.671  68.953  0.00  0.00    +0.117 C 
BRANCH  12  13
ATOM     13  C   UNL     1     -11.091  10.412  69.363  0.00  0.00    +0.114 C 
ATOM     14 CL   UNL     1     -11.474   9.891  71.005  0.00  0.00    -0.112 Cl
ENDBRANCH  12  13
ENDBRANCH  11  12
ENDBRANCH   2  11
TORSDOF 5
ENDMDL
MODEL 9
REMARK VINA RESULT:      -4.0      2.164      2.630
REMARK  Name = 
REMARK  5 active torsions:
REMARK  status: ('A' for Active; 'I' for Inactive)
REMARK    1  A    between atoms: P_2  and  N_3
REMARK    2  A    between atoms: N_3  and  C_4
REMARK    3  A    between atoms: C_4  and  C_5
REMARK    4  A    between atoms: N_11  and  C_12
REMARK    5  A    between atoms: C_12  and  C_13
REMARK                            x       y       z     vdW  Elec       q    Type
REMARK                         _______ _______ _______ _____ _____    ______ ____
ROOT
ATOM      1  O   UNL     1     -10.757  17.259  65.169  0.00  0.00    -0.253 OA
ATOM      2  P   UNL     1      -9.993  17.154  66.333  0.00  0.00    +0.365 P 
ATOM      3  N   UNL     1      -8.426  17.873  66.004  0.00  0.00    -0.196 NA
ATOM      4  C   UNL     1      -8.478  19.237  66.505  0.00  0.00    +0.084 C 
ATOM      5  C   UNL     1      -9.844  19.793  66.182  0.00  0.00    +0.050 C 
ATOM      6  C   UNL     1     -10.778  19.400  67.293  0.00  0.00    +0.153 C 
ATOM      7  O   UNL     1     -10.759  18.040  67.564  0.00  0.00    -0.291 OA
ENDROOT
BRANCH   3   8
ATOM      8  C   UNL     1      -7.361  17.103  66.593  0.00  0.00    +0.099 C 
BRANCH   8   9
ATOM      9  C   UNL     1      -7.013  17.631  67.963  0.00  0.00    +0.113 C 
ATOM     10 CL   UNL     1      -7.105  16.284  69.126  0.00  0.00    -0.112 Cl
ENDBRANCH   8   9
ENDBRANCH   3   8
BRANCH   2  11
ATOM     11  N   UNL     1      -9.862  15.512  66.886  0.00  0.00    -0.132 NA
BRANCH  11  12
ATOM     12  C   UNL     1     -10.494  15.275  68.154  0.00  0.00    +0.117 C 
BRANCH  12  13
ATOM     13  C   UNL     1     -11.807  14.560  68.060  0.00  0.00    +0.114 C 
ATOM     14 CL   UNL     1     -12.189  13.993  66.434  0.00  0.00    -0.112 Cl
ENDBRANCH  12  13
ENDBRANCH  11  12
ENDBRANCH   2  11
TORSDOF 5
ENDMDL
