MODEL 1
REMARK VINA RESULT:      -6.1      0.000      0.000
REMARK  Name = 
REMARK  6 active torsions:
REMARK  status: ('A' for Active; 'I' for Inactive)
REMARK    1  A    between atoms: N_2  and  C_3
REMARK    2  A    between atoms: N_2  and  C_12
REMARK    3  A    between atoms: C_3  and  C_4
REMARK    4  A    between atoms: C_5  and  C_6
REMARK    5  A    between atoms: C_7  and  C_8
REMARK    6  A    between atoms: C_12  and  C_13
REMARK                            x       y       z     vdW  Elec       q    Type
REMARK                         _______ _______ _______ _____ _____    ______ ____
ROOT
ATOM      1  C   UNL     1      -7.758  16.081  68.476  0.00  0.00    +0.090 C 
ATOM      2  N   UNL     1      -8.929  15.999  67.645  0.00  0.00    -0.264 NA
ENDROOT
BRANCH   2   3
ATOM      3  C   UNL     1      -8.671  15.559  66.304  0.00  0.00    +0.099 C 
BRANCH   3   4
ATOM      4  C   UNL     1      -9.707  14.616  65.791  0.00  0.00    -0.006 A 
ATOM      5  C   UNL     1     -10.025  13.495  66.535  0.00  0.00    -0.003 A 
ATOM      6  C   UNL     1     -11.329  13.027  66.637  0.00  0.00    -0.000 A 
ATOM      7  C   UNL     1     -11.674  12.058  67.562  0.00  0.00    -0.000 A 
ATOM      8  C   UNL     1     -10.779  11.785  68.581  0.00  0.00    -0.000 A 
ATOM      9  C   UNL     1      -9.439  11.973  68.292  0.00  0.00    -0.000 A 
ATOM     10  C   UNL     1     -12.346  13.638  65.934  0.00  0.00    -0.000 A 
ATOM     11  C   UNL     1     -12.028  14.661  65.074  0.00  0.00    -0.000 A 
ATOM     12  C   UNL     1      -9.069  12.928  67.359  0.00  0.00    -0.000 A 
ATOM     13  C   UNL     1     -10.725  15.140  65.010  0.00  0.00    -0.003 A 
ENDBRANCH   3   4
ENDBRANCH   2   3
BRANCH   2  14
ATOM     14  C   UNL     1      -9.776  17.165  67.725  0.00  0.00    +0.100 C 
BRANCH  14  15
ATOM     15  C   UNL     1     -10.763  16.889  68.816  0.00  0.00    +0.000 C 
ATOM     16  C   UNL     1     -11.638  15.911  68.772  0.00  0.00    +0.046 C 
BRANCH  16  17
ATOM     17  C   UNL     1     -11.953  15.066  69.902  0.00  0.00    -0.064 C 
ATOM     18  C   UNL     1     -12.444  14.604  70.916  0.00  0.00    -0.088 C 
BRANCH  18  19
ATOM     19  C   UNL     1     -13.379  14.377  72.031  0.00  0.00    +0.054 C 
ATOM     20  C   UNL     1     -13.491  12.862  72.143  0.00  0.00    +0.013 C 
ATOM     21  C   UNL     1     -14.755  14.941  71.704  0.00  0.00    +0.013 C 
ATOM     22  C   UNL     1     -12.846  14.974  73.310  0.00  0.00    +0.013 C 
ENDBRANCH  18  19
ENDBRANCH  16  17
ENDBRANCH  14  15
ENDBRANCH   2  14
TORSDOF 6
ENDMDL
MODEL 2
REMARK VINA RESULT:      -6.0      2.552      4.363
REMARK  Name = 
REMARK  6 active torsions:
REMARK  status: ('A' for Active; 'I' for Inactive)
REMARK    1  A    between atoms: N_2  and  C_3
REMARK    2  A    between atoms: N_2  and  C_12
REMARK    3  A    between atoms: C_3  and  C_4
REMARK    4  A    between atoms: C_5  and  C_6
REMARK    5  A    between atoms: C_7  and  C_8
REMARK    6  A    between atoms: C_12  and  C_13
REMARK                            x       y       z     vdW  Elec       q    Type
REMARK                         _______ _______ _______ _____ _____    ______ ____
ROOT
ATOM      1  C   UNL     1      -8.571  10.266  69.508  0.00  0.00    +0.090 C 
ATOM      2  N   UNL     1      -9.965  10.217  69.154  0.00  0.00    -0.264 NA
ENDROOT
BRANCH   2   3
ATOM      3  C   UNL     1     -10.409  11.323  68.356  0.00  0.00    +0.099 C 
BRANCH   3   4
ATOM      4  C   UNL     1     -10.844  10.916  66.987  0.00  0.00    -0.006 A 
ATOM      5  C   UNL     1     -11.385  11.866  66.142  0.00  0.00    -0.003 A 
ATOM      6  C   UNL     1     -11.113  11.878  64.780  0.00  0.00    -0.000 A 
ATOM      7  C   UNL     1     -11.460  12.957  63.986  0.00  0.00    -0.000 A 
ATOM      8  C   UNL     1     -11.801  14.140  64.615  0.00  0.00    -0.000 A 
ATOM      9  C   UNL     1     -12.379  14.030  65.868  0.00  0.00    -0.000 A 
ATOM     10  C   UNL     1     -10.337  10.887  64.216  0.00  0.00    -0.000 A 
ATOM     11  C   UNL     1      -9.912   9.851  65.012  0.00  0.00    -0.000 A 
ATOM     12  C   UNL     1     -12.058  12.951  66.675  0.00  0.00    -0.000 A 
ATOM     13  C   UNL     1     -10.163   9.873  66.379  0.00  0.00    -0.003 A 
ENDBRANCH   3   4
ENDBRANCH   2   3
BRANCH   2  14
ATOM     14  C   UNL     1     -10.833   9.912  70.266  0.00  0.00    +0.100 C 
BRANCH  14  15
ATOM     15  C   UNL     1     -11.855  11.005  70.310  0.00  0.00    +0.000 C 
ATOM     16  C   UNL     1     -12.781  11.093  71.237  0.00  0.00    +0.046 C 
BRANCH  16  17
ATOM     17  C   UNL     1     -13.165  12.334  71.870  0.00  0.00    -0.064 C 
ATOM     18  C   UNL     1     -13.383  13.509  72.105  0.00  0.00    -0.088 C 
BRANCH  18  19
ATOM     19  C   UNL     1     -13.600  14.953  71.903  0.00  0.00    +0.054 C 
ATOM     20  C   UNL     1     -15.070  15.077  71.531  0.00  0.00    +0.013 C 
ATOM     21  C   UNL     1     -12.761  15.466  70.740  0.00  0.00    +0.013 C 
ATOM     22  C   UNL     1     -13.295  15.723  73.163  0.00  0.00    +0.013 C 
ENDBRANCH  18  19
ENDBRANCH  16  17
ENDBRANCH  14  15
ENDBRANCH   2  14
TORSDOF 6
ENDMDL
MODEL 3
REMARK VINA RESULT:      -5.9      2.356      4.133
REMARK  Name = 
REMARK  6 active torsions:
REMARK  status: ('A' for Active; 'I' for Inactive)
REMARK    1  A    between atoms: N_2  and  C_3
REMARK    2  A    between atoms: N_2  and  C_12
REMARK    3  A    between atoms: C_3  and  C_4
REMARK    4  A    between atoms: C_5  and  C_6
REMARK    5  A    between atoms: C_7  and  C_8
REMARK    6  A    between atoms: C_12  and  C_13
REMARK                            x       y       z     vdW  Elec       q    Type
REMARK                         _______ _______ _______ _____ _____    ______ ____
ROOT
ATOM      1  C   UNL     1     -10.591   8.947  67.553  0.00  0.00    +0.090 C 
ATOM      2  N   UNL     1     -10.614  10.229  68.206  0.00  0.00    -0.264 NA
ENDROOT
BRANCH   2   3
ATOM      3  C   UNL     1      -9.585  11.129  67.774  0.00  0.00    +0.099 C 
BRANCH   3   4
ATOM      4  C   UNL     1     -10.124  12.393  67.192  0.00  0.00    -0.006 A 
ATOM      5  C   UNL     1     -10.572  12.396  65.885  0.00  0.00    -0.003 A 
ATOM      6  C   UNL     1     -11.695  13.114  65.494  0.00  0.00    -0.000 A 
ATOM      7  C   UNL     1     -12.272  12.927  64.251  0.00  0.00    -0.000 A 
ATOM      8  C   UNL     1     -11.905  11.807  63.528  0.00  0.00    -0.000 A 
ATOM      9  C   UNL     1     -10.624  11.328  63.739  0.00  0.00    -0.000 A 
ATOM     10  C   UNL     1     -12.363  13.910  66.401  0.00  0.00    -0.000 A 
ATOM     11  C   UNL     1     -11.847  14.038  67.669  0.00  0.00    -0.000 A 
ATOM     12  C   UNL     1     -10.019  11.516  64.971  0.00  0.00    -0.000 A 
ATOM     13  C   UNL     1     -10.744  13.285  68.053  0.00  0.00    -0.003 A 
ENDBRANCH   3   4
ENDBRANCH   2   3
BRANCH   2  14
ATOM     14  C   UNL     1     -10.753  10.144  69.640  0.00  0.00    +0.100 C 
BRANCH  14  15
ATOM     15  C   UNL     1     -12.057  10.801  69.973  0.00  0.00    +0.000 C 
ATOM     16  C   UNL     1     -12.501  10.947  71.201  0.00  0.00    +0.046 C 
BRANCH  16  17
ATOM     17  C   UNL     1     -13.133  12.153  71.685  0.00  0.00    -0.064 C 
ATOM     18  C   UNL     1     -13.357  13.300  72.025  0.00  0.00    -0.088 C 
BRANCH  18  19
ATOM     19  C   UNL     1     -13.219  14.760  72.178  0.00  0.00    +0.054 C 
ATOM     20  C   UNL     1     -14.611  15.313  71.902  0.00  0.00    +0.013 C 
ATOM     21  C   UNL     1     -12.260  15.322  71.138  0.00  0.00    +0.013 C 
ATOM     22  C   UNL     1     -12.764  15.114  73.572  0.00  0.00    +0.013 C 
ENDBRANCH  18  19
ENDBRANCH  16  17
ENDBRANCH  14  15
ENDBRANCH   2  14
TORSDOF 6
ENDMDL
MODEL 4
REMARK VINA RESULT:      -5.8      2.607      4.799
REMARK  Name = 
REMARK  6 active torsions:
REMARK  status: ('A' for Active; 'I' for Inactive)
REMARK    1  A    between atoms: N_2  and  C_3
REMARK    2  A    between atoms: N_2  and  C_12
REMARK    3  A    between atoms: C_3  and  C_4
REMARK    4  A    between atoms: C_5  and  C_6
REMARK    5  A    between atoms: C_7  and  C_8
REMARK    6  A    between atoms: C_12  and  C_13
REMARK                            x       y       z     vdW  Elec       q    Type
REMARK                         _______ _______ _______ _____ _____    ______ ____
ROOT
ATOM      1  C   UNL     1     -10.412  11.179  65.754  0.00  0.00    +0.090 C 
ATOM      2  N   UNL     1     -10.787  11.693  67.044  0.00  0.00    -0.264 NA
ENDROOT
BRANCH   2   3
ATOM      3  C   UNL     1     -11.346  10.712  67.929  0.00  0.00    +0.099 C 
BRANCH   3   4
ATOM      4  C   UNL     1     -10.563  10.551  69.189  0.00  0.00    -0.006 A 
ATOM      5  C   UNL     1     -11.206  10.107  70.330  0.00  0.00    -0.003 A 
ATOM      6  C   UNL     1     -10.599   9.232  71.222  0.00  0.00    -0.000 A 
ATOM      7  C   UNL     1     -11.321   8.612  72.225  0.00  0.00    -0.000 A 
ATOM      8  C   UNL     1     -12.701   8.635  72.139  0.00  0.00    -0.000 A 
ATOM      9  C   UNL     1     -13.262   9.728  71.501  0.00  0.00    -0.000 A 
ATOM     10  C   UNL     1      -9.294   8.830  71.025  0.00  0.00    -0.000 A 
ATOM     11  C   UNL     1      -8.589   9.375  69.979  0.00  0.00    -0.000 A 
ATOM     12  C   UNL     1     -12.552  10.375  70.504  0.00  0.00    -0.000 A 
ATOM     13  C   UNL     1      -9.222  10.221  69.076  0.00  0.00    -0.003 A 
ENDBRANCH   3   4
ENDBRANCH   2   3
BRANCH   2  14
ATOM     14  C   UNL     1     -11.542  12.921  66.980  0.00  0.00    +0.100 C 
BRANCH  14  15
ATOM     15  C   UNL     1     -11.214  13.680  68.228  0.00  0.00    +0.000 C 
ATOM     16  C   UNL     1     -11.706  14.865  68.506  0.00  0.00    +0.046 C 
BRANCH  16  17
ATOM     17  C   UNL     1     -12.174  15.251  69.818  0.00  0.00    -0.064 C 
ATOM     18  C   UNL     1     -12.798  15.330  70.861  0.00  0.00    -0.088 C 
BRANCH  18  19
ATOM     19  C   UNL     1     -13.708  14.990  71.968  0.00  0.00    +0.054 C 
ATOM     20  C   UNL     1     -13.416  13.528  72.276  0.00  0.00    +0.013 C 
ATOM     21  C   UNL     1     -15.160  15.111  71.528  0.00  0.00    +0.013 C 
ATOM     22  C   UNL     1     -13.440  15.859  73.171  0.00  0.00    +0.013 C 
ENDBRANCH  18  19
ENDBRANCH  16  17
ENDBRANCH  14  15
ENDBRANCH   2  14
TORSDOF 6
ENDMDL
MODEL 5
REMARK VINA RESULT:      -5.8      1.386      5.364
REMARK  Name = 
REMARK  6 active torsions:
REMARK  status: ('A' for Active; 'I' for Inactive)
REMARK    1  A    between atoms: N_2  and  C_3
REMARK    2  A    between atoms: N_2  and  C_12
REMARK    3  A    between atoms: C_3  and  C_4
REMARK    4  A    between atoms: C_5  and  C_6
REMARK    5  A    between atoms: C_7  and  C_8
REMARK    6  A    between atoms: C_12  and  C_13
REMARK                            x       y       z     vdW  Elec       q    Type
REMARK                         _______ _______ _______ _____ _____    ______ ____
ROOT
ATOM      1  C   UNL     1      -8.982  16.316  69.074  0.00  0.00    +0.090 C 
ATOM      2  N   UNL     1     -10.184  17.045  68.768  0.00  0.00    -0.264 NA
ENDROOT
BRANCH   2   3
ATOM      3  C   UNL     1     -11.376  16.246  68.776  0.00  0.00    +0.099 C 
BRANCH   3   4
ATOM      4  C   UNL     1     -11.216  14.970  69.533  0.00  0.00    -0.006 A 
ATOM      5  C   UNL     1     -11.825  14.839  70.767  0.00  0.00    -0.003 A 
ATOM      6  C   UNL     1     -12.405  13.645  71.176  0.00  0.00    -0.000 A 
ATOM      7  C   UNL     1     -13.212  13.584  72.298  0.00  0.00    -0.000 A 
ATOM      8  C   UNL     1     -13.678  14.774  72.826  0.00  0.00    -0.000 A 
ATOM      9  C   UNL     1     -12.870  15.885  72.653  0.00  0.00    -0.000 A 
ATOM     10  C   UNL     1     -12.328  12.523  70.378  0.00  0.00    -0.000 A 
ATOM     11  C   UNL     1     -11.600  12.592  69.214  0.00  0.00    -0.000 A 
ATOM     12  C   UNL     1     -12.043  15.962  71.545  0.00  0.00    -0.000 A 
ATOM     13  C   UNL     1     -11.056  13.803  68.803  0.00  0.00    -0.003 A 
ENDBRANCH   3   4
ENDBRANCH   2   3
BRANCH   2  14
ATOM     14  C   UNL     1     -10.062  17.901  67.612  0.00  0.00    +0.100 C 
BRANCH  14  15
ATOM     15  C   UNL     1     -10.447  17.066  66.431  0.00  0.00    +0.000 C 
ATOM     16  C   UNL     1      -9.595  16.325  65.759  0.00  0.00    +0.046 C 
BRANCH  16  17
ATOM     17  C   UNL     1      -9.888  14.988  65.296  0.00  0.00    -0.064 C 
ATOM     18  C   UNL     1     -10.430  13.921  65.068  0.00  0.00    -0.088 C 
BRANCH  18  19
ATOM     19  C   UNL     1     -11.476  12.892  64.929  0.00  0.00    +0.054 C 
ATOM     20  C   UNL     1     -12.724  13.520  65.533  0.00  0.00    +0.013 C 
ATOM     21  C   UNL     1     -11.120  11.650  65.734  0.00  0.00    +0.013 C 
ATOM     22  C   UNL     1     -11.696  12.543  63.478  0.00  0.00    +0.013 C 
ENDBRANCH  18  19
ENDBRANCH  16  17
ENDBRANCH  14  15
ENDBRANCH   2  14
TORSDOF 6
ENDMDL
MODEL 6
REMARK VINA RESULT:      -5.7      1.886      5.989
REMARK  Name = 
REMARK  6 active torsions:
REMARK  status: ('A' for Active; 'I' for Inactive)
REMARK    1  A    between atoms: N_2  and  C_3
REMARK    2  A    between atoms: N_2  and  C_12
REMARK    3  A    between atoms: C_3  and  C_4
REMARK    4  A    between atoms: C_5  and  C_6
REMARK    5  A    between atoms: C_7  and  C_8
REMARK    6  A    between atoms: C_12  and  C_13
REMARK                            x       y       z     vdW  Elec       q    Type
REMARK                         _______ _______ _______ _____ _____    ______ ____
ROOT
ATOM      1  C   UNL     1     -11.681  12.321  65.874  0.00  0.00    +0.090 C 
ATOM      2  N   UNL     1     -11.006  12.494  67.133  0.00  0.00    -0.264 NA
ENDROOT
BRANCH   2   3
ATOM      3  C   UNL     1     -11.718  13.307  68.077  0.00  0.00    +0.099 C 
BRANCH   3   4
ATOM      4  C   UNL     1     -11.689  12.751  69.461  0.00  0.00    -0.006 A 
ATOM      5  C   UNL     1     -12.233  13.491  70.495  0.00  0.00    -0.003 A 
ATOM      6  C   UNL     1     -12.945  12.895  71.528  0.00  0.00    -0.000 A 
ATOM      7  C   UNL     1     -13.682  13.650  72.423  0.00  0.00    -0.000 A 
ATOM      8  C   UNL     1     -13.947  14.967  72.094  0.00  0.00    -0.000 A 
ATOM      9  C   UNL     1     -13.007  15.609  71.307  0.00  0.00    -0.000 A 
ATOM     10  C   UNL     1     -13.072  11.523  71.587  0.00  0.00    -0.000 A 
ATOM     11  C   UNL     1     -12.414  10.761  70.651  0.00  0.00    -0.000 A 
ATOM     12  C   UNL     1     -12.246  14.872  70.414  0.00  0.00    -0.000 A 
ATOM     13  C   UNL     1     -11.736  11.374  69.604  0.00  0.00    -0.003 A 
ENDBRANCH   3   4
ENDBRANCH   2   3
BRANCH   2  14
ATOM     14  C   UNL     1      -9.611  12.840  66.997  0.00  0.00    +0.100 C 
BRANCH  14  15
ATOM     15  C   UNL     1      -9.499  14.281  67.387  0.00  0.00    +0.000 C 
ATOM     16  C   UNL     1      -8.982  15.203  66.608  0.00  0.00    +0.046 C 
BRANCH  16  17
ATOM     17  C   UNL     1      -9.547  16.524  66.446  0.00  0.00    -0.064 C 
ATOM     18  C   UNL     1      -9.762  17.720  66.514  0.00  0.00    -0.088 C 
BRANCH  18  19
ATOM     19  C   UNL     1      -9.562  19.160  66.760  0.00  0.00    +0.054 C 
ATOM     20  C   UNL     1     -10.570  19.853  65.854  0.00  0.00    +0.013 C 
ATOM     21  C   UNL     1      -8.162  19.588  66.344  0.00  0.00    +0.013 C 
ATOM     22  C   UNL     1      -9.816  19.498  68.208  0.00  0.00    +0.013 C 
ENDBRANCH  18  19
ENDBRANCH  16  17
ENDBRANCH  14  15
ENDBRANCH   2  14
TORSDOF 6
ENDMDL
MODEL 7
REMARK VINA RESULT:      -5.7      1.727      4.429
REMARK  Name = 
REMARK  6 active torsions:
REMARK  status: ('A' for Active; 'I' for Inactive)
REMARK    1  A    between atoms: N_2  and  C_3
REMARK    2  A    between atoms: N_2  and  C_12
REMARK    3  A    between atoms: C_3  and  C_4
REMARK    4  A    between atoms: C_5  and  C_6
REMARK    5  A    between atoms: C_7  and  C_8
REMARK    6  A    between atoms: C_12  and  C_13
REMARK                            x       y       z     vdW  Elec       q    Type
REMARK                         _______ _______ _______ _____ _____    ______ ____
ROOT
ATOM      1  C   UNL     1     -10.975  14.944  64.987  0.00  0.00    +0.090 C 
ATOM      2  N   UNL     1     -10.256  15.151  66.215  0.00  0.00    -0.264 NA
ENDROOT
BRANCH   2   3
ATOM      3  C   UNL     1      -9.250  16.172  66.144  0.00  0.00    +0.099 C 
BRANCH   3   4
ATOM      4  C   UNL     1      -9.550  17.346  67.015  0.00  0.00    -0.006 A 
ATOM      5  C   UNL     1      -8.616  17.745  67.953  0.00  0.00    -0.003 A 
ATOM      6  C   UNL     1      -8.377  19.085  68.227  0.00  0.00    -0.000 A 
ATOM      7  C   UNL     1      -7.289  19.481  68.984  0.00  0.00    -0.000 A 
ATOM      8  C   UNL     1      -6.282  18.559  69.204  0.00  0.00    -0.000 A 
ATOM      9  C   UNL     1      -6.660  17.228  69.239  0.00  0.00    -0.000 A 
ATOM     10  C   UNL     1      -9.124  20.067  67.610  0.00  0.00    -0.000 A 
ATOM     11  C   UNL     1     -10.156  19.687  66.786  0.00  0.00    -0.000 A 
ATOM     12  C   UNL     1      -7.755  16.810  68.501  0.00  0.00    -0.000 A 
ATOM     13  C   UNL     1     -10.359  18.344  66.495  0.00  0.00    -0.003 A 
ENDBRANCH   3   4
ENDBRANCH   2   3
BRANCH   2  14
ATOM     14  C   UNL     1      -9.804  13.927  66.833  0.00  0.00    +0.100 C 
BRANCH  14  15
ATOM     15  C   UNL     1     -10.693  13.705  68.018  0.00  0.00    +0.000 C 
ATOM     16  C   UNL     1     -10.680  14.470  69.086  0.00  0.00    +0.046 C 
BRANCH  16  17
ATOM     17  C   UNL     1     -11.875  14.907  69.772  0.00  0.00    -0.064 C 
ATOM     18  C   UNL     1     -12.793  15.023  70.562  0.00  0.00    -0.088 C 
BRANCH  18  19
ATOM     19  C   UNL     1     -13.601  14.891  71.788  0.00  0.00    +0.054 C 
ATOM     20  C   UNL     1     -13.449  13.433  72.199  0.00  0.00    +0.013 C 
ATOM     21  C   UNL     1     -15.071  15.161  71.496  0.00  0.00    +0.013 C 
ATOM     22  C   UNL     1     -13.092  15.812  72.869  0.00  0.00    +0.013 C 
ENDBRANCH  18  19
ENDBRANCH  16  17
ENDBRANCH  14  15
ENDBRANCH   2  14
TORSDOF 6
ENDMDL
MODEL 8
REMARK VINA RESULT:      -5.7      1.919      3.979
REMARK  Name = 
REMARK  6 active torsions:
REMARK  status: ('A' for Active; 'I' for Inactive)
REMARK    1  A    between atoms: N_2  and  C_3
REMARK    2  A    between atoms: N_2  and  C_12
REMARK    3  A    between atoms: C_3  and  C_4
REMARK    4  A    between atoms: C_5  and  C_6
REMARK    5  A    between atoms: C_7  and  C_8
REMARK    6  A    between atoms: C_12  and  C_13
REMARK                            x       y       z     vdW  Elec       q    Type
REMARK                         _______ _______ _______ _____ _____    ______ ____
ROOT
ATOM      1  C   UNL     1     -10.757   9.012  67.256  0.00  0.00    +0.090 C 
ATOM      2  N   UNL     1     -10.983  10.303  67.849  0.00  0.00    -0.264 NA
ENDROOT
BRANCH   2   3
ATOM      3  C   UNL     1     -10.262  11.373  67.224  0.00  0.00    +0.099 C 
BRANCH   3   4
ATOM      4  C   UNL     1     -11.144  12.499  66.797  0.00  0.00    -0.006 A 
ATOM      5  C   UNL     1     -10.823  13.788  67.177  0.00  0.00    -0.003 A 
ATOM      6  C   UNL     1     -11.002  14.871  66.327  0.00  0.00    -0.000 A 
ATOM      7  C   UNL     1     -10.465  16.112  66.619  0.00  0.00    -0.000 A 
ATOM      8  C   UNL     1      -9.499  16.184  67.605  0.00  0.00    -0.000 A 
ATOM      9  C   UNL     1      -9.579  15.245  68.618  0.00  0.00    -0.000 A 
ATOM     10  C   UNL     1     -11.578  14.695  65.086  0.00  0.00    -0.000 A 
ATOM     11  C   UNL     1     -12.040  13.445  64.747  0.00  0.00    -0.000 A 
ATOM     12  C   UNL     1     -10.126  14.000  68.354  0.00  0.00    -0.000 A 
ATOM     13  C   UNL     1     -11.820  12.367  65.594  0.00  0.00    -0.003 A 
ENDBRANCH   3   4
ENDBRANCH   2   3
BRANCH   2  14
ATOM     14  C   UNL     1     -10.893  10.300  69.290  0.00  0.00    +0.100 C 
BRANCH  14  15
ATOM     15  C   UNL     1     -12.176  10.889  69.789  0.00  0.00    +0.000 C 
ATOM     16  C   UNL     1     -12.483  10.982  71.063  0.00  0.00    +0.046 C 
BRANCH  16  17
ATOM     17  C   UNL     1     -13.104  12.146  71.654  0.00  0.00    -0.064 C 
ATOM     18  C   UNL     1     -13.384  13.287  71.973  0.00  0.00    -0.088 C 
BRANCH  18  19
ATOM     19  C   UNL     1     -13.442  14.759  71.970  0.00  0.00    +0.054 C 
ATOM     20  C   UNL     1     -14.892  15.091  71.647  0.00  0.00    +0.013 C 
ATOM     21  C   UNL     1     -12.558  15.331  70.870  0.00  0.00    +0.013 C 
ATOM     22  C   UNL     1     -13.048  15.315  73.316  0.00  0.00    +0.013 C 
ENDBRANCH  18  19
ENDBRANCH  16  17
ENDBRANCH  14  15
ENDBRANCH   2  14
TORSDOF 6
ENDMDL
MODEL 9
REMARK VINA RESULT:      -5.7      1.810      2.763
REMARK  Name = 
REMARK  6 active torsions:
REMARK  status: ('A' for Active; 'I' for Inactive)
REMARK    1  A    between atoms: N_2  and  C_3
REMARK    2  A    between atoms: N_2  and  C_12
REMARK    3  A    between atoms: C_3  and  C_4
REMARK    4  A    between atoms: C_5  and  C_6
REMARK    5  A    between atoms: C_7  and  C_8
REMARK    6  A    between atoms: C_12  and  C_13
REMARK                            x       y       z     vdW  Elec       q    Type
REMARK                         _______ _______ _______ _____ _____    ______ ____
ROOT
ATOM      1  C   UNL     1      -8.602  14.651  66.718  0.00  0.00    +0.090 C 
ATOM      2  N   UNL     1      -9.958  15.120  66.812  0.00  0.00    -0.264 NA
ENDROOT
BRANCH   2   3
ATOM      3  C   UNL     1     -10.822  14.637  65.773  0.00  0.00    +0.099 C 
BRANCH   3   4
ATOM      4  C   UNL     1     -11.346  13.266  66.041  0.00  0.00    -0.006 A 
ATOM      5  C   UNL     1     -10.915  12.215  65.255  0.00  0.00    -0.003 A 
ATOM      6  C   UNL     1     -10.668  10.954  65.785  0.00  0.00    -0.000 A 
ATOM      7  C   UNL     1     -10.018   9.980  65.049  0.00  0.00    -0.000 A 
ATOM      8  C   UNL     1      -9.351  10.370  63.903  0.00  0.00    -0.000 A 
ATOM      9  C   UNL     1      -9.862  11.469  63.235  0.00  0.00    -0.000 A 
ATOM     10  C   UNL     1     -10.916  10.698  67.117  0.00  0.00    -0.000 A 
ATOM     11  C   UNL     1     -11.484  11.688  67.883  0.00  0.00    -0.000 A 
ATOM     12  C   UNL     1     -10.529  12.452  63.947  0.00  0.00    -0.000 A 
ATOM     13  C   UNL     1     -11.691  12.953  67.346  0.00  0.00    -0.003 A 
ENDBRANCH   3   4
ENDBRANCH   2   3
BRANCH   2  14
ATOM     14  C   UNL     1     -10.063  16.540  67.048  0.00  0.00    +0.100 C 
BRANCH  14  15
ATOM     15  C   UNL     1     -10.555  16.694  68.454  0.00  0.00    +0.000 C 
ATOM     16  C   UNL     1     -11.708  16.226  68.873  0.00  0.00    +0.046 C 
BRANCH  16  17
ATOM     17  C   UNL     1     -11.889  15.566  70.147  0.00  0.00    -0.064 C 
ATOM     18  C   UNL     1     -12.367  15.093  71.161  0.00  0.00    -0.088 C 
BRANCH  18  19
ATOM     19  C   UNL     1     -13.354  14.570  72.123  0.00  0.00    +0.054 C 
ATOM     20  C   UNL     1     -12.849  15.025  73.485  0.00  0.00    +0.013 C 
ATOM     21  C   UNL     1     -13.376  13.048  72.098  0.00  0.00    +0.013 C 
ATOM     22  C   UNL     1     -14.727  15.130  71.842  0.00  0.00    +0.013 C 
ENDBRANCH  18  19
ENDBRANCH  16  17
ENDBRANCH  14  15
ENDBRANCH   2  14
TORSDOF 6
ENDMDL
