MODEL 1
REMARK VINA RESULT:      -6.7      0.000      0.000
REMARK  Name = 
REMARK  9 active torsions:
REMARK  status: ('A' for Active; 'I' for Inactive)
REMARK    1  A    between atoms: O_2  and  C_3
REMARK    2  A    between atoms: C_8  and  O_9
REMARK    3  A    between atoms: O_9  and  C_10
REMARK    4  A    between atoms: C_10  and  C_11
REMARK    5  A    between atoms: C_11  and  C_13
REMARK    6  A    between atoms: C_13  and  N_14
REMARK    7  A    between atoms: N_17  and  C_18
REMARK    8  A    between atoms: C_18  and  C_19
REMARK    9  A    between atoms: N_21  and  C_22
REMARK                            x       y       z     vdW  Elec       q    Type
REMARK                         _______ _______ _______ _____ _____    ______ ____
ROOT
ATOM      1  N   UNL     1     -10.556  11.787  65.803  0.00  0.00    -0.268 NA
ATOM      2  C   UNL     1     -11.846  12.126  66.241  0.00  0.00    +0.090 C 
ATOM      3  C   UNL     1     -12.178  13.565  65.870  0.00  0.00    +0.090 C 
ATOM      4  N   UNL     1     -11.700  13.879  64.524  0.00  0.00    -0.263 NA
ATOM      5  C   UNL     1     -11.440  12.653  63.774  0.00  0.00    +0.090 C 
ATOM      6  C   UNL     1     -10.230  12.013  64.443  0.00  0.00    +0.090 C 
ENDROOT
BRANCH   4   7
ATOM      7  C   UNL     1     -10.387  14.496  64.707  0.00  0.00    +0.161 C 
BRANCH   7   8
ATOM      8  C   UNL     1     -10.605  15.801  65.405  0.00  0.00    +0.262 C 
ATOM      9  N   UNL     1      -9.707  16.074  66.481  0.00  0.00    -0.179 NA
ATOM     10  O   UNL     1     -10.904  16.775  64.671  0.00  0.00    -0.271 OA
BRANCH   9  11
ATOM     11  C   UNL     1      -9.461  17.383  66.977  0.00  0.00    +0.065 A 
ATOM     12  C   UNL     1     -10.104  17.770  68.132  0.00  0.00    -0.007 A 
ATOM     13  C   UNL     1     -11.029  16.845  68.839  0.00  0.00    +0.032 C 
ATOM     14  C   UNL     1      -9.784  19.004  68.678  0.00  0.00    -0.003 A 
ATOM     15  C   UNL     1      -8.959  19.856  67.958  0.00  0.00    -0.001 A 
ATOM     16  C   UNL     1      -8.256  19.397  66.861  0.00  0.00    -0.003 A 
ATOM     17  C   UNL     1      -8.342  18.065  66.513  0.00  0.00    -0.007 A 
ATOM     18  C   UNL     1      -7.178  17.355  65.896  0.00  0.00    +0.032 C 
ENDBRANCH   9  11
ENDBRANCH   7   8
ENDBRANCH   4   7
BRANCH   1  19
ATOM     19  C   UNL     1      -9.680  11.100  66.621  0.00  0.00    +0.109 C 
BRANCH  19  20
ATOM     20  C   UNL     1     -10.141   9.510  66.736  0.00  0.00    +0.211 C 
ATOM     21  O   UNL     1      -8.772   9.026  66.250  0.00  0.00    -0.218 OA
BRANCH  20  22
ATOM     22  C   UNL     1      -9.691   9.370  68.332  0.00  0.00    +0.240 C 
BRANCH  22  23
ATOM     23  O   UNL     1     -10.237  10.499  68.960  0.00  0.00    -0.470 OA
BRANCH  23  25
ATOM     24  C   UNL     1     -12.054  11.054  70.369  0.00  0.00    +0.172 A 
ATOM     25  C   UNL     1     -10.872  10.348  70.174  0.00  0.00    +0.172 A 
ATOM     26  C   UNL     1     -10.587   9.288  71.022  0.00  0.00    +0.040 A 
ATOM     27  C   UNL     1     -11.587   8.791  71.847  0.00  0.00    +0.003 A 
ATOM     28  C   UNL     1     -12.854   9.337  71.841  0.00  0.00    +0.003 A 
ATOM     29  C   UNL     1     -13.036  10.533  71.203  0.00  0.00    +0.040 A 
BRANCH  24  31
ATOM     30  C   UNL     1     -12.133  13.421  70.541  0.00  0.00    +0.253 C 
ATOM     31  O   UNL     1     -12.151  12.328  69.812  0.00  0.00    -0.468 OA
ENDBRANCH  24  31
ENDBRANCH  23  25
ENDBRANCH  22  23
ENDBRANCH  20  22
ENDBRANCH  19  20
ENDBRANCH   1  19
TORSDOF 9
ENDMDL
MODEL 2
REMARK VINA RESULT:      -6.7      2.046      8.577
REMARK  Name = 
REMARK  9 active torsions:
REMARK  status: ('A' for Active; 'I' for Inactive)
REMARK    1  A    between atoms: O_2  and  C_3
REMARK    2  A    between atoms: C_8  and  O_9
REMARK    3  A    between atoms: O_9  and  C_10
REMARK    4  A    between atoms: C_10  and  C_11
REMARK    5  A    between atoms: C_11  and  C_13
REMARK    6  A    between atoms: C_13  and  N_14
REMARK    7  A    between atoms: N_17  and  C_18
REMARK    8  A    between atoms: C_18  and  C_19
REMARK    9  A    between atoms: N_21  and  C_22
REMARK                            x       y       z     vdW  Elec       q    Type
REMARK                         _______ _______ _______ _____ _____    ______ ____
ROOT
ATOM      1  N   UNL     1     -10.284  14.819  65.826  0.00  0.00    -0.268 NA
ATOM      2  C   UNL     1     -10.522  13.882  64.808  0.00  0.00    +0.090 C 
ATOM      3  C   UNL     1     -10.902  12.531  65.400  0.00  0.00    +0.090 C 
ATOM      4  N   UNL     1     -11.807  12.698  66.536  0.00  0.00    -0.263 NA
ATOM      5  C   UNL     1     -12.416  14.026  66.517  0.00  0.00    +0.090 C 
ATOM      6  C   UNL     1     -11.282  15.000  66.816  0.00  0.00    +0.090 C 
ENDROOT
BRANCH   4   7
ATOM      7  C   UNL     1     -10.952  12.692  67.723  0.00  0.00    +0.161 C 
BRANCH   7   8
ATOM      8  C   UNL     1     -11.133  11.366  68.392  0.00  0.00    +0.262 C 
ATOM      9  N   UNL     1     -11.016  11.381  69.815  0.00  0.00    -0.179 NA
ATOM     10  O   UNL     1     -12.030  10.627  67.917  0.00  0.00    -0.271 OA
BRANCH   9  11
ATOM     11  C   UNL     1     -11.558  10.367  70.652  0.00  0.00    +0.065 A 
ATOM     12  C   UNL     1     -10.750   9.305  70.989  0.00  0.00    -0.007 A 
ATOM     13  C   UNL     1      -9.350   9.220  70.494  0.00  0.00    +0.032 C 
ATOM     14  C   UNL     1     -11.238   8.371  71.892  0.00  0.00    -0.003 A 
ATOM     15  C   UNL     1     -12.565   8.458  72.286  0.00  0.00    -0.001 A 
ATOM     16  C   UNL     1     -13.310   9.588  72.009  0.00  0.00    -0.003 A 
ATOM     17  C   UNL     1     -12.708  10.656  71.377  0.00  0.00    -0.007 A 
ATOM     18  C   UNL     1     -13.131  12.061  71.670  0.00  0.00    +0.032 C 
ENDBRANCH   9  11
ENDBRANCH   7   8
ENDBRANCH   4   7
BRANCH   1  19
ATOM     19  C   UNL     1      -9.192  15.663  65.782  0.00  0.00    +0.109 C 
BRANCH  19  20
ATOM     20  C   UNL     1      -8.541  15.824  67.301  0.00  0.00    +0.211 C 
ATOM     21  O   UNL     1      -7.827  14.474  67.192  0.00  0.00    -0.218 OA
BRANCH  20  22
ATOM     22  C   UNL     1      -7.196  16.646  66.767  0.00  0.00    +0.240 C 
BRANCH  22  23
ATOM     23  O   UNL     1      -7.679  17.537  65.798  0.00  0.00    -0.470 OA
BRANCH  23  25
ATOM     24  C   UNL     1      -7.971  19.668  66.780  0.00  0.00    +0.172 A 
ATOM     25  C   UNL     1      -7.308  18.863  65.862  0.00  0.00    +0.172 A 
ATOM     26  C   UNL     1      -6.107  19.312  65.333  0.00  0.00    +0.040 A 
ATOM     27  C   UNL     1      -5.470  20.396  65.922  0.00  0.00    +0.003 A 
ATOM     28  C   UNL     1      -6.014  21.035  67.017  0.00  0.00    +0.003 A 
ATOM     29  C   UNL     1      -7.309  20.749  67.350  0.00  0.00    +0.040 A 
BRANCH  24  31
ATOM     30  C   UNL     1      -9.860  19.410  68.197  0.00  0.00    +0.253 C 
ATOM     31  O   UNL     1      -9.328  19.430  66.996  0.00  0.00    -0.468 OA
ENDBRANCH  24  31
ENDBRANCH  23  25
ENDBRANCH  22  23
ENDBRANCH  20  22
ENDBRANCH  19  20
ENDBRANCH   1  19
TORSDOF 9
ENDMDL
MODEL 3
REMARK VINA RESULT:      -6.7      2.360      9.023
REMARK  Name = 
REMARK  9 active torsions:
REMARK  status: ('A' for Active; 'I' for Inactive)
REMARK    1  A    between atoms: O_2  and  C_3
REMARK    2  A    between atoms: C_8  and  O_9
REMARK    3  A    between atoms: O_9  and  C_10
REMARK    4  A    between atoms: C_10  and  C_11
REMARK    5  A    between atoms: C_11  and  C_13
REMARK    6  A    between atoms: C_13  and  N_14
REMARK    7  A    between atoms: N_17  and  C_18
REMARK    8  A    between atoms: C_18  and  C_19
REMARK    9  A    between atoms: N_21  and  C_22
REMARK                            x       y       z     vdW  Elec       q    Type
REMARK                         _______ _______ _______ _____ _____    ______ ____
ROOT
ATOM      1  N   UNL     1     -10.259  15.614  66.701  0.00  0.00    -0.268 NA
ATOM      2  C   UNL     1      -8.953  15.101  66.729  0.00  0.00    +0.090 C 
ATOM      3  C   UNL     1      -8.949  13.667  67.241  0.00  0.00    +0.090 C 
ATOM      4  N   UNL     1     -10.074  12.914  66.687  0.00  0.00    -0.263 NA
ATOM      5  C   UNL     1     -10.611  13.588  65.508  0.00  0.00    +0.090 C 
ATOM      6  C   UNL     1     -11.257  14.867  66.027  0.00  0.00    +0.090 C 
ENDROOT
BRANCH   4   7
ATOM      7  C   UNL     1     -11.136  13.001  67.689  0.00  0.00    +0.161 C 
BRANCH   7   8
ATOM      8  C   UNL     1     -11.250  11.654  68.330  0.00  0.00    +0.262 C 
ATOM      9  N   UNL     1     -11.161  11.649  69.755  0.00  0.00    -0.179 NA
ATOM     10  O   UNL     1     -12.092  10.873  67.824  0.00  0.00    -0.271 OA
BRANCH   9  11
ATOM     11  C   UNL     1     -11.657  10.589  70.563  0.00  0.00    +0.065 A 
ATOM     12  C   UNL     1     -10.828   9.516  70.804  0.00  0.00    -0.007 A 
ATOM     13  C   UNL     1      -9.454   9.467  70.238  0.00  0.00    +0.032 C 
ATOM     14  C   UNL     1     -11.267   8.533  71.678  0.00  0.00    -0.003 A 
ATOM     15  C   UNL     1     -12.574   8.589  72.141  0.00  0.00    -0.001 A 
ATOM     16  C   UNL     1     -13.337   9.727  71.960  0.00  0.00    -0.003 A 
ATOM     17  C   UNL     1     -12.771  10.830  71.356  0.00  0.00    -0.007 A 
ATOM     18  C   UNL     1     -13.186  12.215  71.744  0.00  0.00    +0.032 C 
ENDBRANCH   9  11
ENDBRANCH   7   8
ENDBRANCH   4   7
BRANCH   1  19
ATOM     19  C   UNL     1     -10.541  16.882  67.168  0.00  0.00    +0.109 C 
BRANCH  19  20
ATOM     20  C   UNL     1      -9.483  17.977  66.507  0.00  0.00    +0.211 C 
ATOM     21  O   UNL     1     -10.547  18.495  65.536  0.00  0.00    -0.218 OA
BRANCH  20  22
ATOM     22  C   UNL     1      -9.831  19.166  67.618  0.00  0.00    +0.240 C 
BRANCH  22  23
ATOM     23  O   UNL     1      -8.901  20.184  67.360  0.00  0.00    -0.470 OA
BRANCH  23  25
ATOM     24  C   UNL     1      -6.601  20.599  67.004  0.00  0.00    +0.172 A 
ATOM     25  C   UNL     1      -7.599  20.024  67.782  0.00  0.00    +0.172 A 
ATOM     26  C   UNL     1      -7.292  19.649  69.081  0.00  0.00    +0.040 A 
ATOM     27  C   UNL     1      -6.109  20.095  69.655  0.00  0.00    +0.003 A 
ATOM     28  C   UNL     1      -5.234  20.898  68.952  0.00  0.00    +0.003 A 
ATOM     29  C   UNL     1      -5.425  21.033  67.605  0.00  0.00    +0.040 A 
BRANCH  24  31
ATOM     30  C   UNL     1      -6.279  19.658  64.846  0.00  0.00    +0.253 C 
ATOM     31  O   UNL     1      -6.771  20.599  65.620  0.00  0.00    -0.468 OA
ENDBRANCH  24  31
ENDBRANCH  23  25
ENDBRANCH  22  23
ENDBRANCH  20  22
ENDBRANCH  19  20
ENDBRANCH   1  19
TORSDOF 9
ENDMDL
MODEL 4
REMARK VINA RESULT:      -6.7      2.021      8.360
REMARK  Name = 
REMARK  9 active torsions:
REMARK  status: ('A' for Active; 'I' for Inactive)
REMARK    1  A    between atoms: O_2  and  C_3
REMARK    2  A    between atoms: C_8  and  O_9
REMARK    3  A    between atoms: O_9  and  C_10
REMARK    4  A    between atoms: C_10  and  C_11
REMARK    5  A    between atoms: C_11  and  C_13
REMARK    6  A    between atoms: C_13  and  N_14
REMARK    7  A    between atoms: N_17  and  C_18
REMARK    8  A    between atoms: C_18  and  C_19
REMARK    9  A    between atoms: N_21  and  C_22
REMARK                            x       y       z     vdW  Elec       q    Type
REMARK                         _______ _______ _______ _____ _____    ______ ____
ROOT
ATOM      1  N   UNL     1     -10.979  13.038  66.515  0.00  0.00    -0.268 NA
ATOM      2  C   UNL     1      -9.722  13.138  67.131  0.00  0.00    +0.090 C 
ATOM      3  C   UNL     1      -9.662  12.260  68.375  0.00  0.00    +0.090 C 
ATOM      4  N   UNL     1     -10.316  10.975  68.136  0.00  0.00    -0.263 NA
ATOM      5  C   UNL     1     -10.453  10.727  66.703  0.00  0.00    +0.090 C 
ATOM      6  C   UNL     1     -11.473  11.746  66.207  0.00  0.00    +0.090 C 
ENDROOT
BRANCH   4   7
ATOM      7  C   UNL     1     -11.686  11.134  68.624  0.00  0.00    +0.161 C 
BRANCH   7   8
ATOM      8  C   UNL     1     -11.795  10.356  69.897  0.00  0.00    +0.262 C 
ATOM      9  N   UNL     1     -10.966   9.196  69.975  0.00  0.00    -0.179 NA
ATOM     10  O   UNL     1     -11.902  11.033  70.949  0.00  0.00    -0.271 OA
BRANCH   9  11
ATOM     11  C   UNL     1     -10.599   8.582  71.203  0.00  0.00    +0.065 A 
ATOM     12  C   UNL     1     -11.420   7.598  71.707  0.00  0.00    -0.007 A 
ATOM     13  C   UNL     1     -12.656   7.189  70.987  0.00  0.00    +0.032 C 
ATOM     14  C   UNL     1     -11.010   6.922  72.847  0.00  0.00    -0.003 A 
ATOM     15  C   UNL     1      -9.881   7.371  73.516  0.00  0.00    -0.001 A 
ATOM     16  C   UNL     1      -9.032   8.289  72.928  0.00  0.00    -0.003 A 
ATOM     17  C   UNL     1      -9.289   8.721  71.644  0.00  0.00    -0.007 A 
ATOM     18  C   UNL     1      -8.171   9.076  70.715  0.00  0.00    +0.032 C 
ENDBRANCH   9  11
ENDBRANCH   7   8
ENDBRANCH   4   7
BRANCH   1  19
ATOM     19  C   UNL     1     -11.648  14.159  66.067  0.00  0.00    +0.109 C 
BRANCH  19  20
ATOM     20  C   UNL     1     -11.083  14.594  64.568  0.00  0.00    +0.211 C 
ATOM     21  O   UNL     1     -12.471  14.429  63.942  0.00  0.00    -0.218 OA
BRANCH  20  22
ATOM     22  C   UNL     1     -11.324  16.222  64.818  0.00  0.00    +0.240 C 
BRANCH  22  23
ATOM     23  O   UNL     1     -10.250  16.625  65.625  0.00  0.00    -0.470 OA
BRANCH  23  25
ATOM     24  C   UNL     1     -10.070  17.540  67.798  0.00  0.00    +0.172 A 
ATOM     25  C   UNL     1     -10.410  17.709  66.461  0.00  0.00    +0.172 A 
ATOM     26  C   UNL     1     -10.539  18.999  65.969  0.00  0.00    +0.040 A 
ATOM     27  C   UNL     1     -10.069  20.065  66.725  0.00  0.00    +0.003 A 
ATOM     28  C   UNL     1      -9.482  19.861  67.957  0.00  0.00    +0.003 A 
ATOM     29  C   UNL     1      -9.605  18.626  68.532  0.00  0.00    +0.040 A 
BRANCH  24  31
ATOM     30  C   UNL     1     -11.348  16.109  69.198  0.00  0.00    +0.253 C 
ATOM     31  O   UNL     1     -10.333  16.304  68.387  0.00  0.00    -0.468 OA
ENDBRANCH  24  31
ENDBRANCH  23  25
ENDBRANCH  22  23
ENDBRANCH  20  22
ENDBRANCH  19  20
ENDBRANCH   1  19
TORSDOF 9
ENDMDL
MODEL 5
REMARK VINA RESULT:      -6.6      2.167      7.372
REMARK  Name = 
REMARK  9 active torsions:
REMARK  status: ('A' for Active; 'I' for Inactive)
REMARK    1  A    between atoms: O_2  and  C_3
REMARK    2  A    between atoms: C_8  and  O_9
REMARK    3  A    between atoms: O_9  and  C_10
REMARK    4  A    between atoms: C_10  and  C_11
REMARK    5  A    between atoms: C_11  and  C_13
REMARK    6  A    between atoms: C_13  and  N_14
REMARK    7  A    between atoms: N_17  and  C_18
REMARK    8  A    between atoms: C_18  and  C_19
REMARK    9  A    between atoms: N_21  and  C_22
REMARK                            x       y       z     vdW  Elec       q    Type
REMARK                         _______ _______ _______ _____ _____    ______ ____
ROOT
ATOM      1  N   UNL     1     -10.415  11.559  65.271  0.00  0.00    -0.268 NA
ATOM      2  C   UNL     1      -9.436  12.357  65.884  0.00  0.00    +0.090 C 
ATOM      3  C   UNL     1      -8.957  11.717  67.181  0.00  0.00    +0.090 C 
ATOM      4  N   UNL     1      -8.801  10.272  67.020  0.00  0.00    -0.263 NA
ATOM      5  C   UNL     1      -8.729   9.918  65.605  0.00  0.00    +0.090 C 
ATOM      6  C   UNL     1     -10.118  10.193  65.043  0.00  0.00    +0.090 C 
ENDROOT
BRANCH   4   7
ATOM      7  C   UNL     1     -10.056   9.687  67.493  0.00  0.00    +0.161 C 
BRANCH   7   8
ATOM      8  C   UNL     1      -9.721   8.796  68.647  0.00  0.00    +0.262 C 
ATOM      9  N   UNL     1      -9.715   9.433  69.925  0.00  0.00    -0.179 NA
ATOM     10  O   UNL     1     -10.202   7.637  68.606  0.00  0.00    -0.271 OA
BRANCH   9  11
ATOM     11  C   UNL     1      -9.848   8.722  71.150  0.00  0.00    +0.065 A 
ATOM     12  C   UNL     1      -8.703   8.423  71.853  0.00  0.00    -0.007 A 
ATOM     13  C   UNL     1      -7.365   8.832  71.347  0.00  0.00    +0.032 C 
ATOM     14  C   UNL     1      -8.835   7.827  73.098  0.00  0.00    -0.003 A 
ATOM     15  C   UNL     1     -10.095   7.414  73.507  0.00  0.00    -0.001 A 
ATOM     16  C   UNL     1     -11.225   7.820  72.825  0.00  0.00    -0.003 A 
ATOM     17  C   UNL     1     -11.097   8.684  71.758  0.00  0.00    -0.007 A 
ATOM     18  C   UNL     1     -12.161   9.690  71.451  0.00  0.00    +0.032 C 
ENDBRANCH   9  11
ENDBRANCH   7   8
ENDBRANCH   4   7
BRANCH   1  19
ATOM     19  C   UNL     1     -11.568  12.113  64.751  0.00  0.00    +0.109 C 
BRANCH  19  20
ATOM     20  C   UNL     1     -11.430  13.767  64.703  0.00  0.00    +0.211 C 
ATOM     21  O   UNL     1     -12.541  13.879  63.656  0.00  0.00    -0.218 OA
BRANCH  20  22
ATOM     22  C   UNL     1     -12.500  14.012  65.953  0.00  0.00    +0.240 C 
BRANCH  22  23
ATOM     23  O   UNL     1     -11.901  14.997  66.752  0.00  0.00    -0.470 OA
BRANCH  23  25
ATOM     24  C   UNL     1     -11.708  15.793  68.971  0.00  0.00    +0.172 A 
ATOM     25  C   UNL     1     -11.660  14.726  68.082  0.00  0.00    +0.172 A 
ATOM     26  C   UNL     1     -11.733  13.438  68.590  0.00  0.00    +0.040 A 
ATOM     27  C   UNL     1     -12.121  13.249  69.910  0.00  0.00    +0.003 A 
ATOM     28  C   UNL     1     -12.429  14.321  70.722  0.00  0.00    +0.003 A 
ATOM     29  C   UNL     1     -12.098  15.574  70.287  0.00  0.00    +0.040 A 
BRANCH  24  31
ATOM     30  C   UNL     1      -9.961  17.342  68.534  0.00  0.00    +0.253 C 
ATOM     31  O   UNL     1     -11.237  17.030  68.531  0.00  0.00    -0.468 OA
ENDBRANCH  24  31
ENDBRANCH  23  25
ENDBRANCH  22  23
ENDBRANCH  20  22
ENDBRANCH  19  20
ENDBRANCH   1  19
TORSDOF 9
ENDMDL
MODEL 6
REMARK VINA RESULT:      -6.5      1.791      2.979
REMARK  Name = 
REMARK  9 active torsions:
REMARK  status: ('A' for Active; 'I' for Inactive)
REMARK    1  A    between atoms: O_2  and  C_3
REMARK    2  A    between atoms: C_8  and  O_9
REMARK    3  A    between atoms: O_9  and  C_10
REMARK    4  A    between atoms: C_10  and  C_11
REMARK    5  A    between atoms: C_11  and  C_13
REMARK    6  A    between atoms: C_13  and  N_14
REMARK    7  A    between atoms: N_17  and  C_18
REMARK    8  A    between atoms: C_18  and  C_19
REMARK    9  A    between atoms: N_21  and  C_22
REMARK                            x       y       z     vdW  Elec       q    Type
REMARK                         _______ _______ _______ _____ _____    ______ ____
ROOT
ATOM      1  N   UNL     1     -11.204  13.790  66.655  0.00  0.00    -0.268 NA
ATOM      2  C   UNL     1     -11.747  14.866  67.374  0.00  0.00    +0.090 C 
ATOM      3  C   UNL     1     -10.765  16.030  67.422  0.00  0.00    +0.090 C 
ATOM      4  N   UNL     1     -10.105  16.206  66.129  0.00  0.00    -0.263 NA
ATOM      5  C   UNL     1     -10.855  15.531  65.074  0.00  0.00    +0.090 C 
ATOM      6  C   UNL     1     -10.703  14.040  65.353  0.00  0.00    +0.090 C 
ENDROOT
BRANCH   4   7
ATOM      7  C   UNL     1      -8.845  15.470  66.228  0.00  0.00    +0.161 C 
BRANCH   7   8
ATOM      8  C   UNL     1      -7.764  16.475  66.473  0.00  0.00    +0.262 C 
ATOM      9  N   UNL     1      -7.916  17.714  65.779  0.00  0.00    -0.179 NA
ATOM     10  O   UNL     1      -7.335  16.546  67.650  0.00  0.00    -0.271 OA
BRANCH   9  11
ATOM     11  C   UNL     1      -7.273  18.916  66.183  0.00  0.00    +0.065 A 
ATOM     12  C   UNL     1      -6.146  19.310  65.496  0.00  0.00    -0.007 A 
ATOM     13  C   UNL     1      -5.618  18.502  64.365  0.00  0.00    +0.032 C 
ATOM     14  C   UNL     1      -5.580  20.535  65.815  0.00  0.00    -0.003 A 
ATOM     15  C   UNL     1      -6.071  21.230  66.910  0.00  0.00    -0.001 A 
ATOM     16  C   UNL     1      -7.259  20.855  67.508  0.00  0.00    -0.003 A 
ATOM     17  C   UNL     1      -7.983  19.810  66.974  0.00  0.00    -0.007 A 
ATOM     18  C   UNL     1      -9.478  19.798  67.042  0.00  0.00    +0.032 C 
ENDBRANCH   9  11
ENDBRANCH   7   8
ENDBRANCH   4   7
BRANCH   1  19
ATOM     19  C   UNL     1     -11.302  12.494  67.122  0.00  0.00    +0.109 C 
BRANCH  19  20
ATOM     20  C   UNL     1      -9.809  11.768  67.093  0.00  0.00    +0.211 C 
ATOM     21  O   UNL     1      -9.320  12.612  68.273  0.00  0.00    -0.218 OA
BRANCH  20  22
ATOM     22  C   UNL     1     -10.264  10.521  68.095  0.00  0.00    +0.240 C 
BRANCH  22  23
ATOM     23  O   UNL     1     -11.226  11.077  68.950  0.00  0.00    -0.470 OA
BRANCH  23  25
ATOM     24  C   UNL     1     -12.416  11.069  70.993  0.00  0.00    +0.172 A 
ATOM     25  C   UNL     1     -11.426  10.514  70.192  0.00  0.00    +0.172 A 
ATOM     26  C   UNL     1     -10.953   9.249  70.505  0.00  0.00    +0.040 A 
ATOM     27  C   UNL     1     -11.652   8.470  71.418  0.00  0.00    +0.003 A 
ATOM     28  C   UNL     1     -12.802   8.936  72.020  0.00  0.00    +0.003 A 
ATOM     29  C   UNL     1     -13.097  10.266  71.901  0.00  0.00    +0.040 A 
BRANCH  24  31
ATOM     30  C   UNL     1     -13.326  13.101  71.822  0.00  0.00    +0.253 C 
ATOM     31  O   UNL     1     -12.599  12.451  70.942  0.00  0.00    -0.468 OA
ENDBRANCH  24  31
ENDBRANCH  23  25
ENDBRANCH  22  23
ENDBRANCH  20  22
ENDBRANCH  19  20
ENDBRANCH   1  19
TORSDOF 9
ENDMDL
MODEL 7
REMARK VINA RESULT:      -6.4      2.349      8.195
REMARK  Name = 
REMARK  9 active torsions:
REMARK  status: ('A' for Active; 'I' for Inactive)
REMARK    1  A    between atoms: O_2  and  C_3
REMARK    2  A    between atoms: C_8  and  O_9
REMARK    3  A    between atoms: O_9  and  C_10
REMARK    4  A    between atoms: C_10  and  C_11
REMARK    5  A    between atoms: C_11  and  C_13
REMARK    6  A    between atoms: C_13  and  N_14
REMARK    7  A    between atoms: N_17  and  C_18
REMARK    8  A    between atoms: C_18  and  C_19
REMARK    9  A    between atoms: N_21  and  C_22
REMARK                            x       y       z     vdW  Elec       q    Type
REMARK                         _______ _______ _______ _____ _____    ______ ____
ROOT
ATOM      1  N   UNL     1      -9.792  14.867  66.513  0.00  0.00    -0.268 NA
ATOM      2  C   UNL     1     -10.486  14.567  65.331  0.00  0.00    +0.090 C 
ATOM      3  C   UNL     1     -10.872  13.093  65.295  0.00  0.00    +0.090 C 
ATOM      4  N   UNL     1     -11.331  12.644  66.608  0.00  0.00    -0.263 NA
ATOM      5  C   UNL     1     -11.693  13.786  67.444  0.00  0.00    +0.090 C 
ATOM      6  C   UNL     1     -10.382  14.501  67.748  0.00  0.00    +0.090 C 
ENDROOT
BRANCH   4   7
ATOM      7  C   UNL     1     -10.157  12.059  67.255  0.00  0.00    +0.161 C 
BRANCH   7   8
ATOM      8  C   UNL     1     -10.633  10.897  68.068  0.00  0.00    +0.262 C 
ATOM      9  N   UNL     1     -10.498  11.046  69.481  0.00  0.00    -0.179 NA
ATOM     10  O   UNL     1     -11.683  10.337  67.667  0.00  0.00    -0.271 OA
BRANCH   9  11
ATOM     11  C   UNL     1     -11.250  10.288  70.420  0.00  0.00    +0.065 A 
ATOM     12  C   UNL     1     -10.639   9.210  71.021  0.00  0.00    -0.007 A 
ATOM     13  C   UNL     1      -9.233   8.849  70.698  0.00  0.00    +0.032 C 
ATOM     14  C   UNL     1     -11.331   8.535  72.015  0.00  0.00    -0.003 A 
ATOM     15  C   UNL     1     -12.658   8.870  72.247  0.00  0.00    -0.001 A 
ATOM     16  C   UNL     1     -13.201  10.017  71.700  0.00  0.00    -0.003 A 
ATOM     17  C   UNL     1     -12.398  10.857  70.959  0.00  0.00    -0.007 A 
ATOM     18  C   UNL     1     -12.627  12.336  70.957  0.00  0.00    +0.032 C 
ENDBRANCH   9  11
ENDBRANCH   7   8
ENDBRANCH   4   7
BRANCH   1  19
ATOM     19  C   UNL     1      -8.649  15.642  66.495  0.00  0.00    +0.109 C 
BRANCH  19  20
ATOM     20  C   UNL     1      -7.791  15.418  67.899  0.00  0.00    +0.211 C 
ATOM     21  O   UNL     1      -6.738  14.571  67.179  0.00  0.00    -0.218 OA
BRANCH  20  22
ATOM     22  C   UNL     1      -6.891  16.805  67.711  0.00  0.00    +0.240 C 
BRANCH  22  23
ATOM     23  O   UNL     1      -7.388  17.691  68.678  0.00  0.00    -0.470 OA
BRANCH  23  25
ATOM     24  C   UNL     1      -7.840  19.583  67.333  0.00  0.00    +0.172 A 
ATOM     25  C   UNL     1      -8.272  18.676  68.294  0.00  0.00    +0.172 A 
ATOM     26  C   UNL     1      -9.632  18.576  68.546  0.00  0.00    +0.040 A 
ATOM     27  C   UNL     1     -10.530  19.164  67.665  0.00  0.00    +0.003 A 
ATOM     28  C   UNL     1     -10.092  19.849  66.550  0.00  0.00    +0.003 A 
ATOM     29  C   UNL     1      -8.763  20.158  66.467  0.00  0.00    +0.040 A 
BRANCH  24  31
ATOM     30  C   UNL     1      -6.035  20.826  68.248  0.00  0.00    +0.253 C 
ATOM     31  O   UNL     1      -6.503  19.976  67.362  0.00  0.00    -0.468 OA
ENDBRANCH  24  31
ENDBRANCH  23  25
ENDBRANCH  22  23
ENDBRANCH  20  22
ENDBRANCH  19  20
ENDBRANCH   1  19
TORSDOF 9
ENDMDL
MODEL 8
REMARK VINA RESULT:      -6.4      1.212      1.697
REMARK  Name = 
REMARK  9 active torsions:
REMARK  status: ('A' for Active; 'I' for Inactive)
REMARK    1  A    between atoms: O_2  and  C_3
REMARK    2  A    between atoms: C_8  and  O_9
REMARK    3  A    between atoms: O_9  and  C_10
REMARK    4  A    between atoms: C_10  and  C_11
REMARK    5  A    between atoms: C_11  and  C_13
REMARK    6  A    between atoms: C_13  and  N_14
REMARK    7  A    between atoms: N_17  and  C_18
REMARK    8  A    between atoms: C_18  and  C_19
REMARK    9  A    between atoms: N_21  and  C_22
REMARK                            x       y       z     vdW  Elec       q    Type
REMARK                         _______ _______ _______ _____ _____    ______ ____
ROOT
ATOM      1  N   UNL     1     -10.652  11.918  66.019  0.00  0.00    -0.268 NA
ATOM      2  C   UNL     1     -11.965  12.325  66.301  0.00  0.00    +0.090 C 
ATOM      3  C   UNL     1     -12.213  13.736  65.783  0.00  0.00    +0.090 C 
ATOM      4  N   UNL     1     -11.601  13.922  64.468  0.00  0.00    -0.263 NA
ATOM      5  C   UNL     1     -11.312  12.631  63.849  0.00  0.00    +0.090 C 
ATOM      6  C   UNL     1     -10.191  12.020  64.683  0.00  0.00    +0.090 C 
ENDROOT
BRANCH   4   7
ATOM      7  C   UNL     1     -10.291  14.519  64.726  0.00  0.00    +0.161 C 
BRANCH   7   8
ATOM      8  C   UNL     1     -10.528  15.820  65.426  0.00  0.00    +0.262 C 
ATOM      9  N   UNL     1      -9.606  16.125  66.473  0.00  0.00    -0.179 NA
ATOM     10  O   UNL     1     -10.880  16.781  64.698  0.00  0.00    -0.271 OA
BRANCH   9  11
ATOM     11  C   UNL     1      -9.386  17.443  66.957  0.00  0.00    +0.065 A 
ATOM     12  C   UNL     1     -10.029  17.824  68.114  0.00  0.00    -0.007 A 
ATOM     13  C   UNL     1     -10.928  16.884  68.836  0.00  0.00    +0.032 C 
ATOM     14  C   UNL     1      -9.733  19.070  68.648  0.00  0.00    -0.003 A 
ATOM     15  C   UNL     1      -8.934  19.934  67.915  0.00  0.00    -0.001 A 
ATOM     16  C   UNL     1      -8.229  19.483  66.817  0.00  0.00    -0.003 A 
ATOM     17  C   UNL     1      -8.287  18.147  66.480  0.00  0.00    -0.007 A 
ATOM     18  C   UNL     1      -7.112  17.459  65.859  0.00  0.00    +0.032 C 
ENDBRANCH   9  11
ENDBRANCH   7   8
ENDBRANCH   4   7
BRANCH   1  19
ATOM     19  C   UNL     1      -9.879  11.282  66.971  0.00  0.00    +0.109 C 
BRANCH  19  20
ATOM     20  C   UNL     1     -10.839  10.338  67.941  0.00  0.00    +0.211 C 
ATOM     21  O   UNL     1     -10.375   9.058  67.240  0.00  0.00    -0.218 OA
BRANCH  20  22
ATOM     22  C   UNL     1      -9.686  10.177  69.130  0.00  0.00    +0.240 C 
BRANCH  22  23
ATOM     23  O   UNL     1      -9.926   8.916  69.696  0.00  0.00    -0.470 OA
BRANCH  23  25
ATOM     24  C   UNL     1     -11.235   8.544  71.630  0.00  0.00    +0.172 A 
ATOM     25  C   UNL     1      -9.989   8.798  71.068  0.00  0.00    +0.172 A 
ATOM     26  C   UNL     1      -8.857   8.567  71.834  0.00  0.00    +0.040 A 
ATOM     27  C   UNL     1      -8.973   7.845  73.015  0.00  0.00    +0.003 A 
ATOM     28  C   UNL     1     -10.193   7.360  73.438  0.00  0.00    +0.003 A 
ATOM     29  C   UNL     1     -11.320   7.821  72.814  0.00  0.00    +0.040 A 
BRANCH  24  31
ATOM     30  C   UNL     1     -13.129   9.975  71.691  0.00  0.00    +0.253 C 
ATOM     31  O   UNL     1     -12.349   9.141  71.042  0.00  0.00    -0.468 OA
ENDBRANCH  24  31
ENDBRANCH  23  25
ENDBRANCH  22  23
ENDBRANCH  20  22
ENDBRANCH  19  20
ENDBRANCH   1  19
TORSDOF 9
ENDMDL
MODEL 9
REMARK VINA RESULT:      -6.4      2.807      8.813
REMARK  Name = 
REMARK  9 active torsions:
REMARK  status: ('A' for Active; 'I' for Inactive)
REMARK    1  A    between atoms: O_2  and  C_3
REMARK    2  A    between atoms: C_8  and  O_9
REMARK    3  A    between atoms: O_9  and  C_10
REMARK    4  A    between atoms: C_10  and  C_11
REMARK    5  A    between atoms: C_11  and  C_13
REMARK    6  A    between atoms: C_13  and  N_14
REMARK    7  A    between atoms: N_17  and  C_18
REMARK    8  A    between atoms: C_18  and  C_19
REMARK    9  A    between atoms: N_21  and  C_22
REMARK                            x       y       z     vdW  Elec       q    Type
REMARK                         _______ _______ _______ _____ _____    ______ ____
ROOT
ATOM      1  N   UNL     1     -10.342  15.589  66.508  0.00  0.00    -0.268 NA
ATOM      2  C   UNL     1     -10.659  15.240  65.186  0.00  0.00    +0.090 C 
ATOM      3  C   UNL     1     -10.718  13.726  65.029  0.00  0.00    +0.090 C 
ATOM      4  N   UNL     1     -11.376  13.110  66.181  0.00  0.00    -0.263 NA
ATOM      5  C   UNL     1     -12.151  14.103  66.921  0.00  0.00    +0.090 C 
ATOM      6  C   UNL     1     -11.124  15.036  67.552  0.00  0.00    +0.090 C 
ENDROOT
BRANCH   4   7
ATOM      7  C   UNL     1     -10.297  12.720  67.088  0.00  0.00    +0.161 C 
BRANCH   7   8
ATOM      8  C   UNL     1     -10.748  11.489  67.808  0.00  0.00    +0.262 C 
ATOM      9  N   UNL     1     -10.506  11.483  69.215  0.00  0.00    -0.179 NA
ATOM     10  O   UNL     1     -11.841  10.999  67.430  0.00  0.00    -0.271 OA
BRANCH   9  11
ATOM     11  C   UNL     1     -11.211  10.646  70.123  0.00  0.00    +0.065 A 
ATOM     12  C   UNL     1     -10.567   9.530  70.608  0.00  0.00    -0.007 A 
ATOM     13  C   UNL     1      -9.175   9.208  70.195  0.00  0.00    +0.032 C 
ATOM     14  C   UNL     1     -11.210   8.772  71.576  0.00  0.00    -0.003 A 
ATOM     15  C   UNL     1     -12.526   9.075  71.892  0.00  0.00    -0.001 A 
ATOM     16  C   UNL     1     -13.100  10.256  71.463  0.00  0.00    -0.003 A 
ATOM     17  C   UNL     1     -12.336  11.160  70.755  0.00  0.00    -0.007 A 
ATOM     18  C   UNL     1     -12.574  12.632  70.882  0.00  0.00    +0.032 C 
ENDBRANCH   9  11
ENDBRANCH   7   8
ENDBRANCH   4   7
BRANCH   1  19
ATOM     19  C   UNL     1      -9.409  16.569  66.786  0.00  0.00    +0.109 C 
BRANCH  19  20
ATOM     20  C   UNL     1      -9.624  17.132  68.333  0.00  0.00    +0.211 C 
ATOM     21  O   UNL     1      -8.209  16.711  68.736  0.00  0.00    -0.218 OA
BRANCH  20  22
ATOM     22  C   UNL     1      -9.127  18.677  67.968  0.00  0.00    +0.240 C 
BRANCH  22  23
ATOM     23  O   UNL     1      -7.993  18.889  68.767  0.00  0.00    -0.470 OA
BRANCH  23  25
ATOM     24  C   UNL     1      -6.045  20.121  69.291  0.00  0.00    +0.172 A 
ATOM     25  C   UNL     1      -7.169  19.959  68.491  0.00  0.00    +0.172 A 
ATOM     26  C   UNL     1      -7.220  20.626  67.277  0.00  0.00    +0.040 A 
ATOM     27  C   UNL     1      -6.063  21.205  66.771  0.00  0.00    +0.003 A 
ATOM     28  C   UNL     1      -4.870  21.132  67.459  0.00  0.00    +0.003 A 
ATOM     29  C   UNL     1      -4.902  20.708  68.759  0.00  0.00    +0.040 A 
BRANCH  24  31
ATOM     30  C   UNL     1      -5.288  20.215  71.540  0.00  0.00    +0.253 C 
ATOM     31  O   UNL     1      -6.155  19.802  70.644  0.00  0.00    -0.468 OA
ENDBRANCH  24  31
ENDBRANCH  23  25
ENDBRANCH  22  23
ENDBRANCH  20  22
ENDBRANCH  19  20
ENDBRANCH   1  19
TORSDOF 9
ENDMDL
