MODEL 1
REMARK VINA RESULT:      -7.1      0.000      0.000
REMARK  Name = 
REMARK  4 active torsions:
REMARK  status: ('A' for Active; 'I' for Inactive)
REMARK    1  A    between atoms: C_2  and  C_3
REMARK    2  A    between atoms: C_2  and  C_8
REMARK    3  A    between atoms: C_3  and  C_4
REMARK    4  A    between atoms: C_4  and  C_5
REMARK                            x       y       z     vdW  Elec       q    Type
REMARK                         _______ _______ _______ _____ _____    ______ ____
ROOT
ATOM      1  C   UNL     1     -10.947  15.754  67.682  0.00  0.00    +0.002 C 
ATOM      2  C   UNL     1      -9.782  16.838  67.547  0.00  0.00    +0.028 C 
ATOM      3  C   UNL     1      -8.685  16.062  68.419  0.00  0.00    +0.002 C 
ATOM      4  C   UNL     1      -7.403  16.998  67.892  0.00  0.00    +0.000 C 
ATOM      5  C   UNL     1      -7.735  18.387  68.804  0.00  0.00    +0.003 C 
ATOM      6  C   UNL     1      -8.873  18.962  67.797  0.00  0.00    +0.033 C 
ATOM      7  C   UNL     1      -6.433  19.056  68.150  0.00  0.00    +0.000 C 
ATOM      8  C   UNL     1      -5.338  18.806  69.330  0.00  0.00    +0.003 C 
ATOM      9  C   UNL     1      -4.077  18.957  68.305  0.00  0.00    +0.033 C 
ATOM     10  C   UNL     1      -3.882  20.587  68.251  0.00  0.00    +0.152 C 
ATOM     11  C   UNL     1      -5.177  20.800  67.254  0.00  0.00    +0.033 C 
ATOM     12  O   UNL     1      -2.930  20.471  67.066  0.00  0.00    -0.223 OA
ATOM     13  C   UNL     1      -5.266  17.189  69.193  0.00  0.00    +0.000 C 
ATOM     14  C   UNL     1      -5.997  18.521  66.887  0.00  0.00    +0.000 C 
ATOM     15  C   UNL     1      -6.413  20.508  68.115  0.00  0.00    +0.003 C 
ATOM     16  C   UNL     1      -6.532  16.524  69.161  0.00  0.00    +0.000 C 
ATOM     17  C   UNL     1      -8.600  15.007  67.190  0.00  0.00    +0.000 C 
ATOM     18  C   UNL     1      -9.492  17.220  66.244  0.00  0.00    +0.003 C 
ATOM     19  C   UNL     1     -10.073  18.073  68.545  0.00  0.00    +0.152 C 
ATOM     20  O   UNL     1     -11.162  18.605  67.630  0.00  0.00    -0.223 OA
ATOM     21  C   UNL     1     -10.016  14.625  66.980  0.00  0.00    +0.000 C 
ENDROOT
BRANCH   1  23
ATOM     22  C   UNL     1     -11.179  13.827  69.127  0.00  0.00    +0.000 C 
ATOM     23  C   UNL     1     -10.504  15.293  69.265  0.00  0.00    +0.001 C 
BRANCH  23  24
ATOM     24  C   UNL     1     -11.831  15.959  69.909  0.00  0.00    +0.012 C 
BRANCH  24  25
ATOM     25  C   UNL     1     -11.690  15.940  71.384  0.00  0.00    +0.114 C 
BRANCH  25  26
ATOM     26  C   UNL     1     -12.993  15.696  72.058  0.00  0.00    +0.365 C 
ATOM     27  O   UNL     1     -13.204  15.967  73.391  0.00  0.00    -0.246 OA
ATOM     28  O   UNL     1     -13.944  15.609  71.224  0.00  0.00    -0.246 OA
ENDBRANCH  25  26
ENDBRANCH  24  25
ENDBRANCH  23  24
ENDBRANCH   1  23
TORSDOF 4
ENDMDL
MODEL 2
REMARK VINA RESULT:      -7.1      2.743      7.090
REMARK  Name = 
REMARK  4 active torsions:
REMARK  status: ('A' for Active; 'I' for Inactive)
REMARK    1  A    between atoms: C_2  and  C_3
REMARK    2  A    between atoms: C_2  and  C_8
REMARK    3  A    between atoms: C_3  and  C_4
REMARK    4  A    between atoms: C_4  and  C_5
REMARK                            x       y       z     vdW  Elec       q    Type
REMARK                         _______ _______ _______ _____ _____    ______ ____
ROOT
ATOM      1  C   UNL     1      -5.653  19.090  67.491  0.00  0.00    +0.002 C 
ATOM      2  C   UNL     1      -6.518  17.753  67.371  0.00  0.00    +0.028 C 
ATOM      3  C   UNL     1      -7.896  18.356  67.923  0.00  0.00    +0.002 C 
ATOM      4  C   UNL     1      -8.832  17.081  67.380  0.00  0.00    +0.000 C 
ATOM      5  C   UNL     1      -8.388  15.946  68.556  0.00  0.00    +0.003 C 
ATOM      6  C   UNL     1      -6.989  15.527  67.844  0.00  0.00    +0.033 C 
ATOM      7  C   UNL     1      -9.377  14.905  67.840  0.00  0.00    +0.000 C 
ATOM      8  C   UNL     1     -10.698  15.045  68.783  0.00  0.00    +0.003 C 
ATOM      9  C   UNL     1     -11.687  14.463  67.622  0.00  0.00    +0.033 C 
ATOM     10  C   UNL     1     -11.521  12.841  67.821  0.00  0.00    +0.152 C 
ATOM     11  C   UNL     1     -10.049  12.810  67.080  0.00  0.00    +0.033 C 
ATOM     12  O   UNL     1     -12.240  12.568  66.505  0.00  0.00    -0.223 OA
ATOM     13  C   UNL     1     -11.083  16.565  68.360  0.00  0.00    +0.000 C 
ATOM     14  C   UNL     1      -9.675  15.148  66.453  0.00  0.00    +0.000 C 
ATOM     15  C   UNL     1      -9.082  13.499  68.053  0.00  0.00    +0.003 C 
ATOM     16  C   UNL     1     -10.002  17.500  68.404  0.00  0.00    +0.000 C 
ATOM     17  C   UNL     1      -7.973  19.187  66.533  0.00  0.00    +0.000 C 
ATOM     18  C   UNL     1      -6.476  17.142  66.125  0.00  0.00    +0.003 C 
ATOM     19  C   UNL     1      -6.162  16.767  68.600  0.00  0.00    +0.152 C 
ATOM     20  O   UNL     1      -4.836  16.391  67.962  0.00  0.00    -0.223 OA
ATOM     21  C   UNL     1      -6.655  19.862  66.474  0.00  0.00    +0.000 C 
ENDROOT
BRANCH   1  23
ATOM     22  C   UNL     1      -6.062  21.187  68.627  0.00  0.00    +0.000 C 
ATOM     23  C   UNL     1      -6.468  19.641  68.886  0.00  0.00    +0.001 C 
BRANCH  23  24
ATOM     24  C   UNL     1      -5.188  19.355  69.835  0.00  0.00    +0.012 C 
BRANCH  24  25
ATOM     25  C   UNL     1      -5.513  19.822  71.204  0.00  0.00    +0.114 C 
BRANCH  25  26
ATOM     26  C   UNL     1      -4.446  20.701  71.751  0.00  0.00    +0.365 C 
ATOM     27  O   UNL     1      -4.562  22.073  71.797  0.00  0.00    -0.246 OA
ATOM     28  O   UNL     1      -3.647  20.063  72.500  0.00  0.00    -0.246 OA
ENDBRANCH  25  26
ENDBRANCH  24  25
ENDBRANCH  23  24
ENDBRANCH   1  23
TORSDOF 4
ENDMDL
MODEL 3
REMARK VINA RESULT:      -7.0      2.893      4.370
REMARK  Name = 
REMARK  4 active torsions:
REMARK  status: ('A' for Active; 'I' for Inactive)
REMARK    1  A    between atoms: C_2  and  C_3
REMARK    2  A    between atoms: C_2  and  C_8
REMARK    3  A    between atoms: C_3  and  C_4
REMARK    4  A    between atoms: C_4  and  C_5
REMARK                            x       y       z     vdW  Elec       q    Type
REMARK                         _______ _______ _______ _____ _____    ______ ____
ROOT
ATOM      1  C   UNL     1     -10.086  13.776  68.400  0.00  0.00    +0.002 C 
ATOM      2  C   UNL     1      -9.042  14.962  68.168  0.00  0.00    +0.028 C 
ATOM      3  C   UNL     1     -10.099  16.070  67.698  0.00  0.00    +0.002 C 
ATOM      4  C   UNL     1      -9.047  17.355  67.888  0.00  0.00    +0.000 C 
ATOM      5  C   UNL     1      -8.099  17.089  66.510  0.00  0.00    +0.003 C 
ATOM      6  C   UNL     1      -7.176  15.932  67.179  0.00  0.00    +0.033 C 
ATOM      7  C   UNL     1      -7.245  18.384  66.920  0.00  0.00    +0.000 C 
ATOM      8  C   UNL     1      -7.931  19.513  65.966  0.00  0.00    +0.003 C 
ATOM      9  C   UNL     1      -7.418  20.741  66.912  0.00  0.00    +0.033 C 
ATOM     10  C   UNL     1      -5.889  20.974  66.360  0.00  0.00    +0.152 C 
ATOM     11  C   UNL     1      -5.305  19.650  67.149  0.00  0.00    +0.033 C 
ATOM     12  O   UNL     1      -5.561  21.880  67.540  0.00  0.00    -0.223 OA
ATOM     13  C   UNL     1      -9.379  19.541  66.702  0.00  0.00    +0.000 C 
ATOM     14  C   UNL     1      -7.272  18.761  68.308  0.00  0.00    +0.000 C 
ATOM     15  C   UNL     1      -5.887  18.438  66.409  0.00  0.00    +0.003 C 
ATOM     16  C   UNL     1      -9.971  18.258  66.927  0.00  0.00    +0.000 C 
ATOM     17  C   UNL     1     -10.617  16.084  69.234  0.00  0.00    +0.000 C 
ATOM     18  C   UNL     1      -8.202  15.215  69.244  0.00  0.00    +0.003 C 
ATOM     19  C   UNL     1      -8.270  14.737  66.768  0.00  0.00    +0.152 C 
ATOM     20  O   UNL     1      -7.423  13.630  67.372  0.00  0.00    -0.223 OA
ATOM     21  C   UNL     1     -10.878  14.653  69.512  0.00  0.00    +0.000 C 
ENDROOT
BRANCH   1  23
ATOM     22  C   UNL     1     -12.407  13.526  67.761  0.00  0.00    +0.000 C 
ATOM     23  C   UNL     1     -11.112  14.263  67.125  0.00  0.00    +0.001 C 
BRANCH  23  24
ATOM     24  C   UNL     1     -10.704  12.990  66.213  0.00  0.00    +0.012 C 
BRANCH  24  25
ATOM     25  C   UNL     1     -10.769  13.401  64.790  0.00  0.00    +0.114 C 
BRANCH  25  26
ATOM     26  C   UNL     1     -12.166  13.400  64.282  0.00  0.00    +0.365 C 
ATOM     27  O   UNL     1     -13.068  12.404  64.585  0.00  0.00    -0.246 OA
ATOM     28  O   UNL     1     -12.531  14.554  63.905  0.00  0.00    -0.246 OA
ENDBRANCH  25  26
ENDBRANCH  24  25
ENDBRANCH  23  24
ENDBRANCH   1  23
TORSDOF 4
ENDMDL
MODEL 4
REMARK VINA RESULT:      -6.8      2.853      6.879
REMARK  Name = 
REMARK  4 active torsions:
REMARK  status: ('A' for Active; 'I' for Inactive)
REMARK    1  A    between atoms: C_2  and  C_3
REMARK    2  A    between atoms: C_2  and  C_8
REMARK    3  A    between atoms: C_3  and  C_4
REMARK    4  A    between atoms: C_4  and  C_5
REMARK                            x       y       z     vdW  Elec       q    Type
REMARK                         _______ _______ _______ _____ _____    ______ ____
ROOT
ATOM      1  C   UNL     1      -6.147  19.296  67.738  0.00  0.00    +0.002 C 
ATOM      2  C   UNL     1      -7.070  18.123  67.166  0.00  0.00    +0.028 C 
ATOM      3  C   UNL     1      -8.221  18.216  68.276  0.00  0.00    +0.002 C 
ATOM      4  C   UNL     1      -9.322  17.305  67.408  0.00  0.00    +0.000 C 
ATOM      5  C   UNL     1      -8.628  15.782  67.672  0.00  0.00    +0.003 C 
ATOM      6  C   UNL     1      -7.492  15.931  66.521  0.00  0.00    +0.033 C 
ATOM      7  C   UNL     1      -9.817  15.154  66.797  0.00  0.00    +0.000 C 
ATOM      8  C   UNL     1     -10.829  14.657  67.973  0.00  0.00    +0.003 C 
ATOM      9  C   UNL     1     -12.118  14.647  66.972  0.00  0.00    +0.033 C 
ATOM     10  C   UNL     1     -11.974  13.177  66.254  0.00  0.00    +0.152 C 
ATOM     11  C   UNL     1     -10.759  13.679  65.262  0.00  0.00    +0.033 C 
ATOM     12  O   UNL     1     -13.032  13.538  65.218  0.00  0.00    -0.223 OA
ATOM     13  C   UNL     1     -11.248  16.132  68.510  0.00  0.00    +0.000 C 
ATOM     14  C   UNL     1     -10.466  16.036  65.864  0.00  0.00    +0.000 C 
ATOM     15  C   UNL     1      -9.538  13.874  66.170  0.00  0.00    +0.003 C 
ATOM     16  C   UNL     1     -10.155  17.021  68.757  0.00  0.00    +0.000 C 
ATOM     17  C   UNL     1      -8.633  19.625  67.588  0.00  0.00    +0.000 C 
ATOM     18  C   UNL     1      -7.390  18.239  65.820  0.00  0.00    +0.003 C 
ATOM     19  C   UNL     1      -6.440  16.693  67.572  0.00  0.00    +0.152 C 
ATOM     20  O   UNL     1      -5.351  16.833  66.522  0.00  0.00    -0.223 OA
ATOM     21  C   UNL     1      -7.352  20.368  67.557  0.00  0.00    +0.000 C 
ENDROOT
BRANCH   1  23
ATOM     22  C   UNL     1      -6.037  20.429  69.872  0.00  0.00    +0.000 C 
ATOM     23  C   UNL     1      -6.533  18.972  69.369  0.00  0.00    +0.001 C 
BRANCH  23  24
ATOM     24  C   UNL     1      -5.099  18.274  69.645  0.00  0.00    +0.012 C 
BRANCH  24  25
ATOM     25  C   UNL     1      -5.232  17.397  70.833  0.00  0.00    +0.114 C 
BRANCH  25  26
ATOM     26  C   UNL     1      -4.497  16.117  70.656  0.00  0.00    +0.365 C 
ATOM     27  O   UNL     1      -3.646  15.888  69.597  0.00  0.00    -0.246 OA
ATOM     28  O   UNL     1      -4.425  15.461  71.738  0.00  0.00    -0.246 OA
ENDBRANCH  25  26
ENDBRANCH  24  25
ENDBRANCH  23  24
ENDBRANCH   1  23
TORSDOF 4
ENDMDL
MODEL 5
REMARK VINA RESULT:      -6.8      2.994      4.520
REMARK  Name = 
REMARK  4 active torsions:
REMARK  status: ('A' for Active; 'I' for Inactive)
REMARK    1  A    between atoms: C_2  and  C_3
REMARK    2  A    between atoms: C_2  and  C_8
REMARK    3  A    between atoms: C_3  and  C_4
REMARK    4  A    between atoms: C_4  and  C_5
REMARK                            x       y       z     vdW  Elec       q    Type
REMARK                         _______ _______ _______ _____ _____    ______ ____
ROOT
ATOM      1  C   UNL     1     -10.461  11.087  66.902  0.00  0.00    +0.002 C 
ATOM      2  C   UNL     1     -10.324  12.668  66.719  0.00  0.00    +0.028 C 
ATOM      3  C   UNL     1      -9.220  12.906  67.856  0.00  0.00    +0.002 C 
ATOM      4  C   UNL     1      -8.815  14.442  67.335  0.00  0.00    +0.000 C 
ATOM      5  C   UNL     1     -10.180  15.257  67.920  0.00  0.00    +0.003 C 
ATOM      6  C   UNL     1     -11.148  14.840  66.683  0.00  0.00    +0.033 C 
ATOM      7  C   UNL     1      -9.553  16.610  67.327  0.00  0.00    +0.000 C 
ATOM      8  C   UNL     1      -8.871  17.239  68.665  0.00  0.00    +0.003 C 
ATOM      9  C   UNL     1      -7.846  18.172  67.803  0.00  0.00    +0.033 C 
ATOM     10  C   UNL     1      -8.781  19.481  67.470  0.00  0.00    +0.152 C 
ATOM     11  C   UNL     1      -9.622  18.694  66.292  0.00  0.00    +0.033 C 
ATOM     12  O   UNL     1      -7.763  19.999  66.462  0.00  0.00    -0.223 OA
ATOM     13  C   UNL     1      -7.711  16.116  68.843  0.00  0.00    +0.000 C 
ATOM     14  C   UNL     1      -8.605  16.465  66.254  0.00  0.00    +0.000 C 
ATOM     15  C   UNL     1     -10.499  17.669  67.024  0.00  0.00    +0.003 C 
ATOM     16  C   UNL     1      -8.162  14.760  68.772  0.00  0.00    +0.000 C 
ATOM     17  C   UNL     1      -8.183  12.146  66.868  0.00  0.00    +0.000 C 
ATOM     18  C   UNL     1     -10.082  13.084  65.417  0.00  0.00    +0.003 C 
ATOM     19  C   UNL     1     -11.577  13.404  67.423  0.00  0.00    +0.152 C 
ATOM     20  O   UNL     1     -12.501  12.994  66.290  0.00  0.00    -0.223 OA
ATOM     21  C   UNL     1      -8.890  10.883  66.551  0.00  0.00    +0.000 C 
ENDROOT
BRANCH   1  23
ATOM     22  C   UNL     1      -9.776   9.570  68.658  0.00  0.00    +0.000 C 
ATOM     23  C   UNL     1     -10.191  11.134  68.587  0.00  0.00    +0.001 C 
BRANCH  23  24
ATOM     24  C   UNL     1     -11.748  10.844  68.918  0.00  0.00    +0.012 C 
BRANCH  24  25
ATOM     25  C   UNL     1     -12.032  11.343  70.285  0.00  0.00    +0.114 C 
BRANCH  25  26
ATOM     26  C   UNL     1     -12.687  10.304  71.123  0.00  0.00    +0.365 C 
ATOM     27  O   UNL     1     -12.313   8.979  71.093  0.00  0.00    -0.246 OA
ATOM     28  O   UNL     1     -13.305  10.812  72.106  0.00  0.00    -0.246 OA
ENDBRANCH  25  26
ENDBRANCH  24  25
ENDBRANCH  23  24
ENDBRANCH   1  23
TORSDOF 4
ENDMDL
MODEL 6
REMARK VINA RESULT:      -6.7      2.407      7.544
REMARK  Name = 
REMARK  4 active torsions:
REMARK  status: ('A' for Active; 'I' for Inactive)
REMARK    1  A    between atoms: C_2  and  C_3
REMARK    2  A    between atoms: C_2  and  C_8
REMARK    3  A    between atoms: C_3  and  C_4
REMARK    4  A    between atoms: C_4  and  C_5
REMARK                            x       y       z     vdW  Elec       q    Type
REMARK                         _______ _______ _______ _____ _____    ______ ____
ROOT
ATOM      1  C   UNL     1      -7.498  20.025  67.765  0.00  0.00    +0.002 C 
ATOM      2  C   UNL     1      -8.515  18.798  67.662  0.00  0.00    +0.028 C 
ATOM      3  C   UNL     1      -7.417  17.635  67.567  0.00  0.00    +0.002 C 
ATOM      4  C   UNL     1      -8.496  16.400  67.893  0.00  0.00    +0.000 C 
ATOM      5  C   UNL     1      -9.265  16.354  66.384  0.00  0.00    +0.003 C 
ATOM      6  C   UNL     1     -10.253  17.610  66.678  0.00  0.00    +0.033 C 
ATOM      7  C   UNL     1     -10.173  15.159  66.950  0.00  0.00    +0.000 C 
ATOM      8  C   UNL     1      -9.384  13.868  66.345  0.00  0.00    +0.003 C 
ATOM      9  C   UNL     1     -10.020  12.857  67.458  0.00  0.00    +0.033 C 
ATOM     10  C   UNL     1     -11.472  12.486  66.784  0.00  0.00    +0.152 C 
ATOM     11  C   UNL     1     -12.137  13.935  67.200  0.00  0.00    +0.033 C 
ATOM     12  O   UNL     1     -11.950  11.841  68.080  0.00  0.00    -0.223 OA
ATOM     13  C   UNL     1      -8.039  14.021  67.242  0.00  0.00    +0.000 C 
ATOM     14  C   UNL     1     -10.321  15.081  68.379  0.00  0.00    +0.000 C 
ATOM     15  C   UNL     1     -11.459  14.975  66.299  0.00  0.00    +0.003 C 
ATOM     16  C   UNL     1      -7.469  15.332  67.264  0.00  0.00    +0.000 C 
ATOM     17  C   UNL     1      -7.093  17.952  69.124  0.00  0.00    +0.000 C 
ATOM     18  C   UNL     1      -9.484  18.761  68.656  0.00  0.00    +0.003 C 
ATOM     19  C   UNL     1      -9.107  18.712  66.162  0.00  0.00    +0.152 C 
ATOM     20  O   UNL     1     -10.013  19.905  66.412  0.00  0.00    -0.223 OA
ATOM     21  C   UNL     1      -6.856  19.414  69.125  0.00  0.00    +0.000 C 
ENDROOT
BRANCH   1  23
ATOM     22  C   UNL     1      -5.126  20.225  67.327  0.00  0.00    +0.000 C 
ATOM     23  C   UNL     1      -6.327  19.300  66.756  0.00  0.00    +0.001 C 
BRANCH  23  24
ATOM     24  C   UNL     1      -6.657  20.302  65.530  0.00  0.00    +0.012 C 
BRANCH  24  25
ATOM     25  C   UNL     1      -6.017  19.763  64.306  0.00  0.00    +0.114 C 
BRANCH  25  26
ATOM     26  C   UNL     1      -5.574  20.851  63.394  0.00  0.00    +0.365 C 
ATOM     27  O   UNL     1      -6.431  21.485  62.522  0.00  0.00    -0.246 OA
ATOM     28  O   UNL     1      -4.487  21.375  63.779  0.00  0.00    -0.246 OA
ENDBRANCH  25  26
ENDBRANCH  24  25
ENDBRANCH  23  24
ENDBRANCH   1  23
TORSDOF 4
ENDMDL
MODEL 7
REMARK VINA RESULT:      -6.7      7.581     10.510
REMARK  Name = 
REMARK  4 active torsions:
REMARK  status: ('A' for Active; 'I' for Inactive)
REMARK    1  A    between atoms: C_2  and  C_3
REMARK    2  A    between atoms: C_2  and  C_8
REMARK    3  A    between atoms: C_3  and  C_4
REMARK    4  A    between atoms: C_4  and  C_5
REMARK                            x       y       z     vdW  Elec       q    Type
REMARK                         _______ _______ _______ _____ _____    ______ ____
ROOT
ATOM      1  C   UNL     1      -8.389  10.498  65.765  0.00  0.00    +0.002 C 
ATOM      2  C   UNL     1      -8.668   9.911  67.224  0.00  0.00    +0.028 C 
ATOM      3  C   UNL     1      -9.528   8.639  66.767  0.00  0.00    +0.002 C 
ATOM      4  C   UNL     1      -9.417   7.861  68.242  0.00  0.00    +0.000 C 
ATOM      5  C   UNL     1     -10.529   8.813  69.095  0.00  0.00    +0.003 C 
ATOM      6  C   UNL     1      -9.491  10.027  69.394  0.00  0.00    +0.033 C 
ATOM      7  C   UNL     1     -10.244   7.893  70.377  0.00  0.00    +0.000 C 
ATOM      8  C   UNL     1     -11.509   6.869  70.302  0.00  0.00    +0.003 C 
ATOM      9  C   UNL     1     -10.753   5.740  71.207  0.00  0.00    +0.033 C 
ATOM     10  C   UNL     1     -11.066   6.267  72.731  0.00  0.00    +0.152 C 
ATOM     11  C   UNL     1      -9.939   7.466  72.646  0.00  0.00    +0.033 C 
ATOM     12  O   UNL     1     -10.052   5.291  73.317  0.00  0.00    -0.223 OA
ATOM     13  C   UNL     1     -11.056   6.096  68.947  0.00  0.00    +0.000 C 
ATOM     14  C   UNL     1      -8.986   7.196  70.405  0.00  0.00    +0.000 C 
ATOM     15  C   UNL     1     -10.511   8.502  71.669  0.00  0.00    +0.003 C 
ATOM     16  C   UNL     1     -10.686   6.946  67.857  0.00  0.00    +0.000 C 
ATOM     17  C   UNL     1      -8.139   8.035  66.187  0.00  0.00    +0.000 C 
ATOM     18  C   UNL     1      -7.535   9.740  68.008  0.00  0.00    +0.003 C 
ATOM     19  C   UNL     1      -9.838  10.766  67.936  0.00  0.00    +0.152 C 
ATOM     20  O   UNL     1      -8.888  11.922  68.194  0.00  0.00    -0.223 OA
ATOM     21  C   UNL     1      -7.630   9.131  65.330  0.00  0.00    +0.000 C 
ENDROOT
BRANCH   1  23
ATOM     22  C   UNL     1      -9.363   9.994  63.608  0.00  0.00    +0.000 C 
ATOM     23  C   UNL     1      -9.894   9.992  65.138  0.00  0.00    +0.001 C 
BRANCH  23  24
ATOM     24  C   UNL     1     -10.452  11.509  65.056  0.00  0.00    +0.012 C 
BRANCH  24  25
ATOM     25  C   UNL     1     -11.355  11.608  63.884  0.00  0.00    +0.114 C 
BRANCH  25  26
ATOM     26  C   UNL     1     -12.300  12.748  64.014  0.00  0.00    +0.365 C 
ATOM     27  O   UNL     1     -12.472  13.689  63.023  0.00  0.00    -0.246 OA
ATOM     28  O   UNL     1     -13.174  12.536  64.907  0.00  0.00    -0.246 OA
ENDBRANCH  25  26
ENDBRANCH  24  25
ENDBRANCH  23  24
ENDBRANCH   1  23
TORSDOF 4
ENDMDL
MODEL 8
REMARK VINA RESULT:      -6.4      2.030      2.755
REMARK  Name = 
REMARK  4 active torsions:
REMARK  status: ('A' for Active; 'I' for Inactive)
REMARK    1  A    between atoms: C_2  and  C_3
REMARK    2  A    between atoms: C_2  and  C_8
REMARK    3  A    between atoms: C_3  and  C_4
REMARK    4  A    between atoms: C_4  and  C_5
REMARK                            x       y       z     vdW  Elec       q    Type
REMARK                         _______ _______ _______ _____ _____    ______ ____
ROOT
ATOM      1  C   UNL     1     -11.722  13.996  67.367  0.00  0.00    +0.002 C 
ATOM      2  C   UNL     1     -10.725  15.235  67.511  0.00  0.00    +0.028 C 
ATOM      3  C   UNL     1      -9.359  14.407  67.398  0.00  0.00    +0.002 C 
ATOM      4  C   UNL     1      -8.404  15.751  67.123  0.00  0.00    +0.000 C 
ATOM      5  C   UNL     1      -8.382  16.353  68.706  0.00  0.00    +0.003 C 
ATOM      6  C   UNL     1      -9.834  17.076  68.615  0.00  0.00    +0.033 C 
ATOM      7  C   UNL     1      -7.452  17.548  68.176  0.00  0.00    +0.000 C 
ATOM      8  C   UNL     1      -5.979  16.994  68.597  0.00  0.00    +0.003 C 
ATOM      9  C   UNL     1      -5.222  17.942  67.504  0.00  0.00    +0.033 C 
ATOM     10  C   UNL     1      -5.097  19.362  68.320  0.00  0.00    +0.152 C 
ATOM     11  C   UNL     1      -6.683  19.743  68.082  0.00  0.00    +0.033 C 
ATOM     12  O   UNL     1      -4.681  20.097  67.052  0.00  0.00    -0.223 OA
ATOM     13  C   UNL     1      -5.933  15.746  67.558  0.00  0.00    +0.000 C 
ATOM     14  C   UNL     1      -7.534  17.855  66.773  0.00  0.00    +0.000 C 
ATOM     15  C   UNL     1      -7.478  18.769  68.962  0.00  0.00    +0.003 C 
ATOM     16  C   UNL     1      -7.097  14.915  67.555  0.00  0.00    +0.000 C 
ATOM     17  C   UNL     1      -9.739  14.184  65.838  0.00  0.00    +0.000 C 
ATOM     18  C   UNL     1     -10.975  16.286  66.639  0.00  0.00    +0.003 C 
ATOM     19  C   UNL     1     -10.629  15.675  69.061  0.00  0.00    +0.152 C 
ATOM     20  O   UNL     1     -11.999  16.327  69.000  0.00  0.00    -0.223 OA
ATOM     21  C   UNL     1     -11.116  13.642  65.904  0.00  0.00    +0.000 C 
ENDROOT
BRANCH   1  23
ATOM     22  C   UNL     1     -11.291  11.615  67.415  0.00  0.00    +0.000 C 
ATOM     23  C   UNL     1     -10.687  12.909  68.180  0.00  0.00    +0.001 C 
BRANCH  23  24
ATOM     24  C   UNL     1     -11.699  12.770  69.435  0.00  0.00    +0.012 C 
BRANCH  24  25
ATOM     25  C   UNL     1     -11.947  11.327  69.672  0.00  0.00    +0.114 C 
BRANCH  25  26
ATOM     26  C   UNL     1     -12.567  11.089  71.002  0.00  0.00    +0.365 C 
ATOM     27  O   UNL     1     -12.328   9.952  71.742  0.00  0.00    -0.246 OA
ATOM     28  O   UNL     1     -12.984  12.164  71.527  0.00  0.00    -0.246 OA
ENDBRANCH  25  26
ENDBRANCH  24  25
ENDBRANCH  23  24
ENDBRANCH   1  23
TORSDOF 4
ENDMDL
MODEL 9
REMARK VINA RESULT:      -6.2      3.986      6.045
REMARK  Name = 
REMARK  4 active torsions:
REMARK  status: ('A' for Active; 'I' for Inactive)
REMARK    1  A    between atoms: C_2  and  C_3
REMARK    2  A    between atoms: C_2  and  C_8
REMARK    3  A    between atoms: C_3  and  C_4
REMARK    4  A    between atoms: C_4  and  C_5
REMARK                            x       y       z     vdW  Elec       q    Type
REMARK                         _______ _______ _______ _____ _____    ______ ____
ROOT
ATOM      1  C   UNL     1     -10.479   9.636  67.114  0.00  0.00    +0.002 C 
ATOM      2  C   UNL     1     -10.578  11.228  67.210  0.00  0.00    +0.028 C 
ATOM      3  C   UNL     1      -9.004  11.527  67.196  0.00  0.00    +0.002 C 
ATOM      4  C   UNL     1      -9.176  13.156  66.866  0.00  0.00    +0.000 C 
ATOM      5  C   UNL     1      -9.670  13.658  68.407  0.00  0.00    +0.003 C 
ATOM      6  C   UNL     1     -11.223  13.218  68.221  0.00  0.00    +0.033 C 
ATOM      7  C   UNL     1      -9.743  15.154  67.832  0.00  0.00    +0.000 C 
ATOM      8  C   UNL     1      -8.310  15.743  68.335  0.00  0.00    +0.003 C 
ATOM      9  C   UNL     1      -8.308  16.924  67.209  0.00  0.00    +0.033 C 
ATOM     10  C   UNL     1      -9.219  18.082  67.935  0.00  0.00    +0.152 C 
ATOM     11  C   UNL     1     -10.633  17.295  67.620  0.00  0.00    +0.033 C 
ATOM     12  O   UNL     1      -9.316  18.873  66.636  0.00  0.00    -0.223 OA
ATOM     13  C   UNL     1      -7.372  14.822  67.382  0.00  0.00    +0.000 C 
ATOM     14  C   UNL     1      -9.913  15.290  66.409  0.00  0.00    +0.000 C 
ATOM     15  C   UNL     1     -10.632  16.063  68.535  0.00  0.00    +0.003 C 
ATOM     16  C   UNL     1      -7.679  13.425  67.394  0.00  0.00    +0.000 C 
ATOM     17  C   UNL     1      -9.031  11.066  65.642  0.00  0.00    +0.000 C 
ATOM     18  C   UNL     1     -11.406  11.816  66.264  0.00  0.00    +0.003 C 
ATOM     19  C   UNL     1     -10.906  11.659  68.731  0.00  0.00    +0.152 C 
ATOM     20  O   UNL     1     -12.352  11.221  68.582  0.00  0.00    -0.223 OA
ATOM     21  C   UNL     1      -9.695   9.742  65.698  0.00  0.00    +0.000 C 
ENDROOT
BRANCH   1  23
ATOM     22  C   UNL     1      -8.625   8.110  67.408  0.00  0.00    +0.000 C 
ATOM     23  C   UNL     1      -9.041   9.546  68.030  0.00  0.00    +0.001 C 
BRANCH  23  24
ATOM     24  C   UNL     1      -9.803   8.893  69.299  0.00  0.00    +0.012 C 
BRANCH  24  25
ATOM     25  C   UNL     1      -9.080   9.292  70.530  0.00  0.00    +0.114 C 
BRANCH  25  26
ATOM     26  C   UNL     1      -9.726   8.739  71.750  0.00  0.00    +0.365 C 
ATOM     27  O   UNL     1     -10.914   8.044  71.712  0.00  0.00    -0.246 OA
ATOM     28  O   UNL     1      -8.904   8.627  72.708  0.00  0.00    -0.246 OA
ENDBRANCH  25  26
ENDBRANCH  24  25
ENDBRANCH  23  24
ENDBRANCH   1  23
TORSDOF 4
ENDMDL
