MODEL 1
REMARK VINA RESULT:      -6.4      0.000      0.000
REMARK  Name = 
REMARK  11 active torsions:
REMARK  status: ('A' for Active; 'I' for Inactive)
REMARK    1  A    between atoms: C_2  and  C_3
REMARK    2  A    between atoms: C_3  and  N_4
REMARK    3  A    between atoms: N_4  and  C_5
REMARK    4  A    between atoms: C_5  and  C_6
REMARK    5  A    between atoms: C_6  and  C_8
REMARK    6  A    between atoms: C_8  and  O_9
REMARK    7  A    between atoms: O_9  and  C_10
REMARK    8  A    between atoms: C_15  and  C_16
REMARK    9  A    between atoms: C_16  and  C_18
REMARK   10  A    between atoms: C_18  and  C_19
REMARK   11  A    between atoms: C_19  and  C_20
REMARK                            x       y       z     vdW  Elec       q    Type
REMARK                         _______ _______ _______ _____ _____    ______ ____
ROOT
ATOM      1  C   UNL     1      -9.838  17.456  66.584  0.00  0.00    +0.141 A 
ATOM      2  C   UNL     1      -9.539  17.572  67.933  0.00  0.00    +0.069 A 
ATOM      3  C   UNL     1      -9.450  18.826  68.461  0.00  0.00    +0.006 A 
ATOM      4  C   UNL     1      -9.732  19.955  67.702  0.00  0.00    +0.000 A 
ATOM      5  C   UNL     1     -10.396  19.786  66.514  0.00  0.00    +0.003 A 
ATOM      6  C   UNL     1     -10.599  18.491  66.053  0.00  0.00    +0.037 A 
ENDROOT
BRANCH   2   7
ATOM      7  C   UNL     1      -9.106  16.408  68.688  0.00  0.00    +0.176 C 
ATOM      8  O   UNL     1      -7.888  16.252  68.903  0.00  0.00    -0.291 OA
BRANCH   7   9
ATOM      9  C   UNL     1     -10.149  15.457  69.180  0.00  0.00    +0.074 C 
BRANCH   9  10
ATOM     10  C   UNL     1     -11.214  16.254  69.926  0.00  0.00    +0.034 C 
BRANCH  10  11
ATOM     11  C   UNL     1     -11.801  15.457  71.014  0.00  0.00    -0.022 A 
ATOM     12  C   UNL     1     -11.963  15.996  72.261  0.00  0.00    -0.004 A 
ATOM     13  C   UNL     1     -12.772  15.351  73.187  0.00  0.00    -0.000 A 
ATOM     14  C   UNL     1     -13.529  14.289  72.763  0.00  0.00    -0.000 A 
ATOM     15  C   UNL     1     -13.128  13.600  71.648  0.00  0.00    -0.000 A 
ATOM     16  C   UNL     1     -12.181  14.141  70.790  0.00  0.00    -0.004 A 
ENDBRANCH  10  11
ENDBRANCH   9  10
ENDBRANCH   7   9
ENDBRANCH   2   7
BRANCH   1  17
ATOM     17  O   UNL     1     -10.086  16.160  66.139  0.00  0.00    -0.473 OA
BRANCH  17  18
ATOM     18  C   UNL     1     -10.751  15.892  64.934  0.00  0.00    +0.240 C 
BRANCH  18  19
ATOM     19  C   UNL     1     -11.794  14.702  65.402  0.00  0.00    +0.213 C 
ATOM     20  O   UNL     1     -12.568  14.782  64.095  0.00  0.00    -0.218 OA
BRANCH  19  21
ATOM     21  C   UNL     1     -10.809  13.512  64.820  0.00  0.00    +0.125 C 
BRANCH  21  22
ATOM     22  N   UNL     1     -11.387  12.378  65.544  0.00  0.00    -0.215 NA
BRANCH  22  23
ATOM     23  C   UNL     1     -11.709  12.824  66.889  0.00  0.00    +0.089 C 
BRANCH  23  25
ATOM     24  C   UNL     1     -11.554  11.809  68.117  0.00  0.00    +0.002 C 
ATOM     25  C   UNL     1     -11.560  11.739  67.907  0.00  0.00    +0.019 C 
ENDBRANCH  23  25
ENDBRANCH  22  23
ENDBRANCH  21  22
ENDBRANCH  19  21
ENDBRANCH  18  19
ENDBRANCH  17  18
ENDBRANCH   1  17
TORSDOF 11
ENDMDL
MODEL 2
REMARK VINA RESULT:      -6.3      1.909      5.625
REMARK  Name = 
REMARK  11 active torsions:
REMARK  status: ('A' for Active; 'I' for Inactive)
REMARK    1  A    between atoms: C_2  and  C_3
REMARK    2  A    between atoms: C_3  and  N_4
REMARK    3  A    between atoms: N_4  and  C_5
REMARK    4  A    between atoms: C_5  and  C_6
REMARK    5  A    between atoms: C_6  and  C_8
REMARK    6  A    between atoms: C_8  and  O_9
REMARK    7  A    between atoms: O_9  and  C_10
REMARK    8  A    between atoms: C_15  and  C_16
REMARK    9  A    between atoms: C_16  and  C_18
REMARK   10  A    between atoms: C_18  and  C_19
REMARK   11  A    between atoms: C_19  and  C_20
REMARK                            x       y       z     vdW  Elec       q    Type
REMARK                         _______ _______ _______ _____ _____    ______ ____
ROOT
ATOM      1  C   UNL     1     -12.497  14.165  70.466  0.00  0.00    +0.141 A 
ATOM      2  C   UNL     1     -11.639  15.229  70.706  0.00  0.00    +0.069 A 
ATOM      3  C   UNL     1     -11.827  15.956  71.844  0.00  0.00    +0.006 A 
ATOM      4  C   UNL     1     -12.790  15.601  72.781  0.00  0.00    +0.000 A 
ATOM      5  C   UNL     1     -13.335  14.344  72.704  0.00  0.00    +0.003 A 
ATOM      6  C   UNL     1     -13.024  13.560  71.600  0.00  0.00    +0.037 A 
ENDROOT
BRANCH   2   7
ATOM      7  C   UNL     1     -10.733  15.685  69.666  0.00  0.00    +0.176 C 
ATOM      8  O   UNL     1      -9.531  15.364  69.734  0.00  0.00    -0.291 OA
BRANCH   7   9
ATOM      9  C   UNL     1     -11.294  16.512  68.553  0.00  0.00    +0.074 C 
BRANCH   9  10
ATOM     10  C   UNL     1     -10.327  16.453  67.376  0.00  0.00    +0.034 C 
BRANCH  10  11
ATOM     11  C   UNL     1      -9.774  17.784  67.082  0.00  0.00    -0.022 A 
ATOM     12  C   UNL     1     -10.573  18.893  67.127  0.00  0.00    -0.004 A 
ATOM     13  C   UNL     1      -9.994  20.156  67.139  0.00  0.00    -0.000 A 
ATOM     14  C   UNL     1      -8.634  20.248  67.289  0.00  0.00    -0.000 A 
ATOM     15  C   UNL     1      -7.861  19.173  66.936  0.00  0.00    -0.000 A 
ATOM     16  C   UNL     1      -8.436  17.926  66.739  0.00  0.00    -0.004 A 
ENDBRANCH  10  11
ENDBRANCH   9  10
ENDBRANCH   7   9
ENDBRANCH   2   7
BRANCH   1  17
ATOM     17  O   UNL     1     -12.153  13.357  69.386  0.00  0.00    -0.473 OA
BRANCH  17  18
ATOM     18  C   UNL     1     -11.777  12.015  69.540  0.00  0.00    +0.240 C 
BRANCH  18  19
ATOM     19  C   UNL     1     -10.863  11.781  68.187  0.00  0.00    +0.213 C 
ATOM     20  O   UNL     1     -11.696  10.583  67.757  0.00  0.00    -0.218 OA
BRANCH  19  21
ATOM     21  C   UNL     1     -11.785  12.823  67.298  0.00  0.00    +0.125 C 
BRANCH  21  22
ATOM     22  N   UNL     1     -11.896  12.025  66.075  0.00  0.00    -0.215 NA
BRANCH  22  23
ATOM     23  C   UNL     1     -12.502  12.859  65.051  0.00  0.00    +0.089 C 
BRANCH  23  25
ATOM     24  C   UNL     1     -12.278  12.171  63.623  0.00  0.00    +0.002 C 
ATOM     25  C   UNL     1     -12.208  12.377  63.666  0.00  0.00    +0.019 C 
ENDBRANCH  23  25
ENDBRANCH  22  23
ENDBRANCH  21  22
ENDBRANCH  19  21
ENDBRANCH  18  19
ENDBRANCH  17  18
ENDBRANCH   1  17
TORSDOF 11
ENDMDL
MODEL 3
REMARK VINA RESULT:      -6.2      2.878      5.597
REMARK  Name = 
REMARK  11 active torsions:
REMARK  status: ('A' for Active; 'I' for Inactive)
REMARK    1  A    between atoms: C_2  and  C_3
REMARK    2  A    between atoms: C_3  and  N_4
REMARK    3  A    between atoms: N_4  and  C_5
REMARK    4  A    between atoms: C_5  and  C_6
REMARK    5  A    between atoms: C_6  and  C_8
REMARK    6  A    between atoms: C_8  and  O_9
REMARK    7  A    between atoms: O_9  and  C_10
REMARK    8  A    between atoms: C_15  and  C_16
REMARK    9  A    between atoms: C_16  and  C_18
REMARK   10  A    between atoms: C_18  and  C_19
REMARK   11  A    between atoms: C_19  and  C_20
REMARK                            x       y       z     vdW  Elec       q    Type
REMARK                         _______ _______ _______ _____ _____    ______ ____
ROOT
ATOM      1  C   UNL     1     -12.015  13.439  66.389  0.00  0.00    +0.141 A 
ATOM      2  C   UNL     1     -11.218  12.304  66.369  0.00  0.00    +0.069 A 
ATOM      3  C   UNL     1     -11.079  11.643  65.184  0.00  0.00    +0.006 A 
ATOM      4  C   UNL     1     -11.642  12.130  64.011  0.00  0.00    +0.000 A 
ATOM      5  C   UNL     1     -12.074  13.431  63.992  0.00  0.00    +0.003 A 
ATOM      6  C   UNL     1     -12.083  14.137  65.189  0.00  0.00    +0.037 A 
ENDROOT
BRANCH   2   7
ATOM      7  C   UNL     1     -10.751  11.719  67.614  0.00  0.00    +0.176 C 
ATOM      8  O   UNL     1      -9.581  11.944  67.981  0.00  0.00    -0.291 OA
BRANCH   7   9
ATOM      9  C   UNL     1     -11.705  10.880  68.403  0.00  0.00    +0.074 C 
BRANCH   9  10
ATOM     10  C   UNL     1     -11.793  11.450  69.814  0.00  0.00    +0.034 C 
BRANCH  10  11
ATOM     11  C   UNL     1     -11.895  10.373  70.811  0.00  0.00    -0.022 A 
ATOM     12  C   UNL     1     -13.061  10.168  71.496  0.00  0.00    -0.004 A 
ATOM     13  C   UNL     1     -13.241   8.988  72.207  0.00  0.00    -0.000 A 
ATOM     14  C   UNL     1     -12.318   7.986  72.049  0.00  0.00    -0.000 A 
ATOM     15  C   UNL     1     -11.055   8.316  71.632  0.00  0.00    -0.000 A 
ATOM     16  C   UNL     1     -10.800   9.562  71.078  0.00  0.00    -0.004 A 
ENDBRANCH  10  11
ENDBRANCH   9  10
ENDBRANCH   7   9
ENDBRANCH   2   7
BRANCH   1  17
ATOM     17  O   UNL     1     -11.983  14.168  67.574  0.00  0.00    -0.473 OA
BRANCH  17  18
ATOM     18  C   UNL     1     -11.234  15.344  67.716  0.00  0.00    +0.240 C 
BRANCH  18  19
ATOM     19  C   UNL     1     -10.528  15.099  69.187  0.00  0.00    +0.213 C 
ATOM     20  O   UNL     1      -9.706  16.374  69.073  0.00  0.00    -0.218 OA
BRANCH  19  21
ATOM     21  C   UNL     1     -11.747  15.879  69.981  0.00  0.00    +0.125 C 
BRANCH  21  22
ATOM     22  N   UNL     1     -11.955  14.913  71.062  0.00  0.00    -0.215 NA
BRANCH  22  23
ATOM     23  C   UNL     1     -13.384  14.698  71.201  0.00  0.00    +0.089 C 
BRANCH  23  25
ATOM     24  C   UNL     1     -13.850  13.717  72.376  0.00  0.00    +0.002 C 
ATOM     25  C   UNL     1     -13.714  13.650  72.216  0.00  0.00    +0.019 C 
ENDBRANCH  23  25
ENDBRANCH  22  23
ENDBRANCH  21  22
ENDBRANCH  19  21
ENDBRANCH  18  19
ENDBRANCH  17  18
ENDBRANCH   1  17
TORSDOF 11
ENDMDL
MODEL 4
REMARK VINA RESULT:      -6.2      1.279      1.668
REMARK  Name = 
REMARK  11 active torsions:
REMARK  status: ('A' for Active; 'I' for Inactive)
REMARK    1  A    between atoms: C_2  and  C_3
REMARK    2  A    between atoms: C_3  and  N_4
REMARK    3  A    between atoms: N_4  and  C_5
REMARK    4  A    between atoms: C_5  and  C_6
REMARK    5  A    between atoms: C_6  and  C_8
REMARK    6  A    between atoms: C_8  and  O_9
REMARK    7  A    between atoms: O_9  and  C_10
REMARK    8  A    between atoms: C_15  and  C_16
REMARK    9  A    between atoms: C_16  and  C_18
REMARK   10  A    between atoms: C_18  and  C_19
REMARK   11  A    between atoms: C_19  and  C_20
REMARK                            x       y       z     vdW  Elec       q    Type
REMARK                         _______ _______ _______ _____ _____    ______ ____
ROOT
ATOM      1  C   UNL     1      -9.674  17.452  66.725  0.00  0.00    +0.141 A 
ATOM      2  C   UNL     1      -9.413  17.624  68.077  0.00  0.00    +0.069 A 
ATOM      3  C   UNL     1      -9.449  18.893  68.576  0.00  0.00    +0.006 A 
ATOM      4  C   UNL     1      -9.816  19.974  67.785  0.00  0.00    +0.000 A 
ATOM      5  C   UNL     1     -10.439  19.719  66.590  0.00  0.00    +0.003 A 
ATOM      6  C   UNL     1     -10.515  18.401  66.157  0.00  0.00    +0.037 A 
ENDROOT
BRANCH   2   7
ATOM      7  C   UNL     1      -8.891  16.522  68.866  0.00  0.00    +0.176 C 
ATOM      8  O   UNL     1      -7.661  16.445  69.049  0.00  0.00    -0.291 OA
BRANCH   7   9
ATOM      9  C   UNL     1      -9.863  15.536  69.432  0.00  0.00    +0.074 C 
BRANCH   9  10
ATOM     10  C   UNL     1     -11.028  16.305  70.044  0.00  0.00    +0.034 C 
BRANCH  10  11
ATOM     11  C   UNL     1     -11.712  15.498  71.066  0.00  0.00    -0.022 A 
ATOM     12  C   UNL     1     -11.995  16.028  72.294  0.00  0.00    -0.004 A 
ATOM     13  C   UNL     1     -12.886  15.373  73.136  0.00  0.00    -0.000 A 
ATOM     14  C   UNL     1     -13.594  14.311  72.634  0.00  0.00    -0.000 A 
ATOM     15  C   UNL     1     -13.084  13.631  71.558  0.00  0.00    -0.000 A 
ATOM     16  C   UNL     1     -12.063  14.182  70.798  0.00  0.00    -0.004 A 
ENDBRANCH  10  11
ENDBRANCH   9  10
ENDBRANCH   7   9
ENDBRANCH   2   7
BRANCH   1  17
ATOM     17  O   UNL     1      -9.795  16.130  66.307  0.00  0.00    -0.473 OA
BRANCH  17  18
ATOM     18  C   UNL     1     -10.650  15.744  65.265  0.00  0.00    +0.240 C 
BRANCH  18  19
ATOM     19  C   UNL     1     -11.108  14.240  65.765  0.00  0.00    +0.213 C 
ATOM     20  O   UNL     1     -11.856  14.800  66.966  0.00  0.00    -0.218 OA
BRANCH  19  21
ATOM     21  C   UNL     1     -12.466  14.264  64.827  0.00  0.00    +0.125 C 
BRANCH  21  22
ATOM     22  N   UNL     1     -12.564  12.829  64.550  0.00  0.00    -0.215 NA
BRANCH  22  23
ATOM     23  C   UNL     1     -11.689  12.530  63.430  0.00  0.00    +0.089 C 
BRANCH  23  25
ATOM     24  C   UNL     1     -10.734  11.249  63.526  0.00  0.00    +0.002 C 
ATOM     25  C   UNL     1     -10.938  11.249  63.611  0.00  0.00    +0.019 C 
ENDBRANCH  23  25
ENDBRANCH  22  23
ENDBRANCH  21  22
ENDBRANCH  19  21
ENDBRANCH  18  19
ENDBRANCH  17  18
ENDBRANCH   1  17
TORSDOF 11
ENDMDL
MODEL 5
REMARK VINA RESULT:      -6.0      2.676      4.685
REMARK  Name = 
REMARK  11 active torsions:
REMARK  status: ('A' for Active; 'I' for Inactive)
REMARK    1  A    between atoms: C_2  and  C_3
REMARK    2  A    between atoms: C_3  and  N_4
REMARK    3  A    between atoms: N_4  and  C_5
REMARK    4  A    between atoms: C_5  and  C_6
REMARK    5  A    between atoms: C_6  and  C_8
REMARK    6  A    between atoms: C_8  and  O_9
REMARK    7  A    between atoms: O_9  and  C_10
REMARK    8  A    between atoms: C_15  and  C_16
REMARK    9  A    between atoms: C_16  and  C_18
REMARK   10  A    between atoms: C_18  and  C_19
REMARK   11  A    between atoms: C_19  and  C_20
REMARK                            x       y       z     vdW  Elec       q    Type
REMARK                         _______ _______ _______ _____ _____    ______ ____
ROOT
ATOM      1  C   UNL     1     -10.332  12.627  65.605  0.00  0.00    +0.141 A 
ATOM      2  C   UNL     1     -11.254  13.658  65.709  0.00  0.00    +0.069 A 
ATOM      3  C   UNL     1     -12.113  13.853  64.668  0.00  0.00    +0.006 A 
ATOM      4  C   UNL     1     -12.129  13.000  63.571  0.00  0.00    +0.000 A 
ATOM      5  C   UNL     1     -11.495  11.790  63.683  0.00  0.00    +0.003 A 
ATOM      6  C   UNL     1     -10.729  11.552  64.818  0.00  0.00    +0.037 A 
ENDROOT
BRANCH   2   7
ATOM      7  C   UNL     1     -11.143  14.631  66.782  0.00  0.00    +0.176 C 
ATOM      8  O   UNL     1     -10.347  15.581  66.650  0.00  0.00    -0.291 OA
BRANCH   7   9
ATOM      9  C   UNL     1     -12.002  14.449  67.993  0.00  0.00    +0.074 C 
BRANCH   9  10
ATOM     10  C   UNL     1     -11.738  15.608  68.948  0.00  0.00    +0.034 C 
BRANCH  10  11
ATOM     11  C   UNL     1     -12.012  15.216  70.339  0.00  0.00    -0.022 A 
ATOM     12  C   UNL     1     -11.746  16.076  71.368  0.00  0.00    -0.004 A 
ATOM     13  C   UNL     1     -12.272  15.820  72.629  0.00  0.00    -0.000 A 
ATOM     14  C   UNL     1     -13.191  14.812  72.759  0.00  0.00    -0.000 A 
ATOM     15  C   UNL     1     -13.199  13.807  71.827  0.00  0.00    -0.000 A 
ATOM     16  C   UNL     1     -12.530  13.959  70.621  0.00  0.00    -0.004 A 
ENDBRANCH  10  11
ENDBRANCH   9  10
ENDBRANCH   7   9
ENDBRANCH   2   7
BRANCH   1  17
ATOM     17  O   UNL     1      -9.601  12.364  66.760  0.00  0.00    -0.473 OA
BRANCH  17  18
ATOM     18  C   UNL     1      -9.580  11.100  67.366  0.00  0.00    +0.240 C 
BRANCH  18  19
ATOM     19  C   UNL     1     -10.531  11.362  68.688  0.00  0.00    +0.213 C 
ATOM     20  O   UNL     1     -11.713  10.643  68.057  0.00  0.00    -0.218 OA
BRANCH  19  21
ATOM     21  C   UNL     1     -10.005   9.984  69.429  0.00  0.00    +0.125 C 
BRANCH  21  22
ATOM     22  N   UNL     1     -11.307   9.428  69.802  0.00  0.00    -0.215 NA
BRANCH  22  23
ATOM     23  C   UNL     1     -11.496   9.650  71.225  0.00  0.00    +0.089 C 
BRANCH  23  25
ATOM     24  C   UNL     1     -12.962  10.067  71.717  0.00  0.00    +0.002 C 
ATOM     25  C   UNL     1     -12.860  10.171  71.551  0.00  0.00    +0.019 C 
ENDBRANCH  23  25
ENDBRANCH  22  23
ENDBRANCH  21  22
ENDBRANCH  19  21
ENDBRANCH  18  19
ENDBRANCH  17  18
ENDBRANCH   1  17
TORSDOF 11
ENDMDL
MODEL 6
REMARK VINA RESULT:      -6.0      2.372      6.012
REMARK  Name = 
REMARK  11 active torsions:
REMARK  status: ('A' for Active; 'I' for Inactive)
REMARK    1  A    between atoms: C_2  and  C_3
REMARK    2  A    between atoms: C_3  and  N_4
REMARK    3  A    between atoms: N_4  and  C_5
REMARK    4  A    between atoms: C_5  and  C_6
REMARK    5  A    between atoms: C_6  and  C_8
REMARK    6  A    between atoms: C_8  and  O_9
REMARK    7  A    between atoms: O_9  and  C_10
REMARK    8  A    between atoms: C_15  and  C_16
REMARK    9  A    between atoms: C_16  and  C_18
REMARK   10  A    between atoms: C_18  and  C_19
REMARK   11  A    between atoms: C_19  and  C_20
REMARK                            x       y       z     vdW  Elec       q    Type
REMARK                         _______ _______ _______ _____ _____    ______ ____
ROOT
ATOM      1  C   UNL     1     -11.525  13.946  67.196  0.00  0.00    +0.141 A 
ATOM      2  C   UNL     1     -10.232  13.987  66.694  0.00  0.00    +0.069 A 
ATOM      3  C   UNL     1     -10.027  13.533  65.425  0.00  0.00    +0.006 A 
ATOM      4  C   UNL     1     -11.083  13.119  64.622  0.00  0.00    +0.000 A 
ATOM      5  C   UNL     1     -12.355  13.461  65.001  0.00  0.00    +0.003 A 
ATOM      6  C   UNL     1     -12.534  14.050  66.247  0.00  0.00    +0.037 A 
ENDROOT
BRANCH   2   7
ATOM      7  C   UNL     1      -9.115  14.281  67.575  0.00  0.00    +0.176 C 
ATOM      8  O   UNL     1      -8.777  13.429  68.420  0.00  0.00    -0.291 OA
BRANCH   7   9
ATOM      9  C   UNL     1      -8.416  15.594  67.416  0.00  0.00    +0.074 C 
BRANCH   9  10
ATOM     10  C   UNL     1      -8.846  16.509  68.558  0.00  0.00    +0.034 C 
BRANCH  10  11
ATOM     11  C   UNL     1      -9.219  17.839  68.053  0.00  0.00    -0.022 A 
ATOM     12  C   UNL     1      -8.366  18.899  68.192  0.00  0.00    -0.004 A 
ATOM     13  C   UNL     1      -8.593  20.062  67.466  0.00  0.00    -0.000 A 
ATOM     14  C   UNL     1      -9.560  20.045  66.495  0.00  0.00    -0.000 A 
ATOM     15  C   UNL     1     -10.568  19.121  66.588  0.00  0.00    -0.000 A 
ATOM     16  C   UNL     1     -10.451  18.035  67.444  0.00  0.00    -0.004 A 
ENDBRANCH  10  11
ENDBRANCH   9  10
ENDBRANCH   7   9
ENDBRANCH   2   7
BRANCH   1  17
ATOM     17  O   UNL     1     -11.706  14.579  68.423  0.00  0.00    -0.473 OA
BRANCH  17  18
ATOM     18  C   UNL     1     -12.131  13.892  69.569  0.00  0.00    +0.240 C 
BRANCH  18  19
ATOM     19  C   UNL     1     -12.056  15.085  70.705  0.00  0.00    +0.213 C 
ATOM     20  O   UNL     1     -12.185  16.178  69.655  0.00  0.00    -0.218 OA
BRANCH  19  21
ATOM     21  C   UNL     1     -13.686  15.045  70.958  0.00  0.00    +0.125 C 
BRANCH  21  22
ATOM     22  N   UNL     1     -13.716  15.668  72.283  0.00  0.00    -0.215 NA
BRANCH  22  23
ATOM     23  C   UNL     1     -12.925  14.844  73.181  0.00  0.00    +0.089 C 
BRANCH  23  25
ATOM     24  C   UNL     1     -12.544  15.761  74.437  0.00  0.00    +0.002 C 
ATOM     25  C   UNL     1     -12.406  15.608  74.358  0.00  0.00    +0.019 C 
ENDBRANCH  23  25
ENDBRANCH  22  23
ENDBRANCH  21  22
ENDBRANCH  19  21
ENDBRANCH  18  19
ENDBRANCH  17  18
ENDBRANCH   1  17
TORSDOF 11
ENDMDL
MODEL 7
REMARK VINA RESULT:      -6.0      2.903      5.961
REMARK  Name = 
REMARK  11 active torsions:
REMARK  status: ('A' for Active; 'I' for Inactive)
REMARK    1  A    between atoms: C_2  and  C_3
REMARK    2  A    between atoms: C_3  and  N_4
REMARK    3  A    between atoms: N_4  and  C_5
REMARK    4  A    between atoms: C_5  and  C_6
REMARK    5  A    between atoms: C_6  and  C_8
REMARK    6  A    between atoms: C_8  and  O_9
REMARK    7  A    between atoms: O_9  and  C_10
REMARK    8  A    between atoms: C_15  and  C_16
REMARK    9  A    between atoms: C_16  and  C_18
REMARK   10  A    between atoms: C_18  and  C_19
REMARK   11  A    between atoms: C_19  and  C_20
REMARK                            x       y       z     vdW  Elec       q    Type
REMARK                         _______ _______ _______ _____ _____    ______ ____
ROOT
ATOM      1  C   UNL     1     -11.952  13.201  66.099  0.00  0.00    +0.141 A 
ATOM      2  C   UNL     1     -11.090  12.114  66.143  0.00  0.00    +0.069 A 
ATOM      3  C   UNL     1     -10.933  11.379  65.005  0.00  0.00    +0.006 A 
ATOM      4  C   UNL     1     -11.545  11.747  63.813  0.00  0.00    +0.000 A 
ATOM      5  C   UNL     1     -12.053  13.016  63.711  0.00  0.00    +0.003 A 
ATOM      6  C   UNL     1     -12.082  13.805  64.854  0.00  0.00    +0.037 A 
ENDROOT
BRANCH   2   7
ATOM      7  C   UNL     1     -10.568  11.648  67.415  0.00  0.00    +0.176 C 
ATOM      8  O   UNL     1      -9.436  12.028  67.774  0.00  0.00    -0.291 OA
BRANCH   7   9
ATOM      9  C   UNL     1     -11.423  10.741  68.242  0.00  0.00    +0.074 C 
BRANCH   9  10
ATOM     10  C   UNL     1     -11.711  11.431  69.571  0.00  0.00    +0.034 C 
BRANCH  10  11
ATOM     11  C   UNL     1     -11.856  10.445  70.653  0.00  0.00    -0.022 A 
ATOM     12  C   UNL     1     -13.020  10.363  71.366  0.00  0.00    -0.004 A 
ATOM     13  C   UNL     1     -13.254   9.256  72.173  0.00  0.00    -0.000 A 
ATOM     14  C   UNL     1     -12.391   8.194  72.087  0.00  0.00    -0.000 A 
ATOM     15  C   UNL     1     -11.119   8.417  71.630  0.00  0.00    -0.000 A 
ATOM     16  C   UNL     1     -10.804   9.598  70.973  0.00  0.00    -0.004 A 
ENDBRANCH  10  11
ENDBRANCH   9  10
ENDBRANCH   7   9
ENDBRANCH   2   7
BRANCH   1  17
ATOM     17  O   UNL     1     -11.942  14.013  67.229  0.00  0.00    -0.473 OA
BRANCH  17  18
ATOM     18  C   UNL     1     -11.259  15.237  67.271  0.00  0.00    +0.240 C 
BRANCH  18  19
ATOM     19  C   UNL     1     -11.656  15.774  68.779  0.00  0.00    +0.213 C 
ATOM     20  O   UNL     1     -10.831  14.688  69.450  0.00  0.00    -0.218 OA
BRANCH  19  21
ATOM     21  C   UNL     1     -10.395  16.840  68.808  0.00  0.00    +0.125 C 
BRANCH  21  22
ATOM     22  N   UNL     1     -10.932  17.837  67.880  0.00  0.00    -0.215 NA
BRANCH  22  23
ATOM     23  C   UNL     1     -10.120  19.036  67.994  0.00  0.00    +0.089 C 
BRANCH  23  25
ATOM     24  C   UNL     1     -10.091  20.091  66.790  0.00  0.00    +0.002 C 
ATOM     25  C   UNL     1     -10.175  19.889  66.766  0.00  0.00    +0.019 C 
ENDBRANCH  23  25
ENDBRANCH  22  23
ENDBRANCH  21  22
ENDBRANCH  19  21
ENDBRANCH  18  19
ENDBRANCH  17  18
ENDBRANCH   1  17
TORSDOF 11
ENDMDL
MODEL 8
REMARK VINA RESULT:      -6.0      3.268      5.677
REMARK  Name = 
REMARK  11 active torsions:
REMARK  status: ('A' for Active; 'I' for Inactive)
REMARK    1  A    between atoms: C_2  and  C_3
REMARK    2  A    between atoms: C_3  and  N_4
REMARK    3  A    between atoms: N_4  and  C_5
REMARK    4  A    between atoms: C_5  and  C_6
REMARK    5  A    between atoms: C_6  and  C_8
REMARK    6  A    between atoms: C_8  and  O_9
REMARK    7  A    between atoms: O_9  and  C_10
REMARK    8  A    between atoms: C_15  and  C_16
REMARK    9  A    between atoms: C_16  and  C_18
REMARK   10  A    between atoms: C_18  and  C_19
REMARK   11  A    between atoms: C_19  and  C_20
REMARK                            x       y       z     vdW  Elec       q    Type
REMARK                         _______ _______ _______ _____ _____    ______ ____
ROOT
ATOM      1  C   UNL     1     -11.117  10.394  69.269  0.00  0.00    +0.141 A 
ATOM      2  C   UNL     1     -11.710  11.598  69.624  0.00  0.00    +0.069 A 
ATOM      3  C   UNL     1     -12.501  11.615  70.735  0.00  0.00    +0.006 A 
ATOM      4  C   UNL     1     -12.648  10.491  71.539  0.00  0.00    +0.000 A 
ATOM      5  C   UNL     1     -11.753   9.464  71.385  0.00  0.00    +0.003 A 
ATOM      6  C   UNL     1     -10.859   9.526  70.323  0.00  0.00    +0.037 A 
ENDROOT
BRANCH   2   7
ATOM      7  C   UNL     1     -11.674  12.727  68.711  0.00  0.00    +0.176 C 
ATOM      8  O   UNL     1     -12.228  12.617  67.600  0.00  0.00    -0.291 OA
BRANCH   7   9
ATOM      9  C   UNL     1     -10.981  13.975  69.157  0.00  0.00    +0.074 C 
BRANCH   9  10
ATOM     10  C   UNL     1     -11.999  15.110  69.176  0.00  0.00    +0.034 C 
BRANCH  10  11
ATOM     11  C   UNL     1     -12.482  15.360  70.543  0.00  0.00    -0.022 A 
ATOM     12  C   UNL     1     -13.731  14.955  70.924  0.00  0.00    -0.004 A 
ATOM     13  C   UNL     1     -14.063  14.930  72.273  0.00  0.00    -0.000 A 
ATOM     14  C   UNL     1     -13.068  15.139  73.192  0.00  0.00    -0.000 A 
ATOM     15  C   UNL     1     -11.948  15.827  72.803  0.00  0.00    -0.000 A 
ATOM     16  C   UNL     1     -11.677  16.027  71.457  0.00  0.00    -0.004 A 
ENDBRANCH  10  11
ENDBRANCH   9  10
ENDBRANCH   7   9
ENDBRANCH   2   7
BRANCH   1  17
ATOM     17  O   UNL     1     -10.188  10.472  68.236  0.00  0.00    -0.473 OA
BRANCH  17  18
ATOM     18  C   UNL     1     -10.357   9.796  67.019  0.00  0.00    +0.240 C 
BRANCH  18  19
ATOM     19  C   UNL     1      -8.939  10.151  66.255  0.00  0.00    +0.213 C 
ATOM     20  O   UNL     1      -9.355   9.400  65.000  0.00  0.00    -0.218 OA
BRANCH  19  21
ATOM     21  C   UNL     1      -9.527  11.579  65.673  0.00  0.00    +0.125 C 
BRANCH  21  22
ATOM     22  N   UNL     1     -10.432  11.042  64.654  0.00  0.00    -0.215 NA
BRANCH  22  23
ATOM     23  C   UNL     1     -10.726  12.108  63.712  0.00  0.00    +0.089 C 
BRANCH  23  25
ATOM     24  C   UNL     1     -12.308  12.066  63.473  0.00  0.00    +0.002 C 
ATOM     25  C   UNL     1     -12.191  12.251  63.442  0.00  0.00    +0.019 C 
ENDBRANCH  23  25
ENDBRANCH  22  23
ENDBRANCH  21  22
ENDBRANCH  19  21
ENDBRANCH  18  19
ENDBRANCH  17  18
ENDBRANCH   1  17
TORSDOF 11
ENDMDL
MODEL 9
REMARK VINA RESULT:      -5.9      2.837      5.642
REMARK  Name = 
REMARK  11 active torsions:
REMARK  status: ('A' for Active; 'I' for Inactive)
REMARK    1  A    between atoms: C_2  and  C_3
REMARK    2  A    between atoms: C_3  and  N_4
REMARK    3  A    between atoms: N_4  and  C_5
REMARK    4  A    between atoms: C_5  and  C_6
REMARK    5  A    between atoms: C_6  and  C_8
REMARK    6  A    between atoms: C_8  and  O_9
REMARK    7  A    between atoms: O_9  and  C_10
REMARK    8  A    between atoms: C_15  and  C_16
REMARK    9  A    between atoms: C_16  and  C_18
REMARK   10  A    between atoms: C_18  and  C_19
REMARK   11  A    between atoms: C_19  and  C_20
REMARK                            x       y       z     vdW  Elec       q    Type
REMARK                         _______ _______ _______ _____ _____    ______ ____
ROOT
ATOM      1  C   UNL     1     -10.973  14.820  69.225  0.00  0.00    +0.141 A 
ATOM      2  C   UNL     1     -11.666  13.633  69.411  0.00  0.00    +0.069 A 
ATOM      3  C   UNL     1     -12.387  13.489  70.560  0.00  0.00    +0.006 A 
ATOM      4  C   UNL     1     -12.498  14.523  71.481  0.00  0.00    +0.000 A 
ATOM      5  C   UNL     1     -12.139  15.786  71.083  0.00  0.00    +0.003 A 
ATOM      6  C   UNL     1     -11.525  15.934  69.845  0.00  0.00    +0.037 A 
ENDROOT
BRANCH   2   7
ATOM      7  C   UNL     1     -11.435  12.506  68.525  0.00  0.00    +0.176 C 
ATOM      8  O   UNL     1     -12.151  12.383  67.511  0.00  0.00    -0.291 OA
BRANCH   7   9
ATOM      9  C   UNL     1     -10.337  11.550  68.867  0.00  0.00    +0.074 C 
BRANCH   9  10
ATOM     10  C   UNL     1     -10.916  10.140  68.890  0.00  0.00    +0.034 C 
BRANCH  10  11
ATOM     11  C   UNL     1     -11.183   9.704  70.269  0.00  0.00    -0.022 A 
ATOM     12  C   UNL     1     -12.435   9.824  70.806  0.00  0.00    -0.004 A 
ATOM     13  C   UNL     1     -12.745   9.153  71.982  0.00  0.00    -0.000 A 
ATOM     14  C   UNL     1     -11.842   8.244  72.471  0.00  0.00    -0.000 A 
ATOM     15  C   UNL     1     -10.525   8.370  72.113  0.00  0.00    -0.000 A 
ATOM     16  C   UNL     1     -10.159   9.180  71.047  0.00  0.00    -0.004 A 
ENDBRANCH  10  11
ENDBRANCH   9  10
ENDBRANCH   7   9
ENDBRANCH   2   7
BRANCH   1  17
ATOM     17  O   UNL     1     -10.400  14.983  67.967  0.00  0.00    -0.473 OA
BRANCH  17  18
ATOM     18  C   UNL     1     -10.521  16.170  67.231  0.00  0.00    +0.240 C 
BRANCH  18  19
ATOM     19  C   UNL     1      -9.613  15.818  65.900  0.00  0.00    +0.213 C 
ATOM     20  O   UNL     1     -10.477  16.692  65.004  0.00  0.00    -0.218 OA
BRANCH  19  21
ATOM     21  C   UNL     1      -8.562  17.055  66.202  0.00  0.00    +0.125 C 
BRANCH  21  22
ATOM     22  N   UNL     1      -9.479  18.176  65.985  0.00  0.00    -0.215 NA
BRANCH  22  23
ATOM     23  C   UNL     1      -8.884  19.361  66.579  0.00  0.00    +0.089 C 
BRANCH  23  25
ATOM     24  C   UNL     1     -10.054  20.045  67.431  0.00  0.00    +0.002 C 
ATOM     25  C   UNL     1      -9.848  20.126  67.429  0.00  0.00    +0.019 C 
ENDBRANCH  23  25
ENDBRANCH  22  23
ENDBRANCH  21  22
ENDBRANCH  19  21
ENDBRANCH  18  19
ENDBRANCH  17  18
ENDBRANCH   1  17
TORSDOF 11
ENDMDL
