MODEL 1
REMARK VINA RESULT:      -4.9      0.000      0.000
REMARK  Name = 
REMARK  2 active torsions:
REMARK  status: ('A' for Active; 'I' for Inactive)
REMARK    1  A    between atoms: C_2  and  C_4
REMARK    2  A    between atoms: C_4  and  C_5
REMARK                            x       y       z     vdW  Elec       q    Type
REMARK                         _______ _______ _______ _____ _____    ______ ____
ROOT
ATOM      1  C   UNL     1     -12.740  12.879  71.398  0.00  0.00    -0.021 A 
ATOM      2  C   UNL     1     -12.077  13.541  70.381  0.00  0.00    -0.001 A 
ATOM      3  C   UNL     1     -11.709  12.910  69.199  0.00  0.00    +0.042 A 
ATOM      4  C   UNL     1     -11.870  11.537  69.104  0.00  0.00    +0.196 A 
ATOM      5  O   UNL     1     -12.028  10.917  67.860  0.00  0.00    -0.287 OA
ATOM      6  C   UNL     1     -12.114  10.862  70.295  0.00  0.00    +0.042 A 
ATOM      7  C   UNL     1     -12.799  11.517  71.314  0.00  0.00    -0.001 A 
ENDROOT
BRANCH   1   8
ATOM      8  C   UNL     1     -13.640  13.732  72.198  0.00  0.00    +0.045 C 
BRANCH   8  10
ATOM      9  C   UNL     1     -12.654  15.229  73.735  0.00  0.00    +0.021 C 
ATOM     10  C   UNL     1     -13.010  15.241  72.134  0.00  0.00    +0.096 C 
ATOM     11  N   UNL     1     -14.411  15.905  72.390  0.00  0.00    -0.133 NA
ENDBRANCH   8  10
ENDBRANCH   1   8
TORSDOF 2
ENDMDL
MODEL 2
REMARK VINA RESULT:      -4.7      1.005      1.757
REMARK  Name = 
REMARK  2 active torsions:
REMARK  status: ('A' for Active; 'I' for Inactive)
REMARK    1  A    between atoms: C_2  and  C_4
REMARK    2  A    between atoms: C_4  and  C_5
REMARK                            x       y       z     vdW  Elec       q    Type
REMARK                         _______ _______ _______ _____ _____    ______ ____
ROOT
ATOM      1  C   UNL     1     -13.049  12.887  71.511  0.00  0.00    -0.021 A 
ATOM      2  C   UNL     1     -13.249  11.554  71.817  0.00  0.00    -0.001 A 
ATOM      3  C   UNL     1     -12.493  10.538  71.245  0.00  0.00    +0.042 A 
ATOM      4  C   UNL     1     -11.622  10.860  70.217  0.00  0.00    +0.196 A 
ATOM      5  O   UNL     1     -10.500  10.068  69.953  0.00  0.00    -0.287 OA
ATOM      6  C   UNL     1     -11.782  12.117  69.645  0.00  0.00    +0.042 A 
ATOM      7  C   UNL     1     -12.255  13.162  70.433  0.00  0.00    -0.001 A 
ENDROOT
BRANCH   1   8
ATOM      8  C   UNL     1     -13.362  13.821  72.609  0.00  0.00    +0.045 C 
BRANCH   8  10
ATOM      9  C   UNL     1     -12.821  15.912  73.563  0.00  0.00    +0.021 C 
ATOM     10  C   UNL     1     -13.013  15.317  72.046  0.00  0.00    +0.096 C 
ATOM     11  N   UNL     1     -14.529  15.729  72.014  0.00  0.00    -0.133 NA
ENDBRANCH   8  10
ENDBRANCH   1   8
TORSDOF 2
ENDMDL
MODEL 3
REMARK VINA RESULT:      -4.6      3.450      4.892
REMARK  Name = 
REMARK  2 active torsions:
REMARK  status: ('A' for Active; 'I' for Inactive)
REMARK    1  A    between atoms: C_2  and  C_4
REMARK    2  A    between atoms: C_4  and  C_5
REMARK                            x       y       z     vdW  Elec       q    Type
REMARK                         _______ _______ _______ _____ _____    ______ ____
ROOT
ATOM      1  C   UNL     1     -12.287  14.473  70.597  0.00  0.00    -0.021 A 
ATOM      2  C   UNL     1     -11.956  15.750  71.011  0.00  0.00    -0.001 A 
ATOM      3  C   UNL     1     -12.062  16.153  72.337  0.00  0.00    +0.042 A 
ATOM      4  C   UNL     1     -12.669  15.297  73.242  0.00  0.00    +0.196 A 
ATOM      5  O   UNL     1     -12.367  15.364  74.606  0.00  0.00    -0.287 OA
ATOM      6  C   UNL     1     -13.380  14.232  72.701  0.00  0.00    +0.042 A 
ATOM      7  C   UNL     1     -12.965  13.690  71.488  0.00  0.00    -0.001 A 
ENDROOT
BRANCH   1   8
ATOM      8  C   UNL     1     -11.515  13.987  69.438  0.00  0.00    +0.045 C 
BRANCH   8  10
ATOM      9  C   UNL     1     -12.000  14.141  67.132  0.00  0.00    +0.021 C 
ATOM     10  C   UNL     1     -11.568  15.184  68.323  0.00  0.00    +0.096 C 
ATOM     11  N   UNL     1     -10.041  15.026  67.987  0.00  0.00    -0.133 NA
ENDBRANCH   8  10
ENDBRANCH   1   8
TORSDOF 2
ENDMDL
MODEL 4
REMARK VINA RESULT:      -4.5      1.411      2.050
REMARK  Name = 
REMARK  2 active torsions:
REMARK  status: ('A' for Active; 'I' for Inactive)
REMARK    1  A    between atoms: C_2  and  C_4
REMARK    2  A    between atoms: C_4  and  C_5
REMARK                            x       y       z     vdW  Elec       q    Type
REMARK                         _______ _______ _______ _____ _____    ______ ____
ROOT
ATOM      1  C   UNL     1     -12.071  14.569  70.033  0.00  0.00    -0.021 A 
ATOM      2  C   UNL     1     -11.729  15.042  68.779  0.00  0.00    -0.001 A 
ATOM      3  C   UNL     1     -11.613  14.207  67.675  0.00  0.00    +0.042 A 
ATOM      4  C   UNL     1     -11.687  12.837  67.871  0.00  0.00    +0.196 A 
ATOM      5  O   UNL     1     -12.095  11.986  66.839  0.00  0.00    -0.287 OA
ATOM      6  C   UNL     1     -11.580  12.397  69.185  0.00  0.00    +0.042 A 
ATOM      7  C   UNL     1     -12.044  13.214  70.210  0.00  0.00    -0.001 A 
ENDROOT
BRANCH   1   8
ATOM      8  C   UNL     1     -12.811  15.532  70.869  0.00  0.00    +0.045 C 
BRANCH   8  10
ATOM      9  C   UNL     1     -15.023  15.022  71.521  0.00  0.00    +0.021 C 
ATOM     10  C   UNL     1     -13.516  14.654  72.056  0.00  0.00    +0.096 C 
ATOM     11  N   UNL     1     -13.509  15.871  73.050  0.00  0.00    -0.133 NA
ENDBRANCH   8  10
ENDBRANCH   1   8
TORSDOF 2
ENDMDL
MODEL 5
REMARK VINA RESULT:      -4.4      3.196      4.041
REMARK  Name = 
REMARK  2 active torsions:
REMARK  status: ('A' for Active; 'I' for Inactive)
REMARK    1  A    between atoms: C_2  and  C_4
REMARK    2  A    between atoms: C_4  and  C_5
REMARK                            x       y       z     vdW  Elec       q    Type
REMARK                         _______ _______ _______ _____ _____    ______ ____
ROOT
ATOM      1  C   UNL     1     -11.682  13.565  67.583  0.00  0.00    -0.021 A 
ATOM      2  C   UNL     1     -12.013  14.485  66.605  0.00  0.00    -0.001 A 
ATOM      3  C   UNL     1     -12.431  14.104  65.336  0.00  0.00    +0.042 A 
ATOM      4  C   UNL     1     -12.361  12.763  64.992  0.00  0.00    +0.196 A 
ATOM      5  O   UNL     1     -13.199  12.231  64.007  0.00  0.00    -0.287 OA
ATOM      6  C   UNL     1     -11.611  11.950  65.833  0.00  0.00    +0.042 A 
ATOM      7  C   UNL     1     -11.533  12.267  67.186  0.00  0.00    -0.001 A 
ENDROOT
BRANCH   1   8
ATOM      8  C   UNL     1     -11.943  14.019  68.963  0.00  0.00    +0.045 C 
BRANCH   8  10
ATOM      9  C   UNL     1     -10.311  15.505  69.801  0.00  0.00    +0.021 C 
ATOM     10  C   UNL     1     -11.713  15.639  68.959  0.00  0.00    +0.096 C 
ATOM     11  N   UNL     1     -12.553  15.826  70.273  0.00  0.00    -0.133 NA
ENDBRANCH   8  10
ENDBRANCH   1   8
TORSDOF 2
ENDMDL
MODEL 6
REMARK VINA RESULT:      -4.4      1.700      2.156
REMARK  Name = 
REMARK  2 active torsions:
REMARK  status: ('A' for Active; 'I' for Inactive)
REMARK    1  A    between atoms: C_2  and  C_4
REMARK    2  A    between atoms: C_4  and  C_5
REMARK                            x       y       z     vdW  Elec       q    Type
REMARK                         _______ _______ _______ _____ _____    ______ ____
ROOT
ATOM      1  C   UNL     1     -12.062  14.168  70.854  0.00  0.00    -0.021 A 
ATOM      2  C   UNL     1     -11.613  15.354  70.303  0.00  0.00    -0.001 A 
ATOM      3  C   UNL     1     -11.423  15.513  68.935  0.00  0.00    +0.042 A 
ATOM      4  C   UNL     1     -11.534  14.400  68.118  0.00  0.00    +0.196 A 
ATOM      5  O   UNL     1     -11.872  14.533  66.767  0.00  0.00    -0.287 OA
ATOM      6  C   UNL     1     -11.541  13.166  68.756  0.00  0.00    +0.042 A 
ATOM      7  C   UNL     1     -12.072  13.072  70.039  0.00  0.00    -0.001 A 
ENDROOT
BRANCH   1   8
ATOM      8  C   UNL     1     -12.852  14.329  72.090  0.00  0.00    +0.045 C 
BRANCH   8  10
ATOM      9  C   UNL     1     -12.472  15.472  74.121  0.00  0.00    +0.021 C 
ATOM     10  C   UNL     1     -12.667  15.890  72.546  0.00  0.00    +0.096 C 
ATOM     11  N   UNL     1     -14.215  16.087  72.730  0.00  0.00    -0.133 NA
ENDBRANCH   8  10
ENDBRANCH   1   8
TORSDOF 2
ENDMDL
MODEL 7
REMARK VINA RESULT:      -4.4      3.252      5.025
REMARK  Name = 
REMARK  2 active torsions:
REMARK  status: ('A' for Active; 'I' for Inactive)
REMARK    1  A    between atoms: C_2  and  C_4
REMARK    2  A    between atoms: C_4  and  C_5
REMARK                            x       y       z     vdW  Elec       q    Type
REMARK                         _______ _______ _______ _____ _____    ______ ____
ROOT
ATOM      1  C   UNL     1     -11.966  14.092  70.246  0.00  0.00    -0.021 A 
ATOM      2  C   UNL     1     -12.778  13.414  71.136  0.00  0.00    -0.001 A 
ATOM      3  C   UNL     1     -13.483  14.064  72.143  0.00  0.00    +0.042 A 
ATOM      4  C   UNL     1     -13.237  15.411  72.359  0.00  0.00    +0.196 A 
ATOM      5  O   UNL     1     -14.208  16.232  72.941  0.00  0.00    -0.287 OA
ATOM      6  C   UNL     1     -12.103  15.935  71.750  0.00  0.00    +0.042 A 
ATOM      7  C   UNL     1     -11.673  15.393  70.543  0.00  0.00    -0.001 A 
ENDROOT
BRANCH   1   8
ATOM      8  C   UNL     1     -11.869  13.471  68.912  0.00  0.00    +0.045 C 
BRANCH   8  10
ATOM      9  C   UNL     1      -9.938  12.313  68.200  0.00  0.00    +0.021 C 
ATOM     10  C   UNL     1     -11.235  11.981  69.149  0.00  0.00    +0.096 C 
ATOM     11  N   UNL     1     -12.037  11.376  67.941  0.00  0.00    -0.133 NA
ENDBRANCH   8  10
ENDBRANCH   1   8
TORSDOF 2
ENDMDL
MODEL 8
REMARK VINA RESULT:      -4.4      4.459      5.925
REMARK  Name = 
REMARK  2 active torsions:
REMARK  status: ('A' for Active; 'I' for Inactive)
REMARK    1  A    between atoms: C_2  and  C_4
REMARK    2  A    between atoms: C_4  and  C_5
REMARK                            x       y       z     vdW  Elec       q    Type
REMARK                         _______ _______ _______ _____ _____    ______ ____
ROOT
ATOM      1  C   UNL     1     -11.551  13.467  66.594  0.00  0.00    -0.021 A 
ATOM      2  C   UNL     1     -10.351  14.148  66.509  0.00  0.00    -0.001 A 
ATOM      3  C   UNL     1     -10.164  15.220  65.645  0.00  0.00    +0.042 A 
ATOM      4  C   UNL     1     -11.160  15.512  64.728  0.00  0.00    +0.196 A 
ATOM      5  O   UNL     1     -11.304  16.804  64.212  0.00  0.00    -0.287 OA
ATOM      6  C   UNL     1     -12.135  14.539  64.548  0.00  0.00    +0.042 A 
ATOM      7  C   UNL     1     -12.474  13.716  65.617  0.00  0.00    -0.001 A 
ENDROOT
BRANCH   1   8
ATOM      8  C   UNL     1     -11.838  12.896  67.924  0.00  0.00    +0.045 C 
BRANCH   8  10
ATOM      9  C   UNL     1     -11.131  10.705  67.398  0.00  0.00    +0.021 C 
ATOM     10  C   UNL     1     -10.555  11.951  68.298  0.00  0.00    +0.096 C 
ATOM     11  N   UNL     1     -11.252  11.410  69.599  0.00  0.00    -0.133 NA
ENDBRANCH   8  10
ENDBRANCH   1   8
TORSDOF 2
ENDMDL
MODEL 9
REMARK VINA RESULT:      -4.3      4.543      6.584
REMARK  Name = 
REMARK  2 active torsions:
REMARK  status: ('A' for Active; 'I' for Inactive)
REMARK    1  A    between atoms: C_2  and  C_4
REMARK    2  A    between atoms: C_4  and  C_5
REMARK                            x       y       z     vdW  Elec       q    Type
REMARK                         _______ _______ _______ _____ _____    ______ ____
ROOT
ATOM      1  C   UNL     1     -10.668  13.710  66.278  0.00  0.00    -0.021 A 
ATOM      2  C   UNL     1     -11.497  13.214  67.268  0.00  0.00    -0.001 A 
ATOM      3  C   UNL     1     -11.921  13.990  68.340  0.00  0.00    +0.042 A 
ATOM      4  C   UNL     1     -11.368  15.249  68.506  0.00  0.00    +0.196 A 
ATOM      5  O   UNL     1     -12.063  16.254  69.186  0.00  0.00    -0.287 OA
ATOM      6  C   UNL     1     -10.227  15.523  67.760  0.00  0.00    +0.042 A 
ATOM      7  C   UNL     1     -10.070  14.915  66.519  0.00  0.00    -0.001 A 
ENDROOT
BRANCH   1   8
ATOM      8  C   UNL     1     -10.866  13.098  64.951  0.00  0.00    +0.045 C 
BRANCH   8  10
ATOM      9  C   UNL     1     -12.301  12.037  63.404  0.00  0.00    +0.021 C 
ATOM     10  C   UNL     1     -12.484  12.945  64.759  0.00  0.00    +0.096 C 
ATOM     11  N   UNL     1     -12.576  14.274  63.926  0.00  0.00    -0.133 NA
ENDBRANCH   8  10
ENDBRANCH   1   8
TORSDOF 2
ENDMDL
