MODEL 1
REMARK VINA RESULT:      -7.5      0.000      0.000
REMARK  Name = 
REMARK  16 active torsions:
REMARK  status: ('A' for Active; 'I' for Inactive)
REMARK    1  A    between atoms: O_2  and  C_3
REMARK    2  A    between atoms: N_5  and  C_6
REMARK    3  A    between atoms: C_6  and  C_7
REMARK    4  A    between atoms: C_6  and  C_63
REMARK    5  A    between atoms: C_13  and  C_14
REMARK    6  A    between atoms: N_16  and  C_17
REMARK    7  A    between atoms: C_20  and  C_21
REMARK    8  A    between atoms: C_24  and  C_25
REMARK    9  A    between atoms: C_28  and  N_29
REMARK   10  A    between atoms: C_30  and  C_32
REMARK   11  A    between atoms: C_37  and  C_39
REMARK   12  A    between atoms: C_39  and  N_40
REMARK   13  A    between atoms: C_39  and  C_45
REMARK   14  A    between atoms: C_41  and  O_43
REMARK   15  A    between atoms: N_50  and  C_51
REMARK   16  A    between atoms: C_54  and  C_55
REMARK                            x       y       z     vdW  Elec       q    Type
REMARK                         _______ _______ _______ _____ _____    ______ ____
ROOT
ATOM      1  C   UNL     1      -5.779  19.370  66.989  0.00  0.00    +0.096 C 
ATOM      2  N   UNL     1      -4.893  19.721  65.745  0.00  0.00    -0.303 N 
ATOM      3  C   UNL     1      -4.022  20.836  66.453  0.00  0.00    +0.096 C 
ATOM      4  C   UNL     1      -5.287  21.564  67.203  0.00  0.00    +0.026 C 
ATOM      5  C   UNL     1      -6.490  20.831  66.788  0.00  0.00    +0.026 C 
ENDROOT
BRANCH   2   6
ATOM      6  C   UNL     1      -5.385  20.136  64.495  0.00  0.00    +0.048 A 
ATOM      7  C   UNL     1      -5.630  19.146  63.551  0.00  0.00    +0.014 A 
ATOM      8  C   UNL     1      -5.313  19.312  62.208  0.00  0.00    -0.003 A 
ATOM      9  C   UNL     1      -4.765  20.514  61.778  0.00  0.00    -0.023 A 
ATOM     10  C   UNL     1      -5.138  21.600  62.561  0.00  0.00    -0.003 A 
ATOM     11  C   UNL     1      -5.178  21.392  63.935  0.00  0.00    +0.014 A 
BRANCH   9  12
ATOM     12  C   UNL     1      -4.008  20.642  60.513  0.00  0.00    +0.019 C 
ATOM     13  C   UNL     1      -2.803  19.763  60.495  0.00  0.00    +0.004 C 
ATOM     14  C   UNL     1      -4.834  20.309  59.296  0.00  0.00    +0.004 C 
ATOM     15  C   UNL     1      -3.513  22.070  60.317  0.00  0.00    +0.004 C 
ENDBRANCH   9  12
ENDBRANCH   2   6
BRANCH   1  19
ATOM     16  C   UNL     1      -8.682  16.615  67.235  0.00  0.00    +0.073 A 
ATOM     17  C   UNL     1      -7.400  16.271  66.813  0.00  0.00    +0.016 A 
ATOM     18  C   UNL     1      -6.586  17.198  66.171  0.00  0.00    -0.001 A 
ATOM     19  C   UNL     1      -6.896  18.556  66.146  0.00  0.00    -0.004 A 
ATOM     20  C   UNL     1      -8.202  18.840  66.513  0.00  0.00    -0.001 A 
ATOM     21  C   UNL     1      -9.121  17.859  66.799  0.00  0.00    +0.016 A 
BRANCH  16  23
ATOM     22  C   UNL     1     -10.347  15.424  65.791  0.00  0.00    +0.264 C 
ATOM     23  N   UNL     1      -9.662  15.576  67.049  0.00  0.00    -0.178 NA
ATOM     24  O   UNL     1     -10.136  16.321  65.000  0.00  0.00    -0.271 OA
BRANCH  22  27
ATOM     25  C   UNL     1     -11.183  11.928  66.540  0.00  0.00    +0.246 C 
ATOM     26  N   UNL     1     -11.206  13.332  66.554  0.00  0.00    -0.272 N 
ATOM     27  C   UNL     1     -10.363  13.878  65.338  0.00  0.00    +0.154 C 
ATOM     28  C   UNL     1     -11.641  14.049  64.325  0.00  0.00    +0.031 C 
ATOM     29  C   UNL     1     -12.812  14.150  65.154  0.00  0.00    +0.024 C 
ATOM     30  C   UNL     1     -12.459  13.980  66.564  0.00  0.00    +0.094 C 
ATOM     31  O   UNL     1     -11.422  11.199  65.557  0.00  0.00    -0.273 OA
BRANCH  25  32
ATOM     32  C   UNL     1     -10.390  11.084  67.651  0.00  0.00    +0.175 C 
BRANCH  32  33
ATOM     33  C   UNL     1     -10.066   9.851  66.623  0.00  0.00    +0.029 C 
ATOM     34  C   UNL     1      -8.709   9.879  66.129  0.00  0.00    +0.002 C 
ATOM     35  C   UNL     1     -10.563   8.596  67.250  0.00  0.00    +0.002 C 
ENDBRANCH  32  33
BRANCH  32  37
ATOM     36  C   UNL     1     -12.063  10.922  69.523  0.00  0.00    +0.422 C 
ATOM     37  N   UNL     1     -11.687  10.427  68.259  0.00  0.00    -0.161 NA
ATOM     38  O   UNL     1     -11.861  12.125  69.862  0.00  0.00    -0.225 OA
BRANCH  36  40
ATOM     39  C   UNL     1     -12.856  10.370  71.548  0.00  0.00    +0.257 C 
ATOM     40  O   UNL     1     -12.595  10.123  70.545  0.00  0.00    -0.429 OA
ENDBRANCH  36  40
ENDBRANCH  32  37
ENDBRANCH  25  32
ENDBRANCH  22  27
ENDBRANCH  16  23
ENDBRANCH   1  19
BRANCH   3  41
ATOM     41  C   UNL     1      -3.629  19.865  67.668  0.00  0.00    -0.004 A 
ATOM     42  C   UNL     1      -3.254  18.603  67.479  0.00  0.00    -0.001 A 
ATOM     43  C   UNL     1      -3.092  17.820  68.617  0.00  0.00    +0.016 A 
ATOM     44  C   UNL     1      -3.551  18.218  69.869  0.00  0.00    +0.073 A 
ATOM     45  C   UNL     1      -3.652  19.597  70.016  0.00  0.00    +0.016 A 
ATOM     46  C   UNL     1      -3.616  20.435  68.910  0.00  0.00    -0.001 A 
BRANCH  44  47
ATOM     47  N   UNL     1      -4.349  17.338  70.686  0.00  0.00    -0.178 NA
ATOM     48  C   UNL     1      -4.617  16.092  70.115  0.00  0.00    +0.264 C 
ATOM     49  O   UNL     1      -4.817  16.082  68.861  0.00  0.00    -0.271 OA
BRANCH  48  50
ATOM     50  C   UNL     1      -5.571  15.058  70.885  0.00  0.00    +0.154 C 
ATOM     51  N   UNL     1      -4.997  13.834  70.075  0.00  0.00    -0.272 N 
ATOM     52  C   UNL     1      -5.688  12.662  70.395  0.00  0.00    +0.246 C 
ATOM     53  O   UNL     1      -5.560  12.236  71.583  0.00  0.00    -0.273 OA
ATOM     54  C   UNL     1      -3.584  13.954  70.095  0.00  0.00    +0.094 C 
ATOM     55  C   UNL     1      -3.247  14.546  71.416  0.00  0.00    +0.024 C 
ATOM     56  C   UNL     1      -4.518  14.812  72.118  0.00  0.00    +0.031 C 
BRANCH  52  57
ATOM     57  C   UNL     1      -5.631  11.424  69.366  0.00  0.00    +0.175 C 
BRANCH  57  58
ATOM     58  N   UNL     1      -7.124  11.074  69.708  0.00  0.00    -0.161 NA
ATOM     59  C   UNL     1      -7.488   9.851  70.205  0.00  0.00    +0.422 C 
ATOM     60  O   UNL     1      -6.729   9.399  71.098  0.00  0.00    -0.225 OA
BRANCH  59  61
ATOM     61  O   UNL     1      -8.829   9.464  70.079  0.00  0.00    -0.429 OA
ATOM     62  C   UNL     1      -9.363   8.798  71.197  0.00  0.00    +0.257 C 
ENDBRANCH  59  61
ENDBRANCH  57  58
BRANCH  57  63
ATOM     63  C   UNL     1      -5.928  12.317  68.022  0.00  0.00    +0.029 C 
ATOM     64  C   UNL     1      -5.491  11.661  66.816  0.00  0.00    +0.002 C 
ATOM     65  C   UNL     1      -7.358  12.738  68.132  0.00  0.00    +0.002 C 
ENDBRANCH  57  63
ENDBRANCH  52  57
ENDBRANCH  48  50
ENDBRANCH  44  47
ENDBRANCH   3  41
TORSDOF 16
ENDMDL
MODEL 2
REMARK VINA RESULT:      -7.0      3.510      9.313
REMARK  Name = 
REMARK  16 active torsions:
REMARK  status: ('A' for Active; 'I' for Inactive)
REMARK    1  A    between atoms: O_2  and  C_3
REMARK    2  A    between atoms: N_5  and  C_6
REMARK    3  A    between atoms: C_6  and  C_7
REMARK    4  A    between atoms: C_6  and  C_63
REMARK    5  A    between atoms: C_13  and  C_14
REMARK    6  A    between atoms: N_16  and  C_17
REMARK    7  A    between atoms: C_20  and  C_21
REMARK    8  A    between atoms: C_24  and  C_25
REMARK    9  A    between atoms: C_28  and  N_29
REMARK   10  A    between atoms: C_30  and  C_32
REMARK   11  A    between atoms: C_37  and  C_39
REMARK   12  A    between atoms: C_39  and  N_40
REMARK   13  A    between atoms: C_39  and  C_45
REMARK   14  A    between atoms: C_41  and  O_43
REMARK   15  A    between atoms: N_50  and  C_51
REMARK   16  A    between atoms: C_54  and  C_55
REMARK                            x       y       z     vdW  Elec       q    Type
REMARK                         _______ _______ _______ _____ _____    ______ ____
ROOT
ATOM      1  C   UNL     1     -10.371  12.121  66.728  0.00  0.00    +0.096 C 
ATOM      2  N   UNL     1      -9.579  12.255  65.382  0.00  0.00    -0.303 N 
ATOM      3  C   UNL     1     -10.418  13.463  64.800  0.00  0.00    +0.096 C 
ATOM      4  C   UNL     1     -11.881  12.847  65.213  0.00  0.00    +0.026 C 
ATOM      5  C   UNL     1     -11.618  11.544  65.837  0.00  0.00    +0.026 C 
ENDROOT
BRANCH   2   6
ATOM      6  C   UNL     1      -9.400  11.223  64.443  0.00  0.00    +0.048 A 
ATOM      7  C   UNL     1      -8.380  10.311  64.692  0.00  0.00    +0.014 A 
ATOM      8  C   UNL     1      -7.557   9.832  63.679  0.00  0.00    -0.003 A 
ATOM      9  C   UNL     1      -7.774  10.242  62.370  0.00  0.00    -0.023 A 
ATOM     10  C   UNL     1      -9.095  10.583  62.111  0.00  0.00    -0.003 A 
ATOM     11  C   UNL     1      -9.761  11.295  63.103  0.00  0.00    +0.014 A 
BRANCH   9  12
ATOM     12  C   UNL     1      -6.734  10.153  61.321  0.00  0.00    +0.019 C 
ATOM     13  C   UNL     1      -7.174   9.306  60.174  0.00  0.00    +0.004 C 
ATOM     14  C   UNL     1      -6.339  11.499  60.768  0.00  0.00    +0.004 C 
ATOM     15  C   UNL     1      -5.460   9.522  61.869  0.00  0.00    +0.004 C 
ENDBRANCH   9  12
ENDBRANCH   2   6
BRANCH   1  19
ATOM     16  C   UNL     1     -10.096   9.350  69.614  0.00  0.00    +0.073 A 
ATOM     17  C   UNL     1      -9.063  10.256  69.389  0.00  0.00    +0.016 A 
ATOM     18  C   UNL     1      -8.845  10.793  68.124  0.00  0.00    -0.001 A 
ATOM     19  C   UNL     1      -9.778  10.660  67.099  0.00  0.00    -0.004 A 
ATOM     20  C   UNL     1     -10.748   9.700  67.343  0.00  0.00    -0.001 A 
ATOM     21  C   UNL     1     -10.736   8.904  68.463  0.00  0.00    +0.016 A 
BRANCH  16  23
ATOM     22  C   UNL     1     -10.407   8.156  71.795  0.00  0.00    +0.264 C 
ATOM     23  N   UNL     1      -9.755   8.281  70.517  0.00  0.00    -0.178 NA
ATOM     24  O   UNL     1     -11.122   9.096  72.079  0.00  0.00    -0.271 OA
BRANCH  22  27
ATOM     25  C   UNL     1      -9.679   4.566  71.558  0.00  0.00    +0.246 C 
ATOM     26  N   UNL     1      -9.497   5.955  71.650  0.00  0.00    -0.272 N 
ATOM     27  C   UNL     1     -10.863   6.633  72.052  0.00  0.00    +0.154 C 
ATOM     28  C   UNL     1     -10.551   6.670  73.661  0.00  0.00    +0.031 C 
ATOM     29  C   UNL     1      -9.122   6.604  73.805  0.00  0.00    +0.024 C 
ATOM     30  C   UNL     1      -8.482   6.443  72.499  0.00  0.00    +0.094 C 
ATOM     31  O   UNL     1     -10.224   3.838  72.413  0.00  0.00    -0.273 OA
BRANCH  25  32
ATOM     32  C   UNL     1      -9.638   3.798  70.150  0.00  0.00    +0.175 C 
BRANCH  32  33
ATOM     33  C   UNL     1      -8.371   2.857  70.589  0.00  0.00    +0.029 C 
ATOM     34  C   UNL     1      -8.426   1.539  69.999  0.00  0.00    +0.002 C 
ATOM     35  C   UNL     1      -7.129   3.658  70.415  0.00  0.00    +0.002 C 
ENDBRANCH  32  33
BRANCH  32  37
ATOM     36  C   UNL     1      -9.309   5.404  68.242  0.00  0.00    +0.422 C 
ATOM     37  N   UNL     1      -8.760   4.894  69.435  0.00  0.00    -0.161 NA
ATOM     38  O   UNL     1     -10.558   5.522  68.072  0.00  0.00    -0.225 OA
BRANCH  36  40
ATOM     39  C   UNL     1      -8.321   6.681  66.684  0.00  0.00    +0.257 C 
ATOM     40  O   UNL     1      -8.546   5.732  67.112  0.00  0.00    -0.429 OA
ENDBRANCH  36  40
ENDBRANCH  32  37
ENDBRANCH  25  32
ENDBRANCH  22  27
ENDBRANCH  16  23
ENDBRANCH   1  19
BRANCH   3  41
ATOM     41  C   UNL     1     -10.213  14.344  66.126  0.00  0.00    -0.004 A 
ATOM     42  C   UNL     1     -11.225  14.948  66.743  0.00  0.00    -0.001 A 
ATOM     43  C   UNL     1     -10.899  15.807  67.787  0.00  0.00    +0.016 A 
ATOM     44  C   UNL     1      -9.598  16.244  68.015  0.00  0.00    +0.073 A 
ATOM     45  C   UNL     1      -8.623  15.376  67.537  0.00  0.00    +0.016 A 
ATOM     46  C   UNL     1      -8.948  14.368  66.639  0.00  0.00    -0.001 A 
BRANCH  44  47
ATOM     47  N   UNL     1      -9.301  17.643  68.198  0.00  0.00    -0.178 NA
ATOM     48  C   UNL     1      -7.969  17.921  68.515  0.00  0.00    +0.264 C 
ATOM     49  O   UNL     1      -7.388  17.085  69.275  0.00  0.00    -0.271 OA
BRANCH  48  50
ATOM     50  C   UNL     1      -7.530  19.430  68.834  0.00  0.00    +0.154 C 
ATOM     51  N   UNL     1      -6.038  19.148  68.414  0.00  0.00    -0.272 N 
ATOM     52  C   UNL     1      -5.236  20.266  68.658  0.00  0.00    +0.246 C 
ATOM     53  O   UNL     1      -5.481  21.301  67.966  0.00  0.00    -0.273 OA
ATOM     54  C   UNL     1      -6.083  18.457  67.177  0.00  0.00    +0.094 C 
ATOM     55  C   UNL     1      -7.256  19.007  66.448  0.00  0.00    +0.024 C 
ATOM     56  C   UNL     1      -7.909  19.988  67.338  0.00  0.00    +0.031 C 
BRANCH  52  57
ATOM     57  C   UNL     1      -3.643  20.063  68.786  0.00  0.00    +0.175 C 
BRANCH  57  58
ATOM     58  N   UNL     1      -3.428  20.979  67.528  0.00  0.00    -0.161 NA
ATOM     59  C   UNL     1      -2.681  20.574  66.453  0.00  0.00    +0.422 C 
ATOM     60  O   UNL     1      -2.885  19.390  66.088  0.00  0.00    -0.225 OA
BRANCH  59  61
ATOM     61  O   UNL     1      -2.182  21.560  65.592  0.00  0.00    -0.429 OA
ATOM     62  C   UNL     1      -2.059  22.840  66.162  0.00  0.00    +0.257 C 
ENDBRANCH  59  61
ENDBRANCH  57  58
BRANCH  57  63
ATOM     63  C   UNL     1      -3.423  21.220  69.928  0.00  0.00    +0.029 C 
ATOM     64  C   UNL     1      -4.191  20.972  71.121  0.00  0.00    +0.002 C 
ATOM     65  C   UNL     1      -1.943  21.384  70.048  0.00  0.00    +0.002 C 
ENDBRANCH  57  63
ENDBRANCH  52  57
ENDBRANCH  48  50
ENDBRANCH  44  47
ENDBRANCH   3  41
TORSDOF 16
ENDMDL
MODEL 3
REMARK VINA RESULT:      -7.0      3.360      9.097
REMARK  Name = 
REMARK  16 active torsions:
REMARK  status: ('A' for Active; 'I' for Inactive)
REMARK    1  A    between atoms: O_2  and  C_3
REMARK    2  A    between atoms: N_5  and  C_6
REMARK    3  A    between atoms: C_6  and  C_7
REMARK    4  A    between atoms: C_6  and  C_63
REMARK    5  A    between atoms: C_13  and  C_14
REMARK    6  A    between atoms: N_16  and  C_17
REMARK    7  A    between atoms: C_20  and  C_21
REMARK    8  A    between atoms: C_24  and  C_25
REMARK    9  A    between atoms: C_28  and  N_29
REMARK   10  A    between atoms: C_30  and  C_32
REMARK   11  A    between atoms: C_37  and  C_39
REMARK   12  A    between atoms: C_39  and  N_40
REMARK   13  A    between atoms: C_39  and  C_45
REMARK   14  A    between atoms: C_41  and  O_43
REMARK   15  A    between atoms: N_50  and  C_51
REMARK   16  A    between atoms: C_54  and  C_55
REMARK                            x       y       z     vdW  Elec       q    Type
REMARK                         _______ _______ _______ _____ _____    ______ ____
ROOT
ATOM      1  C   UNL     1     -10.374  11.880  66.336  0.00  0.00    +0.096 C 
ATOM      2  N   UNL     1      -9.597  11.919  64.976  0.00  0.00    -0.303 N 
ATOM      3  C   UNL     1     -10.534  12.977  64.264  0.00  0.00    +0.096 C 
ATOM      4  C   UNL     1     -11.941  12.296  64.764  0.00  0.00    +0.026 C 
ATOM      5  C   UNL     1     -11.569  11.101  65.533  0.00  0.00    +0.026 C 
ENDROOT
BRANCH   2   6
ATOM      6  C   UNL     1      -9.334  10.802  64.163  0.00  0.00    +0.048 A 
ATOM      7  C   UNL     1      -8.202  10.053  64.463  0.00  0.00    +0.014 A 
ATOM      8  C   UNL     1      -7.370   9.545  63.473  0.00  0.00    -0.003 A 
ATOM      9  C   UNL     1      -7.689   9.755  62.138  0.00  0.00    -0.023 A 
ATOM     10  C   UNL     1      -9.052   9.905  61.914  0.00  0.00    -0.003 A 
ATOM     11  C   UNL     1      -9.757  10.659  62.846  0.00  0.00    +0.014 A 
BRANCH   9  12
ATOM     12  C   UNL     1      -6.692   9.651  61.050  0.00  0.00    +0.019 C 
ATOM     13  C   UNL     1      -5.433   8.994  61.511  0.00  0.00    +0.004 C 
ATOM     14  C   UNL     1      -7.199   8.878  59.858  0.00  0.00    +0.004 C 
ATOM     15  C   UNL     1      -6.303  11.030  60.533  0.00  0.00    +0.004 C 
ENDBRANCH   9  12
ENDBRANCH   2   6
BRANCH   1  19
ATOM     16  C   UNL     1      -9.869   9.500  69.524  0.00  0.00    +0.073 A 
ATOM     17  C   UNL     1      -8.915  10.456  69.185  0.00  0.00    +0.016 A 
ATOM     18  C   UNL     1      -8.743  10.856  67.863  0.00  0.00    -0.001 A 
ATOM     19  C   UNL     1      -9.662  10.527  66.870  0.00  0.00    -0.004 A 
ATOM     20  C   UNL     1     -10.548   9.525  67.234  0.00  0.00    -0.001 A 
ATOM     21  C   UNL     1     -10.470   8.871  68.440  0.00  0.00    +0.016 A 
BRANCH  16  23
ATOM     22  C   UNL     1     -10.205   8.399  71.749  0.00  0.00    +0.264 C 
ATOM     23  N   UNL     1      -9.440   8.576  70.542  0.00  0.00    -0.178 NA
ATOM     24  O   UNL     1     -11.118   9.191  71.878  0.00  0.00    -0.271 OA
BRANCH  22  27
ATOM     25  C   UNL     1      -8.744   5.040  71.993  0.00  0.00    +0.246 C 
ATOM     26  N   UNL     1      -8.863   6.438  71.974  0.00  0.00    -0.272 N 
ATOM     27  C   UNL     1     -10.386   6.833  72.080  0.00  0.00    +0.154 C 
ATOM     28  C   UNL     1     -10.382   7.038  73.707  0.00  0.00    +0.031 C 
ATOM     29  C   UNL     1      -9.018   7.289  74.086  0.00  0.00    +0.024 C 
ATOM     30  C   UNL     1      -8.134   7.185  72.923  0.00  0.00    +0.094 C 
ATOM     31  O   UNL     1      -9.277   4.268  72.816  0.00  0.00    -0.273 OA
BRANCH  25  32
ATOM     32  C   UNL     1      -8.299   4.210  70.694  0.00  0.00    +0.175 C 
BRANCH  32  33
ATOM     33  C   UNL     1      -6.800   3.908  71.280  0.00  0.00    +0.029 C 
ATOM     34  C   UNL     1      -6.444   2.511  71.205  0.00  0.00    +0.002 C 
ATOM     35  C   UNL     1      -5.871   4.907  70.683  0.00  0.00    +0.002 C 
ENDBRANCH  32  33
BRANCH  32  37
ATOM     36  C   UNL     1      -8.584   5.672  68.666  0.00  0.00    +0.422 C 
ATOM     37  N   UNL     1      -7.877   5.486  69.870  0.00  0.00    -0.161 NA
ATOM     38  O   UNL     1      -9.795   5.326  68.536  0.00  0.00    -0.225 OA
BRANCH  36  40
ATOM     39  C   UNL     1      -7.431   7.040  67.312  0.00  0.00    +0.257 C 
ATOM     40  O   UNL     1      -8.000   6.157  67.486  0.00  0.00    -0.429 OA
ENDBRANCH  36  40
ENDBRANCH  32  37
ENDBRANCH  25  32
ENDBRANCH  22  27
ENDBRANCH  16  23
ENDBRANCH   1  19
BRANCH   3  41
ATOM     41  C   UNL     1     -10.403  14.022  65.476  0.00  0.00    -0.004 A 
ATOM     42  C   UNL     1     -11.463  14.564  66.067  0.00  0.00    -0.001 A 
ATOM     43  C   UNL     1     -11.217  15.570  66.995  0.00  0.00    +0.016 A 
ATOM     44  C   UNL     1      -9.975  16.187  67.116  0.00  0.00    +0.073 A 
ATOM     45  C   UNL     1      -8.913  15.395  66.693  0.00  0.00    +0.016 A 
ATOM     46  C   UNL     1      -9.135  14.260  65.926  0.00  0.00    -0.001 A 
BRANCH  44  47
ATOM     47  N   UNL     1      -9.852  17.623  67.131  0.00  0.00    -0.178 NA
ATOM     48  C   UNL     1      -8.715  18.105  67.786  0.00  0.00    +0.264 C 
ATOM     49  O   UNL     1      -8.352  17.467  68.822  0.00  0.00    -0.271 OA
BRANCH  48  50
ATOM     50  C   UNL     1      -8.511  19.688  67.951  0.00  0.00    +0.154 C 
ATOM     51  N   UNL     1      -6.948  19.532  68.077  0.00  0.00    -0.272 N 
ATOM     52  C   UNL     1      -6.350  20.763  68.357  0.00  0.00    +0.246 C 
ATOM     53  O   UNL     1      -6.423  21.648  67.450  0.00  0.00    -0.273 OA
ATOM     54  C   UNL     1      -6.536  18.667  67.032  0.00  0.00    +0.094 C 
ATOM     55  C   UNL     1      -7.439  18.956  65.887  0.00  0.00    +0.024 C 
ATOM     56  C   UNL     1      -8.413  19.970  66.338  0.00  0.00    +0.031 C 
BRANCH  52  57
ATOM     57  C   UNL     1      -4.877  20.778  69.010  0.00  0.00    +0.175 C 
BRANCH  57  58
ATOM     58  N   UNL     1      -5.238  19.498  69.846  0.00  0.00    -0.161 NA
ATOM     59  C   UNL     1      -5.265  19.507  71.216  0.00  0.00    +0.422 C 
ATOM     60  O   UNL     1      -5.815  20.516  71.724  0.00  0.00    -0.225 OA
BRANCH  59  61
ATOM     61  O   UNL     1      -5.164  18.279  71.883  0.00  0.00    -0.429 OA
ATOM     62  C   UNL     1      -5.193  17.147  71.050  0.00  0.00    +0.257 C 
ENDBRANCH  59  61
ENDBRANCH  57  58
BRANCH  57  63
ATOM     63  C   UNL     1      -4.137  20.013  67.763  0.00  0.00    +0.029 C 
ATOM     64  C   UNL     1      -3.555  20.932  66.818  0.00  0.00    +0.002 C 
ATOM     65  C   UNL     1      -3.260  18.980  68.393  0.00  0.00    +0.002 C 
ENDBRANCH  57  63
ENDBRANCH  52  57
ENDBRANCH  48  50
ENDBRANCH  44  47
ENDBRANCH   3  41
TORSDOF 16
ENDMDL
MODEL 4
REMARK VINA RESULT:      -6.7      3.526      9.371
REMARK  Name = 
REMARK  16 active torsions:
REMARK  status: ('A' for Active; 'I' for Inactive)
REMARK    1  A    between atoms: O_2  and  C_3
REMARK    2  A    between atoms: N_5  and  C_6
REMARK    3  A    between atoms: C_6  and  C_7
REMARK    4  A    between atoms: C_6  and  C_63
REMARK    5  A    between atoms: C_13  and  C_14
REMARK    6  A    between atoms: N_16  and  C_17
REMARK    7  A    between atoms: C_20  and  C_21
REMARK    8  A    between atoms: C_24  and  C_25
REMARK    9  A    between atoms: C_28  and  N_29
REMARK   10  A    between atoms: C_30  and  C_32
REMARK   11  A    between atoms: C_37  and  C_39
REMARK   12  A    between atoms: C_39  and  N_40
REMARK   13  A    between atoms: C_39  and  C_45
REMARK   14  A    between atoms: C_41  and  O_43
REMARK   15  A    between atoms: N_50  and  C_51
REMARK   16  A    between atoms: C_54  and  C_55
REMARK                            x       y       z     vdW  Elec       q    Type
REMARK                         _______ _______ _______ _____ _____    ______ ____
ROOT
ATOM      1  C   UNL     1     -10.360  11.590  66.184  0.00  0.00    +0.096 C 
ATOM      2  N   UNL     1      -9.503  11.910  64.913  0.00  0.00    -0.303 N 
ATOM      3  C   UNL     1     -10.461  13.025  64.326  0.00  0.00    +0.096 C 
ATOM      4  C   UNL     1     -11.848  12.190  64.594  0.00  0.00    +0.026 C 
ATOM      5  C   UNL     1     -11.448  10.901  65.173  0.00  0.00    +0.026 C 
ENDROOT
BRANCH   2   6
ATOM      6  C   UNL     1      -9.115  10.970  63.942  0.00  0.00    +0.048 A 
ATOM      7  C   UNL     1      -7.999  10.191  64.226  0.00  0.00    +0.014 A 
ATOM      8  C   UNL     1      -7.046   9.888  63.261  0.00  0.00    -0.003 A 
ATOM      9  C   UNL     1      -7.222  10.342  61.960  0.00  0.00    -0.023 A 
ATOM     10  C   UNL     1      -8.556  10.516  61.613  0.00  0.00    -0.003 A 
ATOM     11  C   UNL     1      -9.384  11.072  62.582  0.00  0.00    +0.014 A 
BRANCH   9  12
ATOM     12  C   UNL     1      -6.107  10.456  60.994  0.00  0.00    +0.019 C 
ATOM     13  C   UNL     1      -5.966  11.846  60.470  0.00  0.00    +0.004 C 
ATOM     14  C   UNL     1      -4.777  10.053  61.580  0.00  0.00    +0.004 C 
ATOM     15  C   UNL     1      -6.336   9.553  59.788  0.00  0.00    +0.004 C 
ENDBRANCH   9  12
ENDBRANCH   2   6
BRANCH   1  19
ATOM     16  C   UNL     1     -10.169   8.527  68.765  0.00  0.00    +0.073 A 
ATOM     17  C   UNL     1      -9.298   9.608  68.869  0.00  0.00    +0.016 A 
ATOM     18  C   UNL     1      -8.931  10.342  67.745  0.00  0.00    -0.001 A 
ATOM     19  C   UNL     1      -9.596  10.205  66.530  0.00  0.00    -0.004 A 
ATOM     20  C   UNL     1     -10.400   9.079  66.453  0.00  0.00    -0.001 A 
ATOM     21  C   UNL     1     -10.468   8.148  67.461  0.00  0.00    +0.016 A 
BRANCH  16  23
ATOM     22  C   UNL     1      -8.642   6.630  69.357  0.00  0.00    +0.264 C 
ATOM     23  N   UNL     1      -9.826   7.411  69.609  0.00  0.00    -0.178 NA
ATOM     24  O   UNL     1      -8.082   6.902  68.314  0.00  0.00    -0.271 OA
BRANCH  22  27
ATOM     25  C   UNL     1      -8.504   5.202  72.736  0.00  0.00    +0.246 C 
ATOM     26  N   UNL     1      -8.861   5.406  71.394  0.00  0.00    -0.272 N 
ATOM     27  C   UNL     1      -7.824   6.386  70.723  0.00  0.00    +0.154 C 
ATOM     28  C   UNL     1      -6.873   5.204  70.099  0.00  0.00    +0.031 C 
ATOM     29  C   UNL     1      -7.692   4.026  70.003  0.00  0.00    +0.024 C 
ATOM     30  C   UNL     1      -9.020   4.276  70.564  0.00  0.00    +0.094 C 
ATOM     31  O   UNL     1      -7.370   4.896  73.156  0.00  0.00    -0.273 OA
BRANCH  25  32
ATOM     32  C   UNL     1      -9.380   5.791  73.944  0.00  0.00    +0.175 C 
BRANCH  32  33
ATOM     33  C   UNL     1      -9.957   4.319  74.374  0.00  0.00    +0.029 C 
ATOM     34  C   UNL     1     -10.001   4.134  75.805  0.00  0.00    +0.002 C 
ATOM     35  C   UNL     1     -11.199   4.073  73.591  0.00  0.00    +0.002 C 
ENDBRANCH  32  33
BRANCH  32  37
ATOM     36  C   UNL     1     -10.828   7.550  72.877  0.00  0.00    +0.422 C 
ATOM     37  N   UNL     1     -10.611   6.167  73.035  0.00  0.00    -0.161 NA
ATOM     38  O   UNL     1      -9.876   8.384  72.863  0.00  0.00    -0.225 OA
BRANCH  36  40
ATOM     39  C   UNL     1     -12.582   8.665  72.033  0.00  0.00    +0.257 C 
ATOM     40  O   UNL     1     -12.101   8.137  72.822  0.00  0.00    -0.429 OA
ENDBRANCH  36  40
ENDBRANCH  32  37
ENDBRANCH  25  32
ENDBRANCH  22  27
ENDBRANCH  16  23
ENDBRANCH   1  19
BRANCH   3  41
ATOM     41  C   UNL     1     -10.477  13.845  65.705  0.00  0.00    -0.004 A 
ATOM     42  C   UNL     1     -11.593  14.352  66.220  0.00  0.00    -0.001 A 
ATOM     43  C   UNL     1     -11.454  15.174  67.333  0.00  0.00    +0.016 A 
ATOM     44  C   UNL     1     -10.223  15.679  67.738  0.00  0.00    +0.073 A 
ATOM     45  C   UNL     1      -9.140  14.900  67.344  0.00  0.00    +0.016 A 
ATOM     46  C   UNL     1      -9.285  13.923  66.369  0.00  0.00    -0.001 A 
BRANCH  44  47
ATOM     47  N   UNL     1     -10.046  17.082  68.017  0.00  0.00    -0.178 NA
ATOM     48  C   UNL     1      -8.744  17.449  68.371  0.00  0.00    +0.264 C 
ATOM     49  O   UNL     1      -8.102  16.615  69.082  0.00  0.00    -0.271 OA
BRANCH  48  50
ATOM     50  C   UNL     1      -8.438  18.965  68.797  0.00  0.00    +0.154 C 
ATOM     51  N   UNL     1      -6.914  18.823  68.421  0.00  0.00    -0.272 N 
ATOM     52  C   UNL     1      -6.212  19.982  68.764  0.00  0.00    +0.246 C 
ATOM     53  O   UNL     1      -6.512  21.036  68.125  0.00  0.00    -0.273 OA
ATOM     54  C   UNL     1      -6.860  18.209  67.145  0.00  0.00    +0.094 C 
ATOM     55  C   UNL     1      -8.045  18.712  66.403  0.00  0.00    +0.024 C 
ATOM     56  C   UNL     1      -8.805  19.583  67.322  0.00  0.00    +0.031 C 
BRANCH  52  57
ATOM     57  C   UNL     1      -4.614  19.894  68.944  0.00  0.00    +0.175 C 
BRANCH  57  58
ATOM     58  N   UNL     1      -4.430  20.991  67.835  0.00  0.00    -0.161 NA
ATOM     59  C   UNL     1      -3.547  20.837  66.799  0.00  0.00    +0.422 C 
ATOM     60  O   UNL     1      -3.545  19.696  66.274  0.00  0.00    -0.225 OA
BRANCH  59  61
ATOM     61  O   UNL     1      -3.126  21.988  66.119  0.00  0.00    -0.429 OA
ATOM     62  C   UNL     1      -3.303  21.952  64.725  0.00  0.00    +0.257 C 
ENDBRANCH  59  61
ENDBRANCH  57  58
BRANCH  57  63
ATOM     63  C   UNL     1      -4.541  20.894  70.242  0.00  0.00    +0.029 C 
ATOM     64  C   UNL     1      -5.293  20.396  71.366  0.00  0.00    +0.002 C 
ATOM     65  C   UNL     1      -3.090  21.200  70.428  0.00  0.00    +0.002 C 
ENDBRANCH  57  63
ENDBRANCH  52  57
ENDBRANCH  48  50
ENDBRANCH  44  47
ENDBRANCH   3  41
TORSDOF 16
ENDMDL
MODEL 5
REMARK VINA RESULT:      -6.7      3.655      9.681
REMARK  Name = 
REMARK  16 active torsions:
REMARK  status: ('A' for Active; 'I' for Inactive)
REMARK    1  A    between atoms: O_2  and  C_3
REMARK    2  A    between atoms: N_5  and  C_6
REMARK    3  A    between atoms: C_6  and  C_7
REMARK    4  A    between atoms: C_6  and  C_63
REMARK    5  A    between atoms: C_13  and  C_14
REMARK    6  A    between atoms: N_16  and  C_17
REMARK    7  A    between atoms: C_20  and  C_21
REMARK    8  A    between atoms: C_24  and  C_25
REMARK    9  A    between atoms: C_28  and  N_29
REMARK   10  A    between atoms: C_30  and  C_32
REMARK   11  A    between atoms: C_37  and  C_39
REMARK   12  A    between atoms: C_39  and  N_40
REMARK   13  A    between atoms: C_39  and  C_45
REMARK   14  A    between atoms: C_41  and  O_43
REMARK   15  A    between atoms: N_50  and  C_51
REMARK   16  A    between atoms: C_54  and  C_55
REMARK                            x       y       z     vdW  Elec       q    Type
REMARK                         _______ _______ _______ _____ _____    ______ ____
ROOT
ATOM      1  C   UNL     1     -10.135  12.244  67.584  0.00  0.00    +0.096 C 
ATOM      2  N   UNL     1      -9.694  12.284  66.081  0.00  0.00    -0.303 N 
ATOM      3  C   UNL     1     -10.334  13.691  65.743  0.00  0.00    +0.096 C 
ATOM      4  C   UNL     1     -11.753  13.403  66.515  0.00  0.00    +0.026 C 
ATOM      5  C   UNL     1     -11.665  12.034  67.041  0.00  0.00    +0.026 C 
ENDROOT
BRANCH   2   6
ATOM      6  C   UNL     1     -10.008  11.306  65.120  0.00  0.00    +0.048 A 
ATOM      7  C   UNL     1      -9.339  10.092  65.211  0.00  0.00    +0.014 A 
ATOM      8  C   UNL     1      -8.875   9.419  64.087  0.00  0.00    -0.003 A 
ATOM      9  C   UNL     1      -9.113   9.950  62.826  0.00  0.00    -0.023 A 
ATOM     10  C   UNL     1     -10.260  10.731  62.765  0.00  0.00    -0.003 A 
ATOM     11  C   UNL     1     -10.501  11.571  63.847  0.00  0.00    +0.014 A 
BRANCH   9  12
ATOM     12  C   UNL     1      -8.320   9.573  61.635  0.00  0.00    +0.019 C 
ATOM     13  C   UNL     1      -7.354   8.477  61.935  0.00  0.00    +0.004 C 
ATOM     14  C   UNL     1      -9.174   9.123  60.476  0.00  0.00    +0.004 C 
ATOM     15  C   UNL     1      -7.500  10.754  61.130  0.00  0.00    +0.004 C 
ENDBRANCH   9  12
ENDBRANCH   2   6
BRANCH   1  19
ATOM     16  C   UNL     1      -9.884   9.281  70.275  0.00  0.00    +0.073 A 
ATOM     17  C   UNL     1      -8.743   9.943  69.828  0.00  0.00    +0.016 A 
ATOM     18  C   UNL     1      -8.695  10.506  68.556  0.00  0.00    -0.001 A 
ATOM     19  C   UNL     1      -9.840  10.664  67.779  0.00  0.00    -0.004 A 
ATOM     20  C   UNL     1     -10.929   9.934  68.229  0.00  0.00    -0.001 A 
ATOM     21  C   UNL     1     -10.855   9.078  69.300  0.00  0.00    +0.016 A 
BRANCH  16  23
ATOM     22  C   UNL     1     -10.393   7.790  72.223  0.00  0.00    +0.264 C 
ATOM     23  N   UNL     1      -9.613   8.100  71.053  0.00  0.00    -0.178 NA
ATOM     24  O   UNL     1     -11.159   8.672  72.555  0.00  0.00    -0.271 OA
BRANCH  22  27
ATOM     25  C   UNL     1      -9.601   4.292  71.437  0.00  0.00    +0.246 C 
ATOM     26  N   UNL     1      -9.444   5.650  71.757  0.00  0.00    -0.272 N 
ATOM     27  C   UNL     1     -10.833   6.240  72.215  0.00  0.00    +0.154 C 
ATOM     28  C   UNL     1     -10.575   6.021  73.820  0.00  0.00    +0.031 C 
ATOM     29  C   UNL     1      -9.150   5.947  74.001  0.00  0.00    +0.024 C 
ATOM     30  C   UNL     1      -8.465   6.005  72.709  0.00  0.00    +0.094 C 
ATOM     31  O   UNL     1     -10.162   3.431  72.144  0.00  0.00    -0.273 OA
BRANCH  25  32
ATOM     32  C   UNL     1      -9.502   3.762  69.926  0.00  0.00    +0.175 C 
BRANCH  32  33
ATOM     33  C   UNL     1      -8.071   3.006  70.182  0.00  0.00    +0.029 C 
ATOM     34  C   UNL     1      -8.071   1.641  69.710  0.00  0.00    +0.002 C 
ATOM     35  C   UNL     1      -6.989   3.915  69.715  0.00  0.00    +0.002 C 
ENDBRANCH  32  33
BRANCH  32  37
ATOM     36  C   UNL     1      -9.628   5.744  68.382  0.00  0.00    +0.422 C 
ATOM     37  N   UNL     1      -8.864   5.091  69.369  0.00  0.00    -0.161 NA
ATOM     38  O   UNL     1     -10.894   5.715  68.382  0.00  0.00    -0.225 OA
BRANCH  36  40
ATOM     39  C   UNL     1      -8.254   7.072  67.206  0.00  0.00    +0.257 C 
ATOM     40  O   UNL     1      -9.072   6.393  67.270  0.00  0.00    -0.429 OA
ENDBRANCH  36  40
ENDBRANCH  32  37
ENDBRANCH  25  32
ENDBRANCH  22  27
ENDBRANCH  16  23
ENDBRANCH   1  19
BRANCH   3  41
ATOM     41  C   UNL     1      -9.601  14.407  66.978  0.00  0.00    -0.004 A 
ATOM     42  C   UNL     1     -10.193  15.343  67.713  0.00  0.00    -0.001 A 
ATOM     43  C   UNL     1      -9.403  15.997  68.652  0.00  0.00    +0.016 A 
ATOM     44  C   UNL     1      -8.015  15.898  68.657  0.00  0.00    +0.073 A 
ATOM     45  C   UNL     1      -7.534  14.730  68.078  0.00  0.00    +0.016 A 
ATOM     46  C   UNL     1      -8.357  13.937  67.289  0.00  0.00    -0.001 A 
BRANCH  44  47
ATOM     47  N   UNL     1      -7.183  17.074  68.725  0.00  0.00    -0.178 NA
ATOM     48  C   UNL     1      -6.958  17.703  67.497  0.00  0.00    +0.264 C 
ATOM     49  O   UNL     1      -6.827  16.937  66.492  0.00  0.00    -0.271 OA
BRANCH  48  50
ATOM     50  C   UNL     1      -5.973  18.966  67.425  0.00  0.00    +0.154 C 
ATOM     51  N   UNL     1      -6.497  19.367  65.994  0.00  0.00    -0.272 N 
ATOM     52  C   UNL     1      -5.767  20.444  65.485  0.00  0.00    +0.246 C 
ATOM     53  O   UNL     1      -5.888  21.550  66.094  0.00  0.00    -0.273 OA
ATOM     54  C   UNL     1      -7.913  19.320  66.046  0.00  0.00    +0.094 C 
ATOM     55  C   UNL     1      -8.282  19.752  67.420  0.00  0.00    +0.024 C 
ATOM     56  C   UNL     1      -7.026  19.986  68.161  0.00  0.00    +0.031 C 
BRANCH  52  57
ATOM     57  C   UNL     1      -5.771  20.699  63.894  0.00  0.00    +0.175 C 
BRANCH  57  58
ATOM     58  N   UNL     1      -4.431  21.509  64.022  0.00  0.00    -0.161 NA
ATOM     59  C   UNL     1      -3.886  22.185  62.963  0.00  0.00    +0.422 C 
ATOM     60  O   UNL     1      -4.711  22.834  62.273  0.00  0.00    -0.225 OA
BRANCH  59  61
ATOM     61  O   UNL     1      -2.523  22.507  63.021  0.00  0.00    -0.429 OA
ATOM     62  C   UNL     1      -2.229  23.874  62.880  0.00  0.00    +0.257 C 
ENDBRANCH  59  61
ENDBRANCH  57  58
BRANCH  57  63
ATOM     63  C   UNL     1      -5.106  19.253  63.495  0.00  0.00    +0.029 C 
ATOM     64  C   UNL     1      -5.121  19.011  62.075  0.00  0.00    +0.002 C 
ATOM     65  C   UNL     1      -3.799  19.205  64.218  0.00  0.00    +0.002 C 
ENDBRANCH  57  63
ENDBRANCH  52  57
ENDBRANCH  48  50
ENDBRANCH  44  47
ENDBRANCH   3  41
TORSDOF 16
ENDMDL
MODEL 6
REMARK VINA RESULT:      -6.6      3.894      9.657
REMARK  Name = 
REMARK  16 active torsions:
REMARK  status: ('A' for Active; 'I' for Inactive)
REMARK    1  A    between atoms: O_2  and  C_3
REMARK    2  A    between atoms: N_5  and  C_6
REMARK    3  A    between atoms: C_6  and  C_7
REMARK    4  A    between atoms: C_6  and  C_63
REMARK    5  A    between atoms: C_13  and  C_14
REMARK    6  A    between atoms: N_16  and  C_17
REMARK    7  A    between atoms: C_20  and  C_21
REMARK    8  A    between atoms: C_24  and  C_25
REMARK    9  A    between atoms: C_28  and  N_29
REMARK   10  A    between atoms: C_30  and  C_32
REMARK   11  A    between atoms: C_37  and  C_39
REMARK   12  A    between atoms: C_39  and  N_40
REMARK   13  A    between atoms: C_39  and  C_45
REMARK   14  A    between atoms: C_41  and  O_43
REMARK   15  A    between atoms: N_50  and  C_51
REMARK   16  A    between atoms: C_54  and  C_55
REMARK                            x       y       z     vdW  Elec       q    Type
REMARK                         _______ _______ _______ _____ _____    ______ ____
ROOT
ATOM      1  C   UNL     1     -10.388  11.992  66.742  0.00  0.00    +0.096 C 
ATOM      2  N   UNL     1      -9.650  12.116  65.365  0.00  0.00    -0.303 N 
ATOM      3  C   UNL     1     -10.562  13.268  64.776  0.00  0.00    +0.096 C 
ATOM      4  C   UNL     1     -11.981  12.604  65.263  0.00  0.00    +0.026 C 
ATOM      5  C   UNL     1     -11.639  11.334  65.917  0.00  0.00    +0.026 C 
ENDROOT
BRANCH   2   6
ATOM      6  C   UNL     1      -9.460  11.063  64.453  0.00  0.00    +0.048 A 
ATOM      7  C   UNL     1      -8.400  10.198  64.697  0.00  0.00    +0.014 A 
ATOM      8  C   UNL     1      -7.589   9.718  63.676  0.00  0.00    -0.003 A 
ATOM      9  C   UNL     1      -7.859  10.079  62.362  0.00  0.00    -0.023 A 
ATOM     10  C   UNL     1      -9.199  10.362  62.133  0.00  0.00    -0.003 A 
ATOM     11  C   UNL     1      -9.862  11.080  63.122  0.00  0.00    +0.014 A 
BRANCH   9  12
ATOM     12  C   UNL     1      -6.848   9.995  61.285  0.00  0.00    +0.019 C 
ATOM     13  C   UNL     1      -7.333   9.187  60.128  0.00  0.00    +0.004 C 
ATOM     14  C   UNL     1      -6.438  11.347  60.756  0.00  0.00    +0.004 C 
ATOM     15  C   UNL     1      -5.573   9.325  61.784  0.00  0.00    +0.004 C 
ENDBRANCH   9  12
ENDBRANCH   2   6
BRANCH   1  19
ATOM     16  C   UNL     1      -9.803   9.380  69.728  0.00  0.00    +0.073 A 
ATOM     17  C   UNL     1      -8.821  10.305  69.382  0.00  0.00    +0.016 A 
ATOM     18  C   UNL     1      -8.717  10.784  68.080  0.00  0.00    -0.001 A 
ATOM     19  C   UNL     1      -9.719  10.571  67.136  0.00  0.00    -0.004 A 
ATOM     20  C   UNL     1     -10.634   9.595  67.499  0.00  0.00    -0.001 A 
ATOM     21  C   UNL     1     -10.511   8.858  68.652  0.00  0.00    +0.016 A 
BRANCH  16  23
ATOM     22  C   UNL     1     -10.068   8.129  71.882  0.00  0.00    +0.264 C 
ATOM     23  N   UNL     1      -9.358   8.369  70.652  0.00  0.00    -0.178 NA
ATOM     24  O   UNL     1     -10.942   8.940  72.117  0.00  0.00    -0.271 OA
BRANCH  22  27
ATOM     25  C   UNL     1      -8.647   4.760  72.218  0.00  0.00    +0.246 C 
ATOM     26  N   UNL     1      -8.770   6.159  72.242  0.00  0.00    -0.272 N 
ATOM     27  C   UNL     1     -10.292   6.550  72.108  0.00  0.00    +0.154 C 
ATOM     28  C   UNL     1     -10.563   6.682  73.719  0.00  0.00    +0.031 C 
ATOM     29  C   UNL     1      -9.283   6.913  74.334  0.00  0.00    +0.024 C 
ATOM     30  C   UNL     1      -8.216   6.861  73.333  0.00  0.00    +0.094 C 
ATOM     31  O   UNL     1      -9.306   3.953  72.904  0.00  0.00    -0.273 OA
BRANCH  25  32
ATOM     32  C   UNL     1      -7.985   3.990  70.977  0.00  0.00    +0.175 C 
BRANCH  32  33
ATOM     33  C   UNL     1      -9.434   3.588  70.327  0.00  0.00    +0.029 C 
ATOM     34  C   UNL     1      -9.812   4.450  69.232  0.00  0.00    +0.002 C 
ATOM     35  C   UNL     1      -9.437   2.117  70.101  0.00  0.00    +0.002 C 
ENDBRANCH  32  33
BRANCH  32  37
ATOM     36  C   UNL     1      -6.457   2.242  71.946  0.00  0.00    +0.422 C 
ATOM     37  N   UNL     1      -7.797   2.633  71.757  0.00  0.00    -0.161 NA
ATOM     38  O   UNL     1      -5.525   3.084  72.103  0.00  0.00    -0.225 OA
BRANCH  36  40
ATOM     39  C   UNL     1      -6.420   0.078  71.356  0.00  0.00    +0.257 C 
ATOM     40  O   UNL     1      -6.018   0.911  71.882  0.00  0.00    -0.429 OA
ENDBRANCH  36  40
ENDBRANCH  32  37
ENDBRANCH  25  32
ENDBRANCH  22  27
ENDBRANCH  16  23
ENDBRANCH   1  19
BRANCH   3  41
ATOM     41  C   UNL     1     -10.349  14.199  66.066  0.00  0.00    -0.004 A 
ATOM     42  C   UNL     1     -11.359  14.818  66.672  0.00  0.00    -0.001 A 
ATOM     43  C   UNL     1     -11.028  15.718  67.679  0.00  0.00    +0.016 A 
ATOM     44  C   UNL     1      -9.729  16.174  67.875  0.00  0.00    +0.073 A 
ATOM     45  C   UNL     1      -8.752  15.297  67.418  0.00  0.00    +0.016 A 
ATOM     46  C   UNL     1      -9.078  14.253  66.562  0.00  0.00    -0.001 A 
BRANCH  44  47
ATOM     47  N   UNL     1      -9.441  17.581  68.002  0.00  0.00    -0.178 NA
ATOM     48  C   UNL     1      -8.129  17.878  68.380  0.00  0.00    +0.264 C 
ATOM     49  O   UNL     1      -7.593  17.084  69.214  0.00  0.00    -0.271 OA
BRANCH  48  50
ATOM     50  C   UNL     1      -7.709  19.404  68.645  0.00  0.00    +0.154 C 
ATOM     51  N   UNL     1      -6.193  19.100  68.339  0.00  0.00    -0.272 N 
ATOM     52  C   UNL     1      -5.406  20.231  68.574  0.00  0.00    +0.246 C 
ATOM     53  O   UNL     1      -5.603  21.227  67.813  0.00  0.00    -0.273 OA
ATOM     54  C   UNL     1      -6.159  18.343  67.140  0.00  0.00    +0.094 C 
ATOM     55  C   UNL     1      -7.281  18.852  66.309  0.00  0.00    +0.024 C 
ATOM     56  C   UNL     1      -7.988  19.879  67.100  0.00  0.00    +0.031 C 
BRANCH  52  57
ATOM     57  C   UNL     1      -3.825  20.037  68.816  0.00  0.00    +0.175 C 
BRANCH  57  58
ATOM     58  N   UNL     1      -3.525  20.992  67.605  0.00  0.00    -0.161 NA
ATOM     59  C   UNL     1      -2.701  20.622  66.575  0.00  0.00    +0.422 C 
ATOM     60  O   UNL     1      -2.871  19.449  66.160  0.00  0.00    -0.225 OA
BRANCH  59  61
ATOM     61  O   UNL     1      -2.146  21.636  65.782  0.00  0.00    -0.429 OA
ATOM     62  C   UNL     1      -3.061  22.312  64.956  0.00  0.00    +0.257 C 
ENDBRANCH  59  61
ENDBRANCH  57  58
BRANCH  57  63
ATOM     63  C   UNL     1      -3.704  21.162  70.004  0.00  0.00    +0.029 C 
ATOM     64  C   UNL     1      -4.562  20.875  71.125  0.00  0.00    +0.002 C 
ATOM     65  C   UNL     1      -2.239  21.329  70.246  0.00  0.00    +0.002 C 
ENDBRANCH  57  63
ENDBRANCH  52  57
ENDBRANCH  48  50
ENDBRANCH  44  47
ENDBRANCH   3  41
TORSDOF 16
ENDMDL
MODEL 7
REMARK VINA RESULT:      -6.4      3.241     10.289
REMARK  Name = 
REMARK  16 active torsions:
REMARK  status: ('A' for Active; 'I' for Inactive)
REMARK    1  A    between atoms: O_2  and  C_3
REMARK    2  A    between atoms: N_5  and  C_6
REMARK    3  A    between atoms: C_6  and  C_7
REMARK    4  A    between atoms: C_6  and  C_63
REMARK    5  A    between atoms: C_13  and  C_14
REMARK    6  A    between atoms: N_16  and  C_17
REMARK    7  A    between atoms: C_20  and  C_21
REMARK    8  A    between atoms: C_24  and  C_25
REMARK    9  A    between atoms: C_28  and  N_29
REMARK   10  A    between atoms: C_30  and  C_32
REMARK   11  A    between atoms: C_37  and  C_39
REMARK   12  A    between atoms: C_39  and  N_40
REMARK   13  A    between atoms: C_39  and  C_45
REMARK   14  A    between atoms: C_41  and  O_43
REMARK   15  A    between atoms: N_50  and  C_51
REMARK   16  A    between atoms: C_54  and  C_55
REMARK                            x       y       z     vdW  Elec       q    Type
REMARK                         _______ _______ _______ _____ _____    ______ ____
ROOT
ATOM      1  C   UNL     1      -8.269   8.393  66.808  0.00  0.00    +0.096 C 
ATOM      2  N   UNL     1      -8.703   7.914  65.381  0.00  0.00    -0.303 N 
ATOM      3  C   UNL     1      -8.382   6.380  65.602  0.00  0.00    +0.096 C 
ATOM      4  C   UNL     1      -6.938   6.630  66.339  0.00  0.00    +0.026 C 
ATOM      5  C   UNL     1      -6.728   8.084  66.351  0.00  0.00    +0.026 C 
ENDROOT
BRANCH   2   6
ATOM      6  C   UNL     1      -8.180   8.403  64.171  0.00  0.00    +0.048 A 
ATOM      7  C   UNL     1      -8.972   9.292  63.453  0.00  0.00    +0.014 A 
ATOM      8  C   UNL     1      -9.077   9.234  62.069  0.00  0.00    -0.003 A 
ATOM      9  C   UNL     1      -8.346   8.284  61.367  0.00  0.00    -0.023 A 
ATOM     10  C   UNL     1      -7.171   7.910  62.008  0.00  0.00    -0.003 A 
ATOM     11  C   UNL     1      -7.239   7.746  63.387  0.00  0.00    +0.014 A 
BRANCH   9  12
ATOM     12  C   UNL     1      -8.700   7.853  59.996  0.00  0.00    +0.019 C 
ATOM     13  C   UNL     1      -7.644   8.221  59.008  0.00  0.00    +0.004 C 
ATOM     14  C   UNL     1      -8.928   6.366  59.887  0.00  0.00    +0.004 C 
ATOM     15  C   UNL     1      -9.988   8.520  59.531  0.00  0.00    +0.004 C 
ENDBRANCH   9  12
ENDBRANCH   2   6
BRANCH   1  19
ATOM     16  C   UNL     1      -6.935  11.992  67.970  0.00  0.00    +0.073 A 
ATOM     17  C   UNL     1      -8.243  11.595  68.229  0.00  0.00    +0.016 A 
ATOM     18  C   UNL     1      -8.897  10.696  67.392  0.00  0.00    -0.001 A 
ATOM     19  C   UNL     1      -8.215   9.965  66.423  0.00  0.00    -0.004 A 
ATOM     20  C   UNL     1      -6.941  10.440  66.154  0.00  0.00    -0.001 A 
ATOM     21  C   UNL     1      -6.435  11.575  66.741  0.00  0.00    +0.016 A 
BRANCH  16  23
ATOM     22  C   UNL     1      -5.525  13.791  68.997  0.00  0.00    +0.264 C 
ATOM     23  N   UNL     1      -6.678  13.384  68.237  0.00  0.00    -0.178 NA
ATOM     24  O   UNL     1      -4.912  12.869  69.499  0.00  0.00    -0.271 OA
BRANCH  22  27
ATOM     25  C   UNL     1      -5.471  17.335  68.043  0.00  0.00    +0.246 C 
ATOM     26  N   UNL     1      -5.763  16.151  68.737  0.00  0.00    -0.272 N 
ATOM     27  C   UNL     1      -4.772  15.016  68.272  0.00  0.00    +0.154 C 
ATOM     28  C   UNL     1      -3.691  15.245  69.484  0.00  0.00    +0.031 C 
ATOM     29  C   UNL     1      -4.402  15.894  70.552  0.00  0.00    +0.024 C 
ATOM     30  C   UNL     1      -5.778  16.189  70.148  0.00  0.00    +0.094 C 
ATOM     31  O   UNL     1      -4.342  17.851  67.911  0.00  0.00    -0.273 OA
BRANCH  25  32
ATOM     32  C   UNL     1      -6.463  17.931  66.932  0.00  0.00    +0.175 C 
BRANCH  32  33
ATOM     33  C   UNL     1      -6.344  19.461  67.505  0.00  0.00    +0.029 C 
ATOM     34  C   UNL     1      -6.601  20.457  66.492  0.00  0.00    +0.002 C 
ATOM     35  C   UNL     1      -7.117  19.530  68.775  0.00  0.00    +0.002 C 
ENDBRANCH  32  33
BRANCH  32  37
ATOM     36  C   UNL     1      -8.916  17.374  66.935  0.00  0.00    +0.422 C 
ATOM     37  N   UNL     1      -7.774  17.580  67.733  0.00  0.00    -0.161 NA
ATOM     38  O   UNL     1      -8.846  16.872  65.775  0.00  0.00    -0.225 OA
BRANCH  36  40
ATOM     39  C   UNL     1     -10.653  18.753  67.273  0.00  0.00    +0.257 C 
ATOM     40  O   UNL     1     -10.206  17.787  67.300  0.00  0.00    -0.429 OA
ENDBRANCH  36  40
ENDBRANCH  32  37
ENDBRANCH  25  32
ENDBRANCH  22  27
ENDBRANCH  16  23
ENDBRANCH   1  19
BRANCH   3  41
ATOM     41  C   UNL     1      -9.258   6.312  66.945  0.00  0.00    -0.004 A 
ATOM     42  C   UNL     1     -10.499   6.787  67.011  0.00  0.00    -0.001 A 
ATOM     43  C   UNL     1     -11.094   6.812  68.268  0.00  0.00    +0.016 A 
ATOM     44  C   UNL     1     -10.370   6.620  69.440  0.00  0.00    +0.073 A 
ATOM     45  C   UNL     1      -9.209   5.876  69.267  0.00  0.00    +0.016 A 
ATOM     46  C   UNL     1      -8.688   5.657  67.999  0.00  0.00    -0.001 A 
BRANCH  44  47
ATOM     47  N   UNL     1     -10.491   7.532  70.551  0.00  0.00    -0.178 NA
ATOM     48  C   UNL     1     -11.073   8.763  70.236  0.00  0.00    +0.264 C 
ATOM     49  O   UNL     1     -10.780   9.246  69.098  0.00  0.00    -0.271 OA
BRANCH  48  50
ATOM     50  C   UNL     1     -11.179   9.899  71.364  0.00  0.00    +0.154 C 
ATOM     51  N   UNL     1     -12.159  10.763  70.484  0.00  0.00    -0.272 N 
ATOM     52  C   UNL     1     -12.436  11.983  71.107  0.00  0.00    +0.246 C 
ATOM     53  O   UNL     1     -13.086  11.929  72.194  0.00  0.00    -0.273 OA
ATOM     54  C   UNL     1     -13.151   9.882  69.986  0.00  0.00    +0.094 C 
ATOM     55  C   UNL     1     -13.369   8.873  71.056  0.00  0.00    +0.024 C 
ATOM     56  C   UNL     1     -12.425   9.177  72.149  0.00  0.00    +0.031 C 
BRANCH  52  57
ATOM     57  C   UNL     1     -12.981  13.205  70.209  0.00  0.00    +0.175 C 
BRANCH  57  58
ATOM     58  N   UNL     1     -12.759  14.187  71.415  0.00  0.00    -0.161 NA
ATOM     59  C   UNL     1     -13.703  15.106  71.788  0.00  0.00    +0.422 C 
ATOM     60  O   UNL     1     -14.881  14.672  71.806  0.00  0.00    -0.225 OA
BRANCH  59  61
ATOM     61  O   UNL     1     -13.285  16.203  72.555  0.00  0.00    -0.429 OA
ATOM     62  C   UNL     1     -12.732  15.876  73.805  0.00  0.00    +0.257 C 
ENDBRANCH  59  61
ENDBRANCH  57  58
BRANCH  57  63
ATOM     63  C   UNL     1     -11.560  13.490  69.441  0.00  0.00    +0.029 C 
ATOM     64  C   UNL     1     -11.646  13.265  68.021  0.00  0.00    +0.002 C 
ATOM     65  C   UNL     1     -11.104  14.826  69.931  0.00  0.00    +0.002 C 
ENDBRANCH  57  63
ENDBRANCH  52  57
ENDBRANCH  48  50
ENDBRANCH  44  47
ENDBRANCH   3  41
TORSDOF 16
ENDMDL
MODEL 8
REMARK VINA RESULT:      -6.4      5.598     12.578
REMARK  Name = 
REMARK  16 active torsions:
REMARK  status: ('A' for Active; 'I' for Inactive)
REMARK    1  A    between atoms: O_2  and  C_3
REMARK    2  A    between atoms: N_5  and  C_6
REMARK    3  A    between atoms: C_6  and  C_7
REMARK    4  A    between atoms: C_6  and  C_63
REMARK    5  A    between atoms: C_13  and  C_14
REMARK    6  A    between atoms: N_16  and  C_17
REMARK    7  A    between atoms: C_20  and  C_21
REMARK    8  A    between atoms: C_24  and  C_25
REMARK    9  A    between atoms: C_28  and  N_29
REMARK   10  A    between atoms: C_30  and  C_32
REMARK   11  A    between atoms: C_37  and  C_39
REMARK   12  A    between atoms: C_39  and  N_40
REMARK   13  A    between atoms: C_39  and  C_45
REMARK   14  A    between atoms: C_41  and  O_43
REMARK   15  A    between atoms: N_50  and  C_51
REMARK   16  A    between atoms: C_54  and  C_55
REMARK                            x       y       z     vdW  Elec       q    Type
REMARK                         _______ _______ _______ _____ _____    ______ ____
ROOT
ATOM      1  C   UNL     1      -9.125   7.858  68.392  0.00  0.00    +0.096 C 
ATOM      2  N   UNL     1      -9.157   7.906  69.958  0.00  0.00    -0.303 N 
ATOM      3  C   UNL     1      -8.604   9.382  70.103  0.00  0.00    +0.096 C 
ATOM      4  C   UNL     1      -7.416   9.210  68.984  0.00  0.00    +0.026 C 
ATOM      5  C   UNL     1      -7.492   7.822  68.511  0.00  0.00    +0.026 C 
ENDROOT
BRANCH   2   6
ATOM      6  C   UNL     1      -8.498   7.000  70.808  0.00  0.00    +0.048 A 
ATOM      7  C   UNL     1      -9.234   5.912  71.264  0.00  0.00    +0.014 A 
ATOM      8  C   UNL     1      -9.137   5.453  72.572  0.00  0.00    -0.003 A 
ATOM      9  C   UNL     1      -8.256   6.070  73.450  0.00  0.00    -0.023 A 
ATOM     10  C   UNL     1      -7.163   6.650  72.817  0.00  0.00    -0.003 A 
ATOM     11  C   UNL     1      -7.416   7.314  71.622  0.00  0.00    +0.014 A 
BRANCH   9  12
ATOM     12  C   UNL     1      -8.383   5.963  74.921  0.00  0.00    +0.019 C 
ATOM     13  C   UNL     1      -7.804   4.689  75.438  0.00  0.00    +0.004 C 
ATOM     14  C   UNL     1      -7.714   7.099  75.654  0.00  0.00    +0.004 C 
ATOM     15  C   UNL     1      -9.847   5.983  75.344  0.00  0.00    +0.004 C 
ENDBRANCH   9  12
ENDBRANCH   2   6
BRANCH   1  19
ATOM     16  C   UNL     1      -9.609   4.777  65.871  0.00  0.00    +0.073 A 
ATOM     17  C   UNL     1     -10.698   5.344  66.528  0.00  0.00    +0.016 A 
ATOM     18  C   UNL     1     -10.546   5.952  67.770  0.00  0.00    -0.001 A 
ATOM     19  C   UNL     1      -9.291   6.250  68.294  0.00  0.00    -0.004 A 
ATOM     20  C   UNL     1      -8.246   5.610  67.647  0.00  0.00    -0.001 A 
ATOM     21  C   UNL     1      -8.447   4.707  66.631  0.00  0.00    +0.016 A 
BRANCH  16  23
ATOM     22  C   UNL     1      -9.710   3.417  63.769  0.00  0.00    +0.264 C 
ATOM     23  N   UNL     1      -9.910   3.544  65.189  0.00  0.00    -0.178 NA
ATOM     24  O   UNL     1      -9.427   4.460  63.214  0.00  0.00    -0.271 OA
BRANCH  22  27
ATOM     25  C   UNL     1      -9.728  -0.253  63.682  0.00  0.00    +0.246 C 
ATOM     26  N   UNL     1     -10.174   1.078  63.686  0.00  0.00    -0.272 N 
ATOM     27  C   UNL     1      -8.951   2.038  63.426  0.00  0.00    +0.154 C 
ATOM     28  C   UNL     1      -9.186   2.156  61.807  0.00  0.00    +0.031 C 
ATOM     29  C   UNL     1     -10.565   1.830  61.567  0.00  0.00    +0.024 C 
ATOM     30  C   UNL     1     -11.224   1.434  62.813  0.00  0.00    +0.094 C 
ATOM     31  O   UNL     1      -9.010  -0.785  62.812  0.00  0.00    -0.273 OA
BRANCH  25  32
ATOM     32  C   UNL     1      -9.685  -1.135  65.022  0.00  0.00    +0.175 C 
BRANCH  32  33
ATOM     33  C   UNL     1     -11.315  -1.268  65.103  0.00  0.00    +0.029 C 
ATOM     34  C   UNL     1     -11.864  -2.062  64.029  0.00  0.00    +0.002 C 
ATOM     35  C   UNL     1     -11.671  -1.631  66.502  0.00  0.00    +0.002 C 
ENDBRANCH  32  33
BRANCH  32  37
ATOM     36  C   UNL     1      -8.385   0.212  66.702  0.00  0.00    +0.422 C 
ATOM     37  N   UNL     1      -9.593   0.107  65.987  0.00  0.00    -0.161 NA
ATOM     38  O   UNL     1      -7.280  -0.173  66.218  0.00  0.00    -0.225 OA
BRANCH  36  40
ATOM     39  C   UNL     1      -8.552   1.593  68.462  0.00  0.00    +0.257 C 
ATOM     40  O   UNL     1      -8.302   0.652  68.031  0.00  0.00    -0.429 OA
ENDBRANCH  36  40
ENDBRANCH  32  37
ENDBRANCH  25  32
ENDBRANCH  22  27
ENDBRANCH  16  23
ENDBRANCH   1  19
BRANCH   3  41
ATOM     41  C   UNL     1      -9.708   9.976  69.101  0.00  0.00    -0.004 A 
ATOM     42  C   UNL     1      -9.472  10.152  67.804  0.00  0.00    -0.001 A 
ATOM     43  C   UNL     1     -10.450  10.818  67.074  0.00  0.00    +0.016 A 
ATOM     44  C   UNL     1     -11.491  11.513  67.682  0.00  0.00    +0.073 A 
ATOM     45  C   UNL     1     -11.808  11.049  68.953  0.00  0.00    +0.016 A 
ATOM     46  C   UNL     1     -10.940  10.212  69.641  0.00  0.00    -0.001 A 
BRANCH  44  47
ATOM     47  N   UNL     1     -11.807  12.867  67.301  0.00  0.00    -0.178 NA
ATOM     48  C   UNL     1     -10.807  13.802  67.580  0.00  0.00    +0.264 C 
ATOM     49  O   UNL     1     -10.158  13.623  68.657  0.00  0.00    -0.271 OA
BRANCH  48  50
ATOM     50  C   UNL     1     -11.074  15.357  67.289  0.00  0.00    +0.154 C 
ATOM     51  N   UNL     1      -9.532  15.665  67.198  0.00  0.00    -0.272 N 
ATOM     52  C   UNL     1      -9.311  17.036  67.044  0.00  0.00    +0.246 C 
ATOM     53  O   UNL     1      -9.717  17.558  65.962  0.00  0.00    -0.273 OA
ATOM     54  C   UNL     1      -8.962  14.670  66.364  0.00  0.00    +0.094 C 
ATOM     55  C   UNL     1      -9.997  14.355  65.345  0.00  0.00    +0.024 C 
ATOM     56  C   UNL     1     -11.192  15.160  65.665  0.00  0.00    +0.031 C 
BRANCH  52  57
ATOM     57  C   UNL     1      -7.864  17.635  67.425  0.00  0.00    +0.175 C 
BRANCH  57  58
ATOM     58  N   UNL     1      -7.644  18.051  65.927  0.00  0.00    -0.161 NA
ATOM     59  C   UNL     1      -6.394  18.254  65.405  0.00  0.00    +0.422 C 
ATOM     60  O   UNL     1      -5.540  17.396  65.738  0.00  0.00    -0.225 OA
BRANCH  59  61
ATOM     61  O   UNL     1      -6.287  19.020  64.235  0.00  0.00    -0.429 OA
ATOM     62  C   UNL     1      -6.214  20.409  64.441  0.00  0.00    +0.257 C 
ENDBRANCH  59  61
ENDBRANCH  57  58
BRANCH  57  63
ATOM     63  C   UNL     1      -8.423  19.080  67.965  0.00  0.00    +0.029 C 
ATOM     64  C   UNL     1      -9.671  18.959  68.675  0.00  0.00    +0.002 C 
ATOM     65  C   UNL     1      -7.264  19.722  68.655  0.00  0.00    +0.002 C 
ENDBRANCH  57  63
ENDBRANCH  52  57
ENDBRANCH  48  50
ENDBRANCH  44  47
ENDBRANCH   3  41
TORSDOF 16
ENDMDL
MODEL 9
REMARK VINA RESULT:      -6.4      4.056     11.933
REMARK  Name = 
REMARK  16 active torsions:
REMARK  status: ('A' for Active; 'I' for Inactive)
REMARK    1  A    between atoms: O_2  and  C_3
REMARK    2  A    between atoms: N_5  and  C_6
REMARK    3  A    between atoms: C_6  and  C_7
REMARK    4  A    between atoms: C_6  and  C_63
REMARK    5  A    between atoms: C_13  and  C_14
REMARK    6  A    between atoms: N_16  and  C_17
REMARK    7  A    between atoms: C_20  and  C_21
REMARK    8  A    between atoms: C_24  and  C_25
REMARK    9  A    between atoms: C_28  and  N_29
REMARK   10  A    between atoms: C_30  and  C_32
REMARK   11  A    between atoms: C_37  and  C_39
REMARK   12  A    between atoms: C_39  and  N_40
REMARK   13  A    between atoms: C_39  and  C_45
REMARK   14  A    between atoms: C_41  and  O_43
REMARK   15  A    between atoms: N_50  and  C_51
REMARK   16  A    between atoms: C_54  and  C_55
REMARK                            x       y       z     vdW  Elec       q    Type
REMARK                         _______ _______ _______ _____ _____    ______ ____
ROOT
ATOM      1  C   UNL     1      -8.920   6.565  69.484  0.00  0.00    +0.096 C 
ATOM      2  N   UNL     1      -8.384   6.325  70.936  0.00  0.00    -0.303 N 
ATOM      3  C   UNL     1      -9.126   4.948  71.176  0.00  0.00    +0.096 C 
ATOM      4  C   UNL     1     -10.562   5.437  70.550  0.00  0.00    +0.026 C 
ATOM      5  C   UNL     1     -10.385   6.843  70.162  0.00  0.00    +0.026 C 
ENDROOT
BRANCH   2   6
ATOM      6  C   UNL     1      -8.541   7.214  72.014  0.00  0.00    +0.048 A 
ATOM      7  C   UNL     1      -7.508   8.115  72.246  0.00  0.00    +0.014 A 
ATOM      8  C   UNL     1      -7.076   8.426  73.530  0.00  0.00    -0.003 A 
ATOM      9  C   UNL     1      -7.712   7.852  74.623  0.00  0.00    -0.023 A 
ATOM     10  C   UNL     1      -9.040   7.526  74.379  0.00  0.00    -0.003 A 
ATOM     11  C   UNL     1      -9.328   6.976  73.135  0.00  0.00    +0.014 A 
BRANCH   9  12
ATOM     12  C   UNL     1      -7.083   7.764  75.960  0.00  0.00    +0.019 C 
ATOM     13  C   UNL     1      -5.744   7.108  75.903  0.00  0.00    +0.004 C 
ATOM     14  C   UNL     1      -6.904   9.110  76.616  0.00  0.00    +0.004 C 
ATOM     15  C   UNL     1      -7.938   6.934  76.910  0.00  0.00    +0.004 C 
ENDBRANCH   9  12
ENDBRANCH   2   6
BRANCH   1  19
ATOM     16  C   UNL     1      -9.563  10.057  67.620  0.00  0.00    +0.073 A 
ATOM     17  C   UNL     1      -8.490   9.243  67.268  0.00  0.00    +0.016 A 
ATOM     18  C   UNL     1      -7.900   8.395  68.200  0.00  0.00    -0.001 A 
ATOM     19  C   UNL     1      -8.495   8.127  69.430  0.00  0.00    -0.004 A 
ATOM     20  C   UNL     1      -9.515   9.004  69.764  0.00  0.00    -0.001 A 
ATOM     21  C   UNL     1      -9.848  10.083  68.981  0.00  0.00    +0.016 A 
BRANCH  16  23
ATOM     22  C   UNL     1     -10.722  11.987  66.521  0.00  0.00    +0.264 C 
ATOM     23  N   UNL     1      -9.524  11.370  67.030  0.00  0.00    -0.178 NA
ATOM     24  O   UNL     1     -11.688  11.251  66.499  0.00  0.00    -0.271 OA
BRANCH  22  27
ATOM     25  C   UNL     1      -9.729  15.502  66.150  0.00  0.00    +0.246 C 
ATOM     26  N   UNL     1     -10.000  14.159  65.845  0.00  0.00    -0.272 N 
ATOM     27  C   UNL     1     -10.829  13.515  67.021  0.00  0.00    +0.154 C 
ATOM     28  C   UNL     1     -12.298  13.776  66.340  0.00  0.00    +0.031 C 
ATOM     29  C   UNL     1     -12.076  13.918  64.926  0.00  0.00    +0.024 C 
ATOM     30  C   UNL     1     -10.644  13.868  64.624  0.00  0.00    +0.094 C 
ATOM     31  O   UNL     1     -10.559  16.350  66.536  0.00  0.00    -0.273 OA
BRANCH  25  32
ATOM     32  C   UNL     1      -8.247  16.008  66.500  0.00  0.00    +0.175 C 
BRANCH  32  33
ATOM     33  C   UNL     1      -8.088  14.977  67.764  0.00  0.00    +0.029 C 
ATOM     34  C   UNL     1      -6.914  14.144  67.658  0.00  0.00    +0.002 C 
ATOM     35  C   UNL     1      -8.290  15.759  69.014  0.00  0.00    +0.002 C 
ENDBRANCH  32  33
BRANCH  32  37
ATOM     36  C   UNL     1      -8.235  18.481  66.964  0.00  0.00    +0.422 C 
ATOM     37  N   UNL     1      -8.734  17.228  67.371  0.00  0.00    -0.161 NA
ATOM     38  O   UNL     1      -7.999  18.749  65.750  0.00  0.00    -0.225 OA
BRANCH  36  40
ATOM     39  C   UNL     1      -7.170  19.488  68.662  0.00  0.00    +0.257 C 
ATOM     40  O   UNL     1      -7.864  19.499  67.855  0.00  0.00    -0.429 OA
ENDBRANCH  36  40
ENDBRANCH  32  37
ENDBRANCH  25  32
ENDBRANCH  22  27
ENDBRANCH  16  23
ENDBRANCH   1  19
BRANCH   3  41
ATOM     41  C   UNL     1      -8.547   4.312  69.821  0.00  0.00    -0.004 A 
ATOM     42  C   UNL     1      -7.359   4.648  69.328  0.00  0.00    -0.001 A 
ATOM     43  C   UNL     1      -7.038   4.149  68.070  0.00  0.00    +0.016 A 
ATOM     44  C   UNL     1      -7.985   3.563  67.236  0.00  0.00    +0.073 A 
ATOM     45  C   UNL     1      -9.068   3.016  67.915  0.00  0.00    +0.016 A 
ATOM     46  C   UNL     1      -9.310   3.337  69.244  0.00  0.00    -0.001 A 
BRANCH  44  47
ATOM     47  N   UNL     1      -8.118   3.966  65.858  0.00  0.00    -0.178 NA
ATOM     48  C   UNL     1      -8.415   5.318  65.670  0.00  0.00    +0.264 C 
ATOM     49  O   UNL     1      -9.198   5.843  66.521  0.00  0.00    -0.271 OA
BRANCH  48  50
ATOM     50  C   UNL     1      -8.679   5.871  64.187  0.00  0.00    +0.154 C 
ATOM     51  N   UNL     1      -7.944   7.229  64.500  0.00  0.00    -0.272 N 
ATOM     52  C   UNL     1      -8.047   8.106  63.417  0.00  0.00    +0.246 C 
ATOM     53  O   UNL     1      -7.454   7.761  62.350  0.00  0.00    -0.273 OA
ATOM     54  C   UNL     1      -6.725   6.899  65.142  0.00  0.00    +0.094 C 
ATOM     55  C   UNL     1      -6.278   5.621  64.530  0.00  0.00    +0.024 C 
ATOM     56  C   UNL     1      -7.315   5.208  63.563  0.00  0.00    +0.031 C 
BRANCH  52  57
ATOM     57  C   UNL     1      -7.828   9.682  63.673  0.00  0.00    +0.175 C 
BRANCH  57  58
ATOM     58  N   UNL     1      -6.577   9.660  62.724  0.00  0.00    -0.161 NA
ATOM     59  C   UNL     1      -5.355  10.137  63.120  0.00  0.00    +0.422 C 
ATOM     60  O   UNL     1      -5.014   9.805  64.282  0.00  0.00    -0.225 OA
BRANCH  59  61
ATOM     61  O   UNL     1      -4.431  10.482  62.125  0.00  0.00    -0.429 OA
ATOM     62  C   UNL     1      -4.557  11.791  61.626  0.00  0.00    +0.257 C 
ENDBRANCH  59  61
ENDBRANCH  57  58
BRANCH  57  63
ATOM     63  C   UNL     1      -8.926  10.181  62.561  0.00  0.00    +0.029 C 
ATOM     64  C   UNL     1     -10.132  10.688  63.165  0.00  0.00    +0.002 C 
ATOM     65  C   UNL     1      -8.169  11.063  61.622  0.00  0.00    +0.002 C 
ENDBRANCH  57  63
ENDBRANCH  52  57
ENDBRANCH  48  50
ENDBRANCH  44  47
ENDBRANCH   3  41
TORSDOF 16
ENDMDL
