MODEL 1
REMARK VINA RESULT:      -7.1      0.000      0.000
REMARK  Name = 
REMARK  3 active torsions:
REMARK  status: ('A' for Active; 'I' for Inactive)
REMARK    1  A    between atoms: C_21  and  C_23
REMARK    2  A    between atoms: C_23  and  O_25
REMARK    3  A    between atoms: O_25  and  C_26
REMARK                            x       y       z     vdW  Elec       q    Type
REMARK                         _______ _______ _______ _____ _____    ______ ____
ROOT
ATOM      1  C   UNL     1     -11.891  14.826  67.975  0.00  0.00    +0.003 C 
ATOM      2  C   UNL     1     -10.433  14.513  67.754  0.00  0.00    +0.038 C 
ATOM      3  C   UNL     1     -10.379  13.167  67.338  0.00  0.00    +0.215 C 
ATOM      4  O   UNL     1      -9.140  12.524  67.241  0.00  0.00    -0.214 OA
ATOM      5  C   UNL     1     -11.025  13.226  65.940  0.00  0.00    +0.041 C 
ATOM      6  C   UNL     1     -11.431  14.702  65.739  0.00  0.00    +0.003 C 
ATOM      7  C   UNL     1      -9.982  15.134  66.318  0.00  0.00    +0.003 C 
ATOM      8  C   UNL     1     -10.343  16.665  66.912  0.00  0.00    +0.003 C 
ATOM      9  C   UNL     1     -10.440  17.477  65.530  0.00  0.00    +0.004 C 
ATOM     10  C   UNL     1     -10.421  18.900  66.103  0.00  0.00    +0.022 C 
ATOM     11  C   UNL     1      -9.318  19.143  67.061  0.00  0.00    -0.038 C 
ATOM     12  C   UNL     1      -8.895  18.119  68.099  0.00  0.00    +0.036 C 
ATOM     13  C   UNL     1     -10.022  17.917  68.982  0.00  0.00    +0.009 C 
ATOM     14  C   UNL     1      -7.734  18.606  68.735  0.00  0.00    -0.020 C 
ATOM     15  C   UNL     1      -6.834  19.493  68.462  0.00  0.00    +0.038 C 
ATOM     16  C   UNL     1      -7.212  20.336  67.324  0.00  0.00    +0.195 C 
ATOM     17  O   UNL     1      -6.712  21.505  67.294  0.00  0.00    -0.287 OA
ATOM     18  C   UNL     1      -8.336  19.898  66.551  0.00  0.00    +0.034 C 
ATOM     19  C   UNL     1      -8.688  16.991  66.998  0.00  0.00    +0.038 C 
ATOM     20  C   UNL     1      -8.222  15.606  67.883  0.00  0.00    +0.153 C 
ATOM     21  O   UNL     1      -7.645  16.309  69.085  0.00  0.00    -0.223 OA
ATOM     22  C   UNL     1      -9.636  15.303  68.658  0.00  0.00    +0.036 C 
ENDROOT
BRANCH   3  23
ATOM     23  C   UNL     1     -11.312  12.194  68.014  0.00  0.00    +0.346 C 
ATOM     24  O   UNL     1     -11.968  11.368  67.301  0.00  0.00    -0.247 OA
BRANCH  23  25
ATOM     25  O   UNL     1     -10.936  11.609  69.231  0.00  0.00    -0.429 OA
BRANCH  25  26
ATOM     26  C   UNL     1     -11.812  11.297  70.283  0.00  0.00    +0.304 C 
ATOM     27 CL   UNL     1     -12.527  12.803  70.948  0.00  0.00    -0.063 Cl
ENDBRANCH  25  26
ENDBRANCH  23  25
ENDBRANCH   3  23
TORSDOF 3
ENDMDL
MODEL 2
REMARK VINA RESULT:      -7.0      2.783      4.034
REMARK  Name = 
REMARK  3 active torsions:
REMARK  status: ('A' for Active; 'I' for Inactive)
REMARK    1  A    between atoms: C_21  and  C_23
REMARK    2  A    between atoms: C_23  and  O_25
REMARK    3  A    between atoms: O_25  and  C_26
REMARK                            x       y       z     vdW  Elec       q    Type
REMARK                         _______ _______ _______ _____ _____    ______ ____
ROOT
ATOM      1  C   UNL     1      -8.790  12.494  66.533  0.00  0.00    +0.003 C 
ATOM      2  C   UNL     1     -10.148  13.016  66.137  0.00  0.00    +0.038 C 
ATOM      3  C   UNL     1     -10.974  11.884  65.982  0.00  0.00    +0.215 C 
ATOM      4  O   UNL     1     -12.249  12.031  65.427  0.00  0.00    -0.214 OA
ATOM      5  C   UNL     1     -11.112  11.375  67.430  0.00  0.00    +0.041 C 
ATOM      6  C   UNL     1     -10.250  12.331  68.283  0.00  0.00    +0.003 C 
ATOM      7  C   UNL     1     -10.898  13.571  67.470  0.00  0.00    +0.003 C 
ATOM      8  C   UNL     1      -9.673  14.710  67.638  0.00  0.00    +0.003 C 
ATOM      9  C   UNL     1      -9.895  15.125  69.173  0.00  0.00    +0.004 C 
ATOM     10  C   UNL     1      -9.016  16.383  69.194  0.00  0.00    +0.022 C 
ATOM     11  C   UNL     1      -9.304  17.331  68.093  0.00  0.00    -0.038 C 
ATOM     12  C   UNL     1      -9.587  16.874  66.673  0.00  0.00    +0.036 C 
ATOM     13  C   UNL     1      -8.396  16.208  66.195  0.00  0.00    +0.009 C 
ATOM     14  C   UNL     1      -9.964  18.008  65.924  0.00  0.00    -0.020 C 
ATOM     15  C   UNL     1     -10.394  19.195  66.198  0.00  0.00    +0.038 C 
ATOM     16  C   UNL     1     -10.272  19.515  67.623  0.00  0.00    +0.195 C 
ATOM     17  O   UNL     1     -10.158  20.746  67.921  0.00  0.00    -0.287 OA
ATOM     18  C   UNL     1      -9.967  18.422  68.498  0.00  0.00    +0.034 C 
ATOM     19  C   UNL     1     -10.758  15.908  67.147  0.00  0.00    +0.038 C 
ATOM     20  C   UNL     1     -11.303  15.158  65.712  0.00  0.00    +0.153 C 
ATOM     21  O   UNL     1     -10.871  16.224  64.740  0.00  0.00    -0.223 OA
ATOM     22  C   UNL     1      -9.987  14.234  65.383  0.00  0.00    +0.036 C 
ENDROOT
BRANCH   3  23
ATOM     23  C   UNL     1     -10.366  10.664  65.336  0.00  0.00    +0.346 C 
ATOM     24  O   UNL     1     -10.445   9.543  65.934  0.00  0.00    -0.247 OA
BRANCH  23  25
ATOM     25  O   UNL     1     -10.469  10.495  63.948  0.00  0.00    -0.429 OA
BRANCH  25  26
ATOM     26  C   UNL     1      -9.468  10.818  63.018  0.00  0.00    +0.304 C 
ATOM     27 CL   UNL     1      -7.896  10.138  63.552  0.00  0.00    -0.063 Cl
ENDBRANCH  25  26
ENDBRANCH  23  25
ENDBRANCH   3  23
TORSDOF 3
ENDMDL
MODEL 3
REMARK VINA RESULT:      -6.7      2.253      3.533
REMARK  Name = 
REMARK  3 active torsions:
REMARK  status: ('A' for Active; 'I' for Inactive)
REMARK    1  A    between atoms: C_21  and  C_23
REMARK    2  A    between atoms: C_23  and  O_25
REMARK    3  A    between atoms: O_25  and  C_26
REMARK                            x       y       z     vdW  Elec       q    Type
REMARK                         _______ _______ _______ _____ _____    ______ ____
ROOT
ATOM      1  C   UNL     1      -9.249  13.376  66.486  0.00  0.00    +0.003 C 
ATOM      2  C   UNL     1     -10.263  14.476  66.665  0.00  0.00    +0.038 C 
ATOM      3  C   UNL     1     -11.514  13.841  66.800  0.00  0.00    +0.215 C 
ATOM      4  O   UNL     1     -12.683  14.608  66.787  0.00  0.00    -0.214 OA
ATOM      5  C   UNL     1     -11.384  13.145  68.170  0.00  0.00    +0.041 C 
ATOM      6  C   UNL     1      -9.955  13.466  68.657  0.00  0.00    +0.003 C 
ATOM      7  C   UNL     1     -10.191  15.002  68.203  0.00  0.00    +0.003 C 
ATOM      8  C   UNL     1      -8.603  15.477  67.925  0.00  0.00    +0.003 C 
ATOM      9  C   UNL     1      -8.092  15.620  69.441  0.00  0.00    +0.004 C 
ATOM     10  C   UNL     1      -6.784  16.375  69.167  0.00  0.00    +0.022 C 
ATOM     11  C   UNL     1      -6.951  17.562  68.297  0.00  0.00    -0.038 C 
ATOM     12  C   UNL     1      -7.860  17.565  67.081  0.00  0.00    +0.036 C 
ATOM     13  C   UNL     1      -7.337  16.584  66.156  0.00  0.00    +0.009 C 
ATOM     14  C   UNL     1      -7.900  18.882  66.578  0.00  0.00    -0.020 C 
ATOM     15  C   UNL     1      -7.623  20.057  67.040  0.00  0.00    +0.038 C 
ATOM     16  C   UNL     1      -6.907  19.996  68.317  0.00  0.00    +0.195 C 
ATOM     17  O   UNL     1      -6.153  20.983  68.593  0.00  0.00    -0.287 OA
ATOM     18  C   UNL     1      -6.866  18.720  68.966  0.00  0.00    +0.034 C 
ATOM     19  C   UNL     1      -9.113  17.088  67.936  0.00  0.00    +0.038 C 
ATOM     20  C   UNL     1     -10.379  16.940  66.797  0.00  0.00    +0.153 C 
ATOM     21  O   UNL     1      -9.854  17.913  65.773  0.00  0.00    -0.223 OA
ATOM     22  C   UNL     1      -9.822  15.649  65.952  0.00  0.00    +0.036 C 
ENDROOT
BRANCH   3  23
ATOM     23  C   UNL     1     -11.781  12.641  65.926  0.00  0.00    +0.346 C 
ATOM     24  O   UNL     1     -11.978  11.508  66.472  0.00  0.00    -0.247 OA
BRANCH  23  25
ATOM     25  O   UNL     1     -12.579  12.785  64.782  0.00  0.00    -0.429 OA
BRANCH  25  26
ATOM     26  C   UNL     1     -12.094  12.928  63.471  0.00  0.00    +0.304 C 
ATOM     27 CL   UNL     1     -10.549  12.033  63.291  0.00  0.00    -0.063 Cl
ENDBRANCH  25  26
ENDBRANCH  23  25
ENDBRANCH   3  23
TORSDOF 3
ENDMDL
MODEL 4
REMARK VINA RESULT:      -6.7      2.925      7.019
REMARK  Name = 
REMARK  3 active torsions:
REMARK  status: ('A' for Active; 'I' for Inactive)
REMARK    1  A    between atoms: C_21  and  C_23
REMARK    2  A    between atoms: C_23  and  O_25
REMARK    3  A    between atoms: O_25  and  C_26
REMARK                            x       y       z     vdW  Elec       q    Type
REMARK                         _______ _______ _______ _____ _____    ______ ____
ROOT
ATOM      1  C   UNL     1      -9.968  18.043  66.555  0.00  0.00    +0.003 C 
ATOM      2  C   UNL     1      -8.863  17.123  67.009  0.00  0.00    +0.038 C 
ATOM      3  C   UNL     1      -7.698  17.913  67.079  0.00  0.00    +0.215 C 
ATOM      4  O   UNL     1      -6.459  17.298  67.285  0.00  0.00    -0.214 OA
ATOM      5  C   UNL     1      -8.002  18.843  68.270  0.00  0.00    +0.041 C 
ATOM      6  C   UNL     1      -9.423  18.461  68.735  0.00  0.00    +0.003 C 
ATOM      7  C   UNL     1      -8.998  16.905  68.616  0.00  0.00    +0.003 C 
ATOM      8  C   UNL     1     -10.504  16.204  68.355  0.00  0.00    +0.003 C 
ATOM      9  C   UNL     1     -11.110  16.303  69.838  0.00  0.00    +0.004 C 
ATOM     10  C   UNL     1     -12.310  15.364  69.653  0.00  0.00    +0.022 C 
ATOM     11  C   UNL     1     -11.958  14.056  69.054  0.00  0.00    -0.038 C 
ATOM     12  C   UNL     1     -10.963  13.919  67.914  0.00  0.00    +0.036 C 
ATOM     13  C   UNL     1     -11.512  14.633  66.783  0.00  0.00    +0.009 C 
ATOM     14  C   UNL     1     -10.751  12.543  67.692  0.00  0.00    -0.020 C 
ATOM     15  C   UNL     1     -10.941  11.458  68.367  0.00  0.00    +0.038 C 
ATOM     16  C   UNL     1     -11.754  11.685  69.566  0.00  0.00    +0.195 C 
ATOM     17  O   UNL     1     -12.422  10.691  69.995  0.00  0.00    -0.287 OA
ATOM     18  C   UNL     1     -11.974  13.050  69.939  0.00  0.00    +0.034 C 
ATOM     19  C   UNL     1      -9.833  14.696  68.720  0.00  0.00    +0.038 C 
ATOM     20  C   UNL     1      -8.507  14.762  67.645  0.00  0.00    +0.153 C 
ATOM     21  O   UNL     1      -8.851  13.554  66.813  0.00  0.00    -0.223 OA
ATOM     22  C   UNL     1      -9.128  15.790  66.527  0.00  0.00    +0.036 C 
ENDROOT
BRANCH   3  23
ATOM     23  C   UNL     1      -7.489  18.940  65.995  0.00  0.00    +0.346 C 
ATOM     24  O   UNL     1      -7.252  20.147  66.323  0.00  0.00    -0.247 OA
BRANCH  23  25
ATOM     25  O   UNL     1      -6.774  18.590  64.841  0.00  0.00    -0.429 OA
BRANCH  25  26
ATOM     26  C   UNL     1      -5.558  19.165  64.438  0.00  0.00    +0.304 C 
ATOM     27 CL   UNL     1      -5.661  19.666  62.718  0.00  0.00    -0.063 Cl
ENDBRANCH  25  26
ENDBRANCH  23  25
ENDBRANCH   3  23
TORSDOF 3
ENDMDL
MODEL 5
REMARK VINA RESULT:      -6.6      2.935      7.781
REMARK  Name = 
REMARK  3 active torsions:
REMARK  status: ('A' for Active; 'I' for Inactive)
REMARK    1  A    between atoms: C_21  and  C_23
REMARK    2  A    between atoms: C_23  and  O_25
REMARK    3  A    between atoms: O_25  and  C_26
REMARK                            x       y       z     vdW  Elec       q    Type
REMARK                         _______ _______ _______ _____ _____    ______ ____
ROOT
ATOM      1  C   UNL     1      -8.960  13.259  66.553  0.00  0.00    +0.003 C 
ATOM      2  C   UNL     1     -10.394  13.096  66.986  0.00  0.00    +0.038 C 
ATOM      3  C   UNL     1     -11.123  14.100  66.319  0.00  0.00    +0.215 C 
ATOM      4  O   UNL     1     -12.458  14.331  66.666  0.00  0.00    -0.214 OA
ATOM      5  C   UNL     1     -11.059  13.634  64.851  0.00  0.00    +0.041 C 
ATOM      6  C   UNL     1     -10.205  12.348  64.867  0.00  0.00    +0.003 C 
ATOM      7  C   UNL     1     -11.047  11.856  66.158  0.00  0.00    +0.003 C 
ATOM      8  C   UNL     1      -9.922  10.834  66.876  0.00  0.00    +0.003 C 
ATOM      9  C   UNL     1     -10.018   9.580  65.879  0.00  0.00    +0.004 C 
ATOM     10  C   UNL     1      -9.262   8.554  66.734  0.00  0.00    +0.022 C 
ATOM     11  C   UNL     1      -9.751   8.465  68.129  0.00  0.00    -0.038 C 
ATOM     12  C   UNL     1     -10.139   9.689  68.941  0.00  0.00    +0.036 C 
ATOM     13  C   UNL     1      -8.949  10.496  69.088  0.00  0.00    +0.009 C 
ATOM     14  C   UNL     1     -10.697   9.240  70.156  0.00  0.00    -0.020 C 
ATOM     15  C   UNL     1     -11.204   8.132  70.586  0.00  0.00    +0.038 C 
ATOM     16  C   UNL     1     -10.962   7.016  69.667  0.00  0.00    +0.195 C 
ATOM     17  O   UNL     1     -10.932   5.854  70.181  0.00  0.00    -0.287 OA
ATOM     18  C   UNL     1     -10.466   7.357  68.367  0.00  0.00    +0.034 C 
ATOM     19  C   UNL     1     -11.159  10.185  67.826  0.00  0.00    +0.038 C 
ATOM     20  C   UNL     1     -11.781  11.655  68.437  0.00  0.00    +0.153 C 
ATOM     21  O   UNL     1     -11.555  11.386  69.902  0.00  0.00    -0.223 OA
ATOM     22  C   UNL     1     -10.427  12.576  68.331  0.00  0.00    +0.036 C 
ENDROOT
BRANCH   3  23
ATOM     23  C   UNL     1     -10.477  15.456  66.188  0.00  0.00    +0.346 C 
ATOM     24  O   UNL     1     -10.388  15.991  65.036  0.00  0.00    -0.247 OA
BRANCH  23  25
ATOM     25  O   UNL     1     -10.709  16.429  67.170  0.00  0.00    -0.429 OA
BRANCH  25  26
ATOM     26  C   UNL     1     -10.193  16.400  68.476  0.00  0.00    +0.304 C 
ATOM     27 CL   UNL     1     -11.492  15.971  69.637  0.00  0.00    -0.063 Cl
ENDBRANCH  25  26
ENDBRANCH  23  25
ENDBRANCH   3  23
TORSDOF 3
ENDMDL
MODEL 6
REMARK VINA RESULT:      -6.5      3.114      5.042
REMARK  Name = 
REMARK  3 active torsions:
REMARK  status: ('A' for Active; 'I' for Inactive)
REMARK    1  A    between atoms: C_21  and  C_23
REMARK    2  A    between atoms: C_23  and  O_25
REMARK    3  A    between atoms: O_25  and  C_26
REMARK                            x       y       z     vdW  Elec       q    Type
REMARK                         _______ _______ _______ _____ _____    ______ ____
ROOT
ATOM      1  C   UNL     1     -11.201   9.668  68.413  0.00  0.00    +0.003 C 
ATOM      2  C   UNL     1      -9.865  10.352  68.276  0.00  0.00    +0.038 C 
ATOM      3  C   UNL     1      -8.891   9.369  68.540  0.00  0.00    +0.215 C 
ATOM      4  O   UNL     1      -7.551   9.745  68.681  0.00  0.00    -0.214 OA
ATOM      5  C   UNL     1      -9.025   8.435  67.322  0.00  0.00    +0.041 C 
ATOM      6  C   UNL     1     -10.172   9.029  66.475  0.00  0.00    +0.003 C 
ATOM      7  C   UNL     1      -9.516  10.493  66.693  0.00  0.00    +0.003 C 
ATOM      8  C   UNL     1     -10.880  11.459  66.517  0.00  0.00    +0.003 C 
ATOM      9  C   UNL     1     -11.068  11.377  64.925  0.00  0.00    +0.004 C 
ATOM     10  C   UNL     1     -12.079  12.520  64.759  0.00  0.00    +0.022 C 
ATOM     11  C   UNL     1     -11.668  13.780  65.420  0.00  0.00    -0.038 C 
ATOM     12  C   UNL     1     -11.013  13.811  66.790  0.00  0.00    +0.036 C 
ATOM     13  C   UNL     1     -11.970  13.274  67.731  0.00  0.00    +0.009 C 
ATOM     14  C   UNL     1     -10.620  15.140  67.048  0.00  0.00    -0.020 C 
ATOM     15  C   UNL     1     -10.416  16.199  66.336  0.00  0.00    +0.038 C 
ATOM     16  C   UNL     1     -10.900  16.045  64.961  0.00  0.00    +0.195 C 
ATOM     17  O   UNL     1     -11.232  17.111  64.353  0.00  0.00    -0.287 OA
ATOM     18  C   UNL     1     -11.258  14.718  64.555  0.00  0.00    +0.034 C 
ATOM     19  C   UNL     1      -9.870  12.802  66.337  0.00  0.00    +0.038 C 
ATOM     20  C   UNL     1      -8.921  12.571  67.740  0.00  0.00    +0.153 C 
ATOM     21  O   UNL     1      -9.250  13.869  68.431  0.00  0.00    -0.223 OA
ATOM     22  C   UNL     1     -10.001  11.737  68.652  0.00  0.00    +0.036 C 
ENDROOT
BRANCH   3  23
ATOM     23  C   UNL     1      -9.177   8.389  69.650  0.00  0.00    +0.346 C 
ATOM     24  O   UNL     1      -8.828   7.172  69.508  0.00  0.00    -0.247 OA
BRANCH  23  25
ATOM     25  O   UNL     1      -9.029   8.794  70.984  0.00  0.00    -0.429 OA
BRANCH  25  26
ATOM     26  C   UNL     1      -9.875   8.422  72.041  0.00  0.00    +0.304 C 
ATOM     27 CL   UNL     1     -11.486   9.183  71.830  0.00  0.00    -0.063 Cl
ENDBRANCH  25  26
ENDBRANCH  23  25
ENDBRANCH   3  23
TORSDOF 3
ENDMDL
MODEL 7
REMARK VINA RESULT:      -6.5      2.930      6.657
REMARK  Name = 
REMARK  3 active torsions:
REMARK  status: ('A' for Active; 'I' for Inactive)
REMARK    1  A    between atoms: C_21  and  C_23
REMARK    2  A    between atoms: C_23  and  O_25
REMARK    3  A    between atoms: O_25  and  C_26
REMARK                            x       y       z     vdW  Elec       q    Type
REMARK                         _______ _______ _______ _____ _____    ______ ____
ROOT
ATOM      1  C   UNL     1      -9.068  15.854  69.179  0.00  0.00    +0.003 C 
ATOM      2  C   UNL     1      -8.689  16.210  67.764  0.00  0.00    +0.038 C 
ATOM      3  C   UNL     1      -7.495  16.954  67.853  0.00  0.00    +0.215 C 
ATOM      4  O   UNL     1      -6.995  17.594  66.715  0.00  0.00    -0.214 OA
ATOM      5  C   UNL     1      -6.479  15.892  68.319  0.00  0.00    +0.041 C 
ATOM      6  C   UNL     1      -7.294  14.592  68.486  0.00  0.00    +0.003 C 
ATOM      7  C   UNL     1      -8.007  14.907  67.068  0.00  0.00    +0.003 C 
ATOM      8  C   UNL     1      -9.459  14.085  67.275  0.00  0.00    +0.003 C 
ATOM      9  C   UNL     1      -8.944  12.575  67.096  0.00  0.00    +0.004 C 
ATOM     10  C   UNL     1     -10.309  11.889  66.943  0.00  0.00    +0.022 C 
ATOM     11  C   UNL     1     -11.187  12.526  65.935  0.00  0.00    -0.038 C 
ATOM     12  C   UNL     1     -11.301  14.033  65.782  0.00  0.00    +0.036 C 
ATOM     13  C   UNL     1     -11.842  14.545  67.021  0.00  0.00    +0.009 C 
ATOM     14  C   UNL     1     -12.094  14.291  64.646  0.00  0.00    -0.020 C 
ATOM     15  C   UNL     1     -12.463  13.620  63.604  0.00  0.00    +0.038 C 
ATOM     16  C   UNL     1     -12.155  12.192  63.726  0.00  0.00    +0.195 C 
ATOM     17  O   UNL     1     -12.893  11.395  63.065  0.00  0.00    -0.287 OA
ATOM     18  C   UNL     1     -11.289  11.815  64.803  0.00  0.00    +0.034 C 
ATOM     19  C   UNL     1      -9.729  14.200  65.611  0.00  0.00    +0.038 C 
ATOM     20  C   UNL     1      -9.491  15.884  65.450  0.00  0.00    +0.153 C 
ATOM     21  O   UNL     1     -10.856  16.240  64.923  0.00  0.00    -0.223 OA
ATOM     22  C   UNL     1      -9.886  16.351  66.973  0.00  0.00    +0.036 C 
ENDROOT
BRANCH   3  23
ATOM     23  C   UNL     1      -7.374  17.942  68.986  0.00  0.00    +0.346 C 
ATOM     24  O   UNL     1      -6.297  17.978  69.664  0.00  0.00    -0.247 OA
BRANCH  23  25
ATOM     25  O   UNL     1      -7.912  19.228  68.839  0.00  0.00    -0.429 OA
BRANCH  25  26
ATOM     26  C   UNL     1      -9.282  19.529  68.781  0.00  0.00    +0.304 C 
ATOM     27 CL   UNL     1      -9.724  20.043  67.119  0.00  0.00    -0.063 Cl
ENDBRANCH  25  26
ENDBRANCH  23  25
ENDBRANCH   3  23
TORSDOF 3
ENDMDL
MODEL 8
REMARK VINA RESULT:      -6.4      2.319      6.740
REMARK  Name = 
REMARK  3 active torsions:
REMARK  status: ('A' for Active; 'I' for Inactive)
REMARK    1  A    between atoms: C_21  and  C_23
REMARK    2  A    between atoms: C_23  and  O_25
REMARK    3  A    between atoms: O_25  and  C_26
REMARK                            x       y       z     vdW  Elec       q    Type
REMARK                         _______ _______ _______ _____ _____    ______ ____
ROOT
ATOM      1  C   UNL     1      -7.468  18.189  66.326  0.00  0.00    +0.003 C 
ATOM      2  C   UNL     1      -8.293  18.125  67.586  0.00  0.00    +0.038 C 
ATOM      3  C   UNL     1      -8.372  19.445  68.073  0.00  0.00    +0.215 C 
ATOM      4  O   UNL     1      -8.912  19.682  69.340  0.00  0.00    -0.214 OA
ATOM      5  C   UNL     1      -9.254  20.135  67.013  0.00  0.00    +0.041 C 
ATOM      6  C   UNL     1      -9.555  19.047  65.960  0.00  0.00    +0.003 C 
ATOM      7  C   UNL     1      -9.864  18.020  67.172  0.00  0.00    +0.003 C 
ATOM      8  C   UNL     1      -9.526  16.557  66.415  0.00  0.00    +0.003 C 
ATOM      9  C   UNL     1     -10.828  16.425  65.485  0.00  0.00    +0.004 C 
ATOM     10  C   UNL     1     -10.668  14.953  65.082  0.00  0.00    +0.022 C 
ATOM     11  C   UNL     1     -10.447  14.041  66.227  0.00  0.00    -0.038 C 
ATOM     12  C   UNL     1      -9.547  14.399  67.397  0.00  0.00    +0.036 C 
ATOM     13  C   UNL     1      -8.209  14.554  66.871  0.00  0.00    +0.009 C 
ATOM     14  C   UNL     1      -9.680  13.385  68.368  0.00  0.00    -0.020 C 
ATOM     15  C   UNL     1     -10.544  12.458  68.624  0.00  0.00    +0.038 C 
ATOM     16  C   UNL     1     -11.510  12.284  67.535  0.00  0.00    +0.195 C 
ATOM     17  O   UNL     1     -12.038  11.133  67.424  0.00  0.00    -0.287 OA
ATOM     18  C   UNL     1     -11.522  13.299  66.524  0.00  0.00    +0.034 C 
ATOM     19  C   UNL     1     -10.329  15.756  67.668  0.00  0.00    +0.038 C 
ATOM     20  C   UNL     1      -9.498  16.476  68.976  0.00  0.00    +0.153 C 
ATOM     21  O   UNL     1      -8.918  15.221  69.573  0.00  0.00    -0.223 OA
ATOM     22  C   UNL     1      -8.090  16.846  68.221  0.00  0.00    +0.036 C 
ENDROOT
BRANCH   3  23
ATOM     23  C   UNL     1      -7.132  20.298  67.971  0.00  0.00    +0.346 C 
ATOM     24  O   UNL     1      -7.179  21.382  67.306  0.00  0.00    -0.247 OA
BRANCH  23  25
ATOM     25  O   UNL     1      -6.297  20.436  69.089  0.00  0.00    -0.429 OA
BRANCH  25  26
ATOM     26  C   UNL     1      -4.934  20.100  69.126  0.00  0.00    +0.304 C 
ATOM     27 CL   UNL     1      -4.699  18.608  70.094  0.00  0.00    -0.063 Cl
ENDBRANCH  25  26
ENDBRANCH  23  25
ENDBRANCH   3  23
TORSDOF 3
ENDMDL
MODEL 9
REMARK VINA RESULT:      -6.3      1.895      2.277
REMARK  Name = 
REMARK  3 active torsions:
REMARK  status: ('A' for Active; 'I' for Inactive)
REMARK    1  A    between atoms: C_21  and  C_23
REMARK    2  A    between atoms: C_23  and  O_25
REMARK    3  A    between atoms: O_25  and  C_26
REMARK                            x       y       z     vdW  Elec       q    Type
REMARK                         _______ _______ _______ _____ _____    ______ ____
ROOT
ATOM      1  C   UNL     1     -10.109  14.644  69.130  0.00  0.00    +0.003 C 
ATOM      2  C   UNL     1      -9.669  14.742  67.692  0.00  0.00    +0.038 C 
ATOM      3  C   UNL     1     -10.412  13.775  66.986  0.00  0.00    +0.215 C 
ATOM      4  O   UNL     1     -10.086  13.490  65.656  0.00  0.00    -0.214 OA
ATOM      5  C   UNL     1     -11.840  14.352  67.041  0.00  0.00    +0.041 C 
ATOM      6  C   UNL     1     -11.725  15.651  67.866  0.00  0.00    +0.003 C 
ATOM      7  C   UNL     1     -10.403  16.026  67.012  0.00  0.00    +0.003 C 
ATOM      8  C   UNL     1      -9.607  17.016  68.114  0.00  0.00    +0.003 C 
ATOM      9  C   UNL     1     -10.508  18.339  67.990  0.00  0.00    +0.004 C 
ATOM     10  C   UNL     1      -9.575  19.314  68.722  0.00  0.00    +0.022 C 
ATOM     11  C   UNL     1      -8.178  19.287  68.230  0.00  0.00    -0.038 C 
ATOM     12  C   UNL     1      -7.463  17.997  67.869  0.00  0.00    +0.036 C 
ATOM     13  C   UNL     1      -7.373  17.208  69.077  0.00  0.00    +0.009 C 
ATOM     14  C   UNL     1      -6.219  18.341  67.300  0.00  0.00    -0.020 C 
ATOM     15  C   UNL     1      -5.707  19.402  66.768  0.00  0.00    +0.038 C 
ATOM     16  C   UNL     1      -6.539  20.588  66.986  0.00  0.00    +0.195 C 
ATOM     17  O   UNL     1      -5.939  21.709  66.989  0.00  0.00    -0.287 OA
ATOM     18  C   UNL     1      -7.860  20.358  67.491  0.00  0.00    +0.034 C 
ATOM     19  C   UNL     1      -8.614  17.564  66.861  0.00  0.00    +0.038 C 
ATOM     20  C   UNL     1      -8.117  16.039  66.272  0.00  0.00    +0.153 C 
ATOM     21  O   UNL     1      -6.636  16.201  66.491  0.00  0.00    -0.223 OA
ATOM     22  C   UNL     1      -8.289  15.158  67.646  0.00  0.00    +0.036 C 
ENDROOT
BRANCH   3  23
ATOM     23  C   UNL     1     -10.643  12.447  67.663  0.00  0.00    +0.346 C 
ATOM     24  O   UNL     1     -11.816  11.953  67.672  0.00  0.00    -0.247 OA
BRANCH  23  25
ATOM     25  O   UNL     1      -9.679  11.436  67.546  0.00  0.00    -0.429 OA
BRANCH  25  26
ATOM     26  C   UNL     1      -9.931  10.125  67.113  0.00  0.00    +0.304 C 
ATOM     27 CL   UNL     1     -10.034  10.081  65.322  0.00  0.00    -0.063 Cl
ENDBRANCH  25  26
ENDBRANCH  23  25
ENDBRANCH   3  23
TORSDOF 3
ENDMDL
