MODEL 1
REMARK VINA RESULT:      -7.7      0.000      0.000
REMARK  Name = 
REMARK  6 active torsions:
REMARK  status: ('A' for Active; 'I' for Inactive)
REMARK    1  A    between atoms: C_2  and  C_3
REMARK    2  A    between atoms: C_2  and  C_19
REMARK    3  A    between atoms: C_3  and  N_4
REMARK    4  A    between atoms: N_4  and  C_5
REMARK    5  A    between atoms: C_5  and  C_6
REMARK    6  A    between atoms: C_6  and  C_8
REMARK                            x       y       z     vdW  Elec       q    Type
REMARK                         _______ _______ _______ _____ _____    ______ ____
ROOT
ATOM      1  N   UNL     1     -10.478  15.964  64.996  0.00  0.00    -0.212 NA
ENDROOT
BRANCH   1   2
ATOM      2  C   UNL     1     -10.624  16.721  66.179  0.00  0.00    +0.125 C 
BRANCH   2   4
ATOM      3  O   UNL     1      -8.614  16.058  67.044  0.00  0.00    -0.218 OA
ATOM      4  C   UNL     1      -9.158  17.380  66.538  0.00  0.00    +0.209 C 
BRANCH   4   5
ATOM      5  C   UNL     1      -9.643  17.873  68.135  0.00  0.00    +0.198 C 
ATOM      6  O   UNL     1      -8.193  18.056  68.587  0.00  0.00    -0.477 OA
ATOM      7  C   UNL     1      -7.547  19.224  68.524  0.00  0.00    +0.135 A 
ATOM      8  C   UNL     1      -7.599  19.817  67.264  0.00  0.00    +0.014 A 
ATOM      9  C   UNL     1      -6.729  20.821  66.986  0.00  0.00    +0.028 A 
ATOM     10  C   UNL     1      -5.670  21.110  67.840  0.00  0.00    +0.140 A 
ATOM     11  C   UNL     1      -5.784  20.663  69.151  0.00  0.00    +0.033 A 
ATOM     12  F   UNL     1      -4.477  21.578  67.375  0.00  0.00    -0.204 F 
ATOM     13  C   UNL     1      -8.953  19.786  66.624  0.00  0.00    +0.033 C 
ATOM     14  C   UNL     1      -6.500  19.497  69.401  0.00  0.00    +0.039 A 
ATOM     15  C   UNL     1      -9.912  19.436  67.692  0.00  0.00    +0.051 C 
ENDBRANCH   4   5
ENDBRANCH   2   4
ENDBRANCH   1   2
BRANCH   1  16
ATOM     16  C   UNL     1     -11.447  14.929  64.882  0.00  0.00    +0.125 C 
BRANCH  16  17
ATOM     17  C   UNL     1     -10.469  13.636  65.202  0.00  0.00    +0.209 C 
ATOM     18  O   UNL     1     -11.013  12.890  63.994  0.00  0.00    -0.218 OA
BRANCH  17  19
ATOM     19  C   UNL     1     -11.616  12.869  66.251  0.00  0.00    +0.198 C 
ATOM     20  O   UNL     1     -10.802  11.562  66.273  0.00  0.00    -0.477 OA
ATOM     21  C   UNL     1     -11.085  10.787  67.408  0.00  0.00    +0.135 A 
ATOM     22  C   UNL     1     -11.606  11.360  68.566  0.00  0.00    +0.014 A 
ATOM     23  C   UNL     1     -11.148  10.867  69.783  0.00  0.00    +0.028 A 
ATOM     24  C   UNL     1     -10.408   9.693  69.867  0.00  0.00    +0.140 A 
ATOM     25  C   UNL     1     -10.444   8.901  68.733  0.00  0.00    +0.033 A 
ATOM     26  F   UNL     1      -9.492   9.489  70.858  0.00  0.00    -0.204 F 
ATOM     27  C   UNL     1     -11.935  12.825  68.609  0.00  0.00    +0.033 C 
ATOM     28  C   UNL     1     -10.657   9.464  67.483  0.00  0.00    +0.039 A 
ATOM     29  C   UNL     1     -10.893  13.385  67.639  0.00  0.00    +0.051 C 
ENDBRANCH  17  19
ENDBRANCH  16  17
ENDBRANCH   1  16
TORSDOF 6
ENDMDL
MODEL 2
REMARK VINA RESULT:      -7.7      3.342      4.904
REMARK  Name = 
REMARK  6 active torsions:
REMARK  status: ('A' for Active; 'I' for Inactive)
REMARK    1  A    between atoms: C_2  and  C_3
REMARK    2  A    between atoms: C_2  and  C_19
REMARK    3  A    between atoms: C_3  and  N_4
REMARK    4  A    between atoms: N_4  and  C_5
REMARK    5  A    between atoms: C_5  and  C_6
REMARK    6  A    between atoms: C_6  and  C_8
REMARK                            x       y       z     vdW  Elec       q    Type
REMARK                         _______ _______ _______ _____ _____    ______ ____
ROOT
ATOM      1  N   UNL     1     -10.062  12.444  66.773  0.00  0.00    -0.212 NA
ENDROOT
BRANCH   1   2
ATOM      2  C   UNL     1     -10.333  13.301  65.683  0.00  0.00    +0.125 C 
BRANCH   2   4
ATOM      3  O   UNL     1     -11.978  14.877  65.491  0.00  0.00    -0.218 OA
ATOM      4  C   UNL     1     -10.692  14.789  66.291  0.00  0.00    +0.209 C 
BRANCH   4   5
ATOM      5  C   UNL     1      -9.789  15.633  65.065  0.00  0.00    +0.198 C 
ATOM      6  O   UNL     1     -10.529  16.945  65.336  0.00  0.00    -0.477 OA
ATOM      7  C   UNL     1     -10.079  17.880  66.178  0.00  0.00    +0.135 A 
ATOM      8  C   UNL     1      -9.773  17.383  67.443  0.00  0.00    +0.014 A 
ATOM      9  C   UNL     1      -9.621  18.264  68.464  0.00  0.00    +0.028 A 
ATOM     10  C   UNL     1      -9.972  19.601  68.316  0.00  0.00    +0.140 A 
ATOM     11  C   UNL     1     -10.055  20.086  67.016  0.00  0.00    +0.033 A 
ATOM     12  F   UNL     1     -10.457  20.337  69.356  0.00  0.00    -0.204 F 
ATOM     13  C   UNL     1      -9.008  16.095  67.430  0.00  0.00    +0.033 C 
ATOM     14  C   UNL     1     -10.432  19.216  66.000  0.00  0.00    +0.039 A 
ATOM     15  C   UNL     1      -8.504  15.922  66.053  0.00  0.00    +0.051 C 
ENDBRANCH   4   5
ENDBRANCH   2   4
ENDBRANCH   1   2
BRANCH   1  16
ATOM     16  C   UNL     1     -11.225  11.775  67.246  0.00  0.00    +0.125 C 
BRANCH  16  17
ATOM     17  C   UNL     1     -10.952  11.920  68.870  0.00  0.00    +0.209 C 
ATOM     18  O   UNL     1     -11.996  10.856  69.168  0.00  0.00    -0.218 OA
BRANCH  17  19
ATOM     19  C   UNL     1     -12.116  13.187  69.078  0.00  0.00    +0.198 C 
ATOM     20  O   UNL     1     -12.305  12.841  70.566  0.00  0.00    -0.477 OA
ATOM     21  C   UNL     1     -12.802  13.931  71.299  0.00  0.00    +0.135 A 
ATOM     22  C   UNL     1     -12.635  15.240  70.853  0.00  0.00    +0.014 A 
ATOM     23  C   UNL     1     -12.376  16.213  71.814  0.00  0.00    +0.028 A 
ATOM     24  C   UNL     1     -12.529  15.960  73.172  0.00  0.00    +0.140 A 
ATOM     25  C   UNL     1     -13.251  14.820  73.473  0.00  0.00    +0.033 A 
ATOM     26  F   UNL     1     -11.781  16.608  74.112  0.00  0.00    -0.204 F 
ATOM     27  C   UNL     1     -11.966  15.518  69.538  0.00  0.00    +0.033 C 
ATOM     28  C   UNL     1     -13.286  13.750  72.591  0.00  0.00    +0.039 A 
ATOM     29  C   UNL     1     -10.997  14.338  69.450  0.00  0.00    +0.051 C 
ENDBRANCH  17  19
ENDBRANCH  16  17
ENDBRANCH   1  16
TORSDOF 6
ENDMDL
MODEL 3
REMARK VINA RESULT:      -7.6      3.097      8.967
REMARK  Name = 
REMARK  6 active torsions:
REMARK  status: ('A' for Active; 'I' for Inactive)
REMARK    1  A    between atoms: C_2  and  C_3
REMARK    2  A    between atoms: C_2  and  C_19
REMARK    3  A    between atoms: C_3  and  N_4
REMARK    4  A    between atoms: N_4  and  C_5
REMARK    5  A    between atoms: C_5  and  C_6
REMARK    6  A    between atoms: C_6  and  C_8
REMARK                            x       y       z     vdW  Elec       q    Type
REMARK                         _______ _______ _______ _____ _____    ______ ____
ROOT
ATOM      1  N   UNL     1     -10.928  17.583  68.403  0.00  0.00    -0.212 NA
ENDROOT
BRANCH   1   2
ATOM      2  C   UNL     1     -10.146  16.426  68.610  0.00  0.00    +0.125 C 
BRANCH   2   4
ATOM      3  O   UNL     1     -10.780  14.245  68.868  0.00  0.00    -0.218 OA
ATOM      4  C   UNL     1     -10.792  15.213  67.701  0.00  0.00    +0.209 C 
BRANCH   4   5
ATOM      5  C   UNL     1      -9.242  14.659  67.134  0.00  0.00    +0.198 C 
ATOM      6  O   UNL     1      -9.797  13.278  66.779  0.00  0.00    -0.477 OA
ATOM      7  C   UNL     1     -10.251  12.961  65.563  0.00  0.00    +0.135 A 
ATOM      8  C   UNL     1     -11.202  13.857  65.077  0.00  0.00    +0.014 A 
ATOM      9  C   UNL     1     -11.964  13.479  64.019  0.00  0.00    +0.028 A 
ATOM     10  C   UNL     1     -11.959  12.165  63.564  0.00  0.00    +0.140 A 
ATOM     11  C   UNL     1     -10.865  11.385  63.917  0.00  0.00    +0.033 A 
ATOM     12  F   UNL     1     -13.069  11.588  63.022  0.00  0.00    -0.204 F 
ATOM     13  C   UNL     1     -10.854  15.299  65.287  0.00  0.00    +0.033 C 
ATOM     14  C   UNL     1     -10.222  11.640  65.123  0.00  0.00    +0.039 A 
ATOM     15  C   UNL     1      -9.421  15.335  65.644  0.00  0.00    +0.051 C 
ENDBRANCH   4   5
ENDBRANCH   2   4
ENDBRANCH   1   2
BRANCH   1  16
ATOM     16  C   UNL     1     -10.505  18.338  67.274  0.00  0.00    +0.125 C 
BRANCH  16  17
ATOM     17  C   UNL     1      -9.316  19.227  68.001  0.00  0.00    +0.209 C 
ATOM     18  O   UNL     1     -10.060  20.518  67.699  0.00  0.00    -0.218 OA
BRANCH  17  19
ATOM     19  C   UNL     1      -8.373  19.378  66.554  0.00  0.00    +0.198 C 
ATOM     20  O   UNL     1      -7.441  20.415  67.207  0.00  0.00    -0.477 OA
ATOM     21  C   UNL     1      -6.192  20.474  66.568  0.00  0.00    +0.135 A 
ATOM     22  C   UNL     1      -5.708  19.401  65.824  0.00  0.00    +0.014 A 
ATOM     23  C   UNL     1      -4.346  19.133  65.903  0.00  0.00    +0.028 A 
ATOM     24  C   UNL     1      -3.455  20.029  66.481  0.00  0.00    +0.140 A 
ATOM     25  C   UNL     1      -3.953  21.307  66.664  0.00  0.00    +0.033 A 
ATOM     26  F   UNL     1      -2.305  19.612  67.086  0.00  0.00    -0.204 F 
ATOM     27  C   UNL     1      -6.542  18.166  65.635  0.00  0.00    +0.033 C 
ATOM     28  C   UNL     1      -5.312  21.519  66.835  0.00  0.00    +0.039 A 
ATOM     29  C   UNL     1      -7.341  18.153  66.940  0.00  0.00    +0.051 C 
ENDBRANCH  17  19
ENDBRANCH  16  17
ENDBRANCH   1  16
TORSDOF 6
ENDMDL
MODEL 4
REMARK VINA RESULT:      -7.6      3.043      4.060
REMARK  Name = 
REMARK  6 active torsions:
REMARK  status: ('A' for Active; 'I' for Inactive)
REMARK    1  A    between atoms: C_2  and  C_3
REMARK    2  A    between atoms: C_2  and  C_19
REMARK    3  A    between atoms: C_3  and  N_4
REMARK    4  A    between atoms: N_4  and  C_5
REMARK    5  A    between atoms: C_5  and  C_6
REMARK    6  A    between atoms: C_6  and  C_8
REMARK                            x       y       z     vdW  Elec       q    Type
REMARK                         _______ _______ _______ _____ _____    ______ ____
ROOT
ATOM      1  N   UNL     1      -8.923  14.616  66.500  0.00  0.00    -0.212 NA
ENDROOT
BRANCH   1   2
ATOM      2  C   UNL     1      -8.814  15.933  66.002  0.00  0.00    +0.125 C 
BRANCH   2   4
ATOM      3  O   UNL     1      -9.473  17.852  67.055  0.00  0.00    -0.218 OA
ATOM      4  C   UNL     1      -8.309  16.897  67.238  0.00  0.00    +0.209 C 
BRANCH   4   5
ATOM      5  C   UNL     1      -7.272  17.854  66.219  0.00  0.00    +0.198 C 
ATOM      6  O   UNL     1      -7.344  19.053  67.165  0.00  0.00    -0.477 OA
ATOM      7  C   UNL     1      -6.449  19.281  68.131  0.00  0.00    +0.135 A 
ATOM      8  C   UNL     1      -6.249  18.186  68.969  0.00  0.00    +0.014 A 
ATOM      9  C   UNL     1      -5.625  18.386  70.157  0.00  0.00    +0.028 A 
ATOM     10  C   UNL     1      -5.384  19.671  70.633  0.00  0.00    +0.140 A 
ATOM     11  C   UNL     1      -5.392  20.697  69.696  0.00  0.00    +0.033 A 
ATOM     12  F   UNL     1      -5.390  19.957  71.965  0.00  0.00    -0.204 F 
ATOM     13  C   UNL     1      -6.115  16.878  68.250  0.00  0.00    +0.033 C 
ATOM     14  C   UNL     1      -6.213  20.578  68.580  0.00  0.00    +0.039 A 
ATOM     15  C   UNL     1      -5.887  17.204  66.828  0.00  0.00    +0.051 C 
ENDBRANCH   4   5
ENDBRANCH   2   4
ENDBRANCH   1   2
BRANCH   1  16
ATOM     16  C   UNL     1     -10.238  14.087  66.372  0.00  0.00    +0.125 C 
BRANCH  16  17
ATOM     17  C   UNL     1     -10.371  13.386  67.862  0.00  0.00    +0.209 C 
ATOM     18  O   UNL     1     -11.540  12.538  67.389  0.00  0.00    -0.218 OA
BRANCH  17  19
ATOM     19  C   UNL     1     -11.441  14.603  68.476  0.00  0.00    +0.198 C 
ATOM     20  O   UNL     1     -12.015  13.640  69.532  0.00  0.00    -0.477 OA
ATOM     21  C   UNL     1     -12.583  14.328  70.616  0.00  0.00    +0.135 A 
ATOM     22  C   UNL     1     -12.205  15.632  70.924  0.00  0.00    +0.014 A 
ATOM     23  C   UNL     1     -12.108  15.967  72.271  0.00  0.00    +0.028 A 
ATOM     24  C   UNL     1     -12.607  15.139  73.270  0.00  0.00    +0.140 A 
ATOM     25  C   UNL     1     -13.473  14.154  72.829  0.00  0.00    +0.033 A 
ATOM     26  F   UNL     1     -12.060  15.109  74.520  0.00  0.00    -0.204 F 
ATOM     27  C   UNL     1     -11.215  16.363  70.063  0.00  0.00    +0.033 C 
ATOM     28  C   UNL     1     -13.381  13.656  71.538  0.00  0.00    +0.039 A 
ATOM     29  C   UNL     1     -10.355  15.202  69.561  0.00  0.00    +0.051 C 
ENDBRANCH  17  19
ENDBRANCH  16  17
ENDBRANCH   1  16
TORSDOF 6
ENDMDL
MODEL 5
REMARK VINA RESULT:      -7.5      2.478      9.257
REMARK  Name = 
REMARK  6 active torsions:
REMARK  status: ('A' for Active; 'I' for Inactive)
REMARK    1  A    between atoms: C_2  and  C_3
REMARK    2  A    between atoms: C_2  and  C_19
REMARK    3  A    between atoms: C_3  and  N_4
REMARK    4  A    between atoms: N_4  and  C_5
REMARK    5  A    between atoms: C_5  and  C_6
REMARK    6  A    between atoms: C_6  and  C_8
REMARK                            x       y       z     vdW  Elec       q    Type
REMARK                         _______ _______ _______ _____ _____    ______ ____
ROOT
ATOM      1  N   UNL     1     -11.426  11.999  65.566  0.00  0.00    -0.212 NA
ENDROOT
BRANCH   1   2
ATOM      2  C   UNL     1     -10.357  11.412  66.278  0.00  0.00    +0.125 C 
BRANCH   2   4
ATOM      3  O   UNL     1     -12.147  11.394  67.700  0.00  0.00    -0.218 OA
ATOM      4  C   UNL     1     -11.002  10.435  67.437  0.00  0.00    +0.209 C 
BRANCH   4   5
ATOM      5  C   UNL     1     -10.039  11.122  68.713  0.00  0.00    +0.198 C 
ATOM      6  O   UNL     1     -11.029  10.669  69.788  0.00  0.00    -0.477 OA
ATOM      7  C   UNL     1     -10.914   9.514  70.451  0.00  0.00    +0.135 A 
ATOM      8  C   UNL     1     -10.776   8.409  69.614  0.00  0.00    +0.014 A 
ATOM      9  C   UNL     1     -10.974   7.173  70.138  0.00  0.00    +0.028 A 
ATOM     10  C   UNL     1     -11.513   7.011  71.410  0.00  0.00    +0.140 A 
ATOM     11  C   UNL     1     -11.426   8.100  72.269  0.00  0.00    +0.033 A 
ATOM     12  F   UNL     1     -12.306   5.948  71.726  0.00  0.00    -0.204 F 
ATOM     13  C   UNL     1      -9.814   8.609  68.483  0.00  0.00    +0.033 C 
ATOM     14  C   UNL     1     -11.448   9.381  71.730  0.00  0.00    +0.039 A 
ATOM     15  C   UNL     1      -9.034   9.821  68.807  0.00  0.00    +0.051 C 
ENDBRANCH   4   5
ENDBRANCH   2   4
ENDBRANCH   1   2
BRANCH   1  16
ATOM     16  C   UNL     1     -10.993  12.999  64.651  0.00  0.00    +0.125 C 
BRANCH  16  17
ATOM     17  C   UNL     1     -11.619  14.324  65.417  0.00  0.00    +0.209 C 
ATOM     18  O   UNL     1     -12.247  14.810  64.121  0.00  0.00    -0.218 OA
BRANCH  17  19
ATOM     19  C   UNL     1     -10.209  15.296  65.153  0.00  0.00    +0.198 C 
ATOM     20  O   UNL     1     -10.946  16.577  65.587  0.00  0.00    -0.477 OA
ATOM     21  C   UNL     1     -10.057  17.574  66.017  0.00  0.00    +0.135 A 
ATOM     22  C   UNL     1      -8.780  17.258  66.475  0.00  0.00    +0.014 A 
ATOM     23  C   UNL     1      -8.286  17.995  67.547  0.00  0.00    +0.028 A 
ATOM     24  C   UNL     1      -8.907  19.158  67.985  0.00  0.00    +0.140 A 
ATOM     25  C   UNL     1      -9.827  19.694  67.100  0.00  0.00    +0.033 A 
ATOM     26  F   UNL     1      -8.841  19.563  69.286  0.00  0.00    -0.204 F 
ATOM     27  C   UNL     1      -8.297  15.836  66.465  0.00  0.00    +0.033 C 
ATOM     28  C   UNL     1     -10.498  18.882  66.198  0.00  0.00    +0.039 A 
ATOM     29  C   UNL     1      -9.611  15.081  66.674  0.00  0.00    +0.051 C 
ENDBRANCH  17  19
ENDBRANCH  16  17
ENDBRANCH   1  16
TORSDOF 6
ENDMDL
MODEL 6
REMARK VINA RESULT:      -7.5      4.193      5.919
REMARK  Name = 
REMARK  6 active torsions:
REMARK  status: ('A' for Active; 'I' for Inactive)
REMARK    1  A    between atoms: C_2  and  C_3
REMARK    2  A    between atoms: C_2  and  C_19
REMARK    3  A    between atoms: C_3  and  N_4
REMARK    4  A    between atoms: N_4  and  C_5
REMARK    5  A    between atoms: C_5  and  C_6
REMARK    6  A    between atoms: C_6  and  C_8
REMARK                            x       y       z     vdW  Elec       q    Type
REMARK                         _______ _______ _______ _____ _____    ______ ____
ROOT
ATOM      1  N   UNL     1     -10.595  15.988  65.564  0.00  0.00    -0.212 NA
ENDROOT
BRANCH   1   2
ATOM      2  C   UNL     1      -9.948  16.334  66.771  0.00  0.00    +0.125 C 
BRANCH   2   4
ATOM      3  O   UNL     1     -11.317  17.675  68.018  0.00  0.00    -0.218 OA
ATOM      4  C   UNL     1     -11.046  16.183  67.990  0.00  0.00    +0.209 C 
BRANCH   4   5
ATOM      5  C   UNL     1      -9.844  16.306  69.242  0.00  0.00    +0.198 C 
ATOM      6  O   UNL     1     -10.902  16.550  70.320  0.00  0.00    -0.477 OA
ATOM      7  C   UNL     1     -11.435  15.572  71.058  0.00  0.00    +0.135 A 
ATOM      8  C   UNL     1     -11.945  14.521  70.298  0.00  0.00    +0.014 A 
ATOM      9  C   UNL     1     -12.786  13.640  70.896  0.00  0.00    +0.028 A 
ATOM     10  C   UNL     1     -13.304  13.888  72.162  0.00  0.00    +0.140 A 
ATOM     11  C   UNL     1     -12.615  14.802  72.951  0.00  0.00    +0.033 A 
ATOM     12  F   UNL     1     -14.547  13.465  72.527  0.00  0.00    -0.204 F 
ATOM     13  C   UNL     1     -11.051  14.080  69.180  0.00  0.00    +0.033 C 
ATOM     14  C   UNL     1     -11.933  15.842  72.331  0.00  0.00    +0.039 A 
ATOM     15  C   UNL     1      -9.726  14.677  69.443  0.00  0.00    +0.051 C 
ENDBRANCH   4   5
ENDBRANCH   2   4
ENDBRANCH   1   2
BRANCH   1  16
ATOM     16  C   UNL     1     -11.383  14.810  65.681  0.00  0.00    +0.125 C 
BRANCH  16  17
ATOM     17  C   UNL     1     -11.113  14.179  64.178  0.00  0.00    +0.209 C 
ATOM     18  O   UNL     1     -12.582  14.333  63.820  0.00  0.00    -0.218 OA
BRANCH  17  19
ATOM     19  C   UNL     1     -11.360  12.540  64.686  0.00  0.00    +0.198 C 
ATOM     20  O   UNL     1     -10.581  11.992  63.476  0.00  0.00    -0.477 OA
ATOM     21  C   UNL     1     -10.080  10.702  63.716  0.00  0.00    +0.135 A 
ATOM     22  C   UNL     1      -9.871  10.235  65.011  0.00  0.00    +0.014 A 
ATOM     23  C   UNL     1      -8.749   9.443  65.230  0.00  0.00    +0.028 A 
ATOM     24  C   UNL     1      -8.004   8.920  64.180  0.00  0.00    +0.140 A 
ATOM     25  C   UNL     1      -8.629   8.963  62.947  0.00  0.00    +0.033 A 
ATOM     26  F   UNL     1      -6.668   8.668  64.301  0.00  0.00    -0.204 F 
ATOM     27  C   UNL     1     -10.235  11.084  66.196  0.00  0.00    +0.033 C 
ATOM     28  C   UNL     1      -9.579   9.935  62.668  0.00  0.00    +0.039 A 
ATOM     29  C   UNL     1     -10.009  12.486  65.628  0.00  0.00    +0.051 C 
ENDBRANCH  17  19
ENDBRANCH  16  17
ENDBRANCH   1  16
TORSDOF 6
ENDMDL
MODEL 7
REMARK VINA RESULT:      -7.5      3.285      8.288
REMARK  Name = 
REMARK  6 active torsions:
REMARK  status: ('A' for Active; 'I' for Inactive)
REMARK    1  A    between atoms: C_2  and  C_3
REMARK    2  A    between atoms: C_2  and  C_19
REMARK    3  A    between atoms: C_3  and  N_4
REMARK    4  A    between atoms: N_4  and  C_5
REMARK    5  A    between atoms: C_5  and  C_6
REMARK    6  A    between atoms: C_6  and  C_8
REMARK                            x       y       z     vdW  Elec       q    Type
REMARK                         _______ _______ _______ _____ _____    ______ ____
ROOT
ATOM      1  N   UNL     1      -8.304  13.604  67.497  0.00  0.00    -0.212 NA
ENDROOT
BRANCH   1   2
ATOM      2  C   UNL     1      -9.699  13.751  67.328  0.00  0.00    +0.125 C 
BRANCH   2   4
ATOM      3  O   UNL     1     -10.839  12.415  68.791  0.00  0.00    -0.218 OA
ATOM      4  C   UNL     1     -10.377  13.859  68.825  0.00  0.00    +0.209 C 
BRANCH   4   5
ATOM      5  C   UNL     1     -11.903  14.435  68.217  0.00  0.00    +0.198 C 
ATOM      6  O   UNL     1     -12.637  14.028  69.495  0.00  0.00    -0.477 OA
ATOM      7  C   UNL     1     -12.839  14.859  70.522  0.00  0.00    +0.135 A 
ATOM      8  C   UNL     1     -11.673  15.477  70.969  0.00  0.00    +0.014 A 
ATOM      9  C   UNL     1     -11.687  16.079  72.186  0.00  0.00    +0.028 A 
ATOM     10  C   UNL     1     -12.754  15.904  73.061  0.00  0.00    +0.140 A 
ATOM     11  C   UNL     1     -13.956  15.482  72.505  0.00  0.00    +0.033 A 
ATOM     12  F   UNL     1     -12.581  15.896  74.413  0.00  0.00    -0.204 F 
ATOM     13  C   UNL     1     -10.792  15.995  69.875  0.00  0.00    +0.033 C 
ATOM     14  C   UNL     1     -13.924  14.673  71.376  0.00  0.00    +0.039 A 
ATOM     15  C   UNL     1     -11.610  15.998  68.645  0.00  0.00    +0.051 C 
ENDBRANCH   4   5
ENDBRANCH   2   4
ENDBRANCH   1   2
BRANCH   1  16
ATOM     16  C   UNL     1      -7.848  14.095  68.752  0.00  0.00    +0.125 C 
BRANCH  16  17
ATOM     17  C   UNL     1      -6.620  15.059  68.210  0.00  0.00    +0.209 C 
ATOM     18  O   UNL     1      -5.751  14.663  69.393  0.00  0.00    -0.218 OA
BRANCH  17  19
ATOM     19  C   UNL     1      -7.192  16.468  69.042  0.00  0.00    +0.198 C 
ATOM     20  O   UNL     1      -5.832  17.173  68.892  0.00  0.00    -0.477 OA
ATOM     21  C   UNL     1      -5.953  18.569  68.983  0.00  0.00    +0.135 A 
ATOM     22  C   UNL     1      -7.159  19.211  68.714  0.00  0.00    +0.014 A 
ATOM     23  C   UNL     1      -7.098  20.432  68.049  0.00  0.00    +0.028 A 
ATOM     24  C   UNL     1      -5.900  21.116  67.882  0.00  0.00    +0.140 A 
ATOM     25  C   UNL     1      -4.863  20.678  68.687  0.00  0.00    +0.033 A 
ATOM     26  F   UNL     1      -5.684  21.938  66.814  0.00  0.00    -0.204 F 
ATOM     27  C   UNL     1      -8.387  18.416  68.375  0.00  0.00    +0.033 C 
ATOM     28  C   UNL     1      -4.822  19.366  69.136  0.00  0.00    +0.039 A 
ATOM     29  C   UNL     1      -7.765  17.202  67.682  0.00  0.00    +0.051 C 
ENDBRANCH  17  19
ENDBRANCH  16  17
ENDBRANCH   1  16
TORSDOF 6
ENDMDL
MODEL 8
REMARK VINA RESULT:      -7.4      2.659      3.488
REMARK  Name = 
REMARK  6 active torsions:
REMARK  status: ('A' for Active; 'I' for Inactive)
REMARK    1  A    between atoms: C_2  and  C_3
REMARK    2  A    between atoms: C_2  and  C_19
REMARK    3  A    between atoms: C_3  and  N_4
REMARK    4  A    between atoms: N_4  and  C_5
REMARK    5  A    between atoms: C_5  and  C_6
REMARK    6  A    between atoms: C_6  and  C_8
REMARK                            x       y       z     vdW  Elec       q    Type
REMARK                         _______ _______ _______ _____ _____    ______ ____
ROOT
ATOM      1  N   UNL     1      -9.627  15.085  66.110  0.00  0.00    -0.212 NA
ENDROOT
BRANCH   1   2
ATOM      2  C   UNL     1      -9.845  16.457  65.856  0.00  0.00    +0.125 C 
BRANCH   2   4
ATOM      3  O   UNL     1      -8.090  16.185  67.296  0.00  0.00    -0.218 OA
ATOM      4  C   UNL     1      -8.494  17.276  66.323  0.00  0.00    +0.209 C 
BRANCH   4   5
ATOM      5  C   UNL     1      -9.325  18.172  67.561  0.00  0.00    +0.198 C 
ATOM      6  O   UNL     1      -8.041  18.367  68.369  0.00  0.00    -0.477 OA
ATOM      7  C   UNL     1      -7.256  19.441  68.250  0.00  0.00    +0.135 A 
ATOM      8  C   UNL     1      -6.886  19.712  66.935  0.00  0.00    +0.014 A 
ATOM      9  C   UNL     1      -5.850  20.561  66.716  0.00  0.00    +0.028 A 
ATOM     10  C   UNL     1      -5.034  20.982  67.762  0.00  0.00    +0.140 A 
ATOM     11  C   UNL     1      -5.557  20.875  69.045  0.00  0.00    +0.033 A 
ATOM     12  F   UNL     1      -3.709  21.246  67.579  0.00  0.00    -0.204 F 
ATOM     13  C   UNL     1      -8.008  19.613  65.947  0.00  0.00    +0.033 C 
ATOM     14  C   UNL     1      -6.460  19.853  69.317  0.00  0.00    +0.039 A 
ATOM     15  C   UNL     1      -9.257  19.594  66.734  0.00  0.00    +0.051 C 
ENDBRANCH   4   5
ENDBRANCH   2   4
ENDBRANCH   1   2
BRANCH   1  16
ATOM     16  C   UNL     1     -10.835  14.336  66.155  0.00  0.00    +0.125 C 
BRANCH  16  17
ATOM     17  C   UNL     1     -10.663  13.676  67.660  0.00  0.00    +0.209 C 
ATOM     18  O   UNL     1     -11.856  12.764  67.427  0.00  0.00    -0.218 OA
BRANCH  17  19
ATOM     19  C   UNL     1     -11.663  14.864  68.431  0.00  0.00    +0.198 C 
ATOM     20  O   UNL     1     -12.227  13.825  69.417  0.00  0.00    -0.477 OA
ATOM     21  C   UNL     1     -12.725  14.427  70.584  0.00  0.00    +0.135 A 
ATOM     22  C   UNL     1     -12.288  15.684  70.994  0.00  0.00    +0.014 A 
ATOM     23  C   UNL     1     -12.124  15.888  72.361  0.00  0.00    +0.028 A 
ATOM     24  C   UNL     1     -12.611  14.986  73.300  0.00  0.00    +0.140 A 
ATOM     25  C   UNL     1     -13.529  14.075  72.809  0.00  0.00    +0.033 A 
ATOM     26  F   UNL     1     -12.015  14.822  74.516  0.00  0.00    -0.204 F 
ATOM     27  C   UNL     1     -11.309  16.460  70.161  0.00  0.00    +0.033 C 
ATOM     28  C   UNL     1     -13.508  13.697  71.474  0.00  0.00    +0.039 A 
ATOM     29  C   UNL     1     -10.512  15.324  69.516  0.00  0.00    +0.051 C 
ENDBRANCH  17  19
ENDBRANCH  16  17
ENDBRANCH   1  16
TORSDOF 6
ENDMDL
MODEL 9
REMARK VINA RESULT:      -7.4      2.447      3.395
REMARK  Name = 
REMARK  6 active torsions:
REMARK  status: ('A' for Active; 'I' for Inactive)
REMARK    1  A    between atoms: C_2  and  C_3
REMARK    2  A    between atoms: C_2  and  C_19
REMARK    3  A    between atoms: C_3  and  N_4
REMARK    4  A    between atoms: N_4  and  C_5
REMARK    5  A    between atoms: C_5  and  C_6
REMARK    6  A    between atoms: C_6  and  C_8
REMARK                            x       y       z     vdW  Elec       q    Type
REMARK                         _______ _______ _______ _____ _____    ______ ____
ROOT
ATOM      1  N   UNL     1     -10.547  18.386  65.746  0.00  0.00    -0.212 NA
ENDROOT
BRANCH   1   2
ATOM      2  C   UNL     1     -10.289  19.434  66.657  0.00  0.00    +0.125 C 
BRANCH   2   4
ATOM      3  O   UNL     1      -9.902  19.773  68.884  0.00  0.00    -0.218 OA
ATOM      4  C   UNL     1      -9.313  18.840  67.844  0.00  0.00    +0.209 C 
BRANCH   4   5
ATOM      5  C   UNL     1      -8.015  19.943  67.486  0.00  0.00    +0.198 C 
ATOM      6  O   UNL     1      -7.453  19.839  68.905  0.00  0.00    -0.477 OA
ATOM      7  C   UNL     1      -6.497  18.974  69.254  0.00  0.00    +0.135 A 
ATOM      8  C   UNL     1      -6.784  17.659  68.894  0.00  0.00    +0.014 A 
ATOM      9  C   UNL     1      -6.064  16.660  69.466  0.00  0.00    +0.028 A 
ATOM     10  C   UNL     1      -5.217  16.911  70.539  0.00  0.00    +0.140 A 
ATOM     11  C   UNL     1      -4.800  18.226  70.713  0.00  0.00    +0.033 A 
ATOM     12  F   UNL     1      -5.002  15.987  71.519  0.00  0.00    -0.204 F 
ATOM     13  C   UNL     1      -7.328  17.505  67.507  0.00  0.00    +0.033 C 
ATOM     14  C   UNL     1      -5.649  19.254  70.323  0.00  0.00    +0.039 A 
ATOM     15  C   UNL     1      -7.065  18.780  66.811  0.00  0.00    +0.051 C 
ENDBRANCH   4   5
ENDBRANCH   2   4
ENDBRANCH   1   2
BRANCH   1  16
ATOM     16  C   UNL     1     -10.772  17.139  66.393  0.00  0.00    +0.125 C 
BRANCH  16  17
ATOM     17  C   UNL     1     -10.201  16.138  65.209  0.00  0.00    +0.209 C 
ATOM     18  O   UNL     1     -11.207  16.697  64.214  0.00  0.00    -0.218 OA
BRANCH  17  19
ATOM     19  C   UNL     1     -11.266  14.835  65.624  0.00  0.00    +0.198 C 
ATOM     20  O   UNL     1     -10.618  13.903  64.585  0.00  0.00    -0.477 OA
ATOM     21  C   UNL     1     -10.823  12.549  64.894  0.00  0.00    +0.135 A 
ATOM     22  C   UNL     1     -11.099  12.137  66.195  0.00  0.00    +0.014 A 
ATOM     23  C   UNL     1     -10.531  10.940  66.619  0.00  0.00    +0.028 A 
ATOM     24  C   UNL     1      -9.930  10.058  65.728  0.00  0.00    +0.140 A 
ATOM     25  C   UNL     1     -10.223  10.288  64.396  0.00  0.00    +0.033 A 
ATOM     26  F   UNL     1      -8.911   9.234  66.109  0.00  0.00    -0.204 F 
ATOM     27  C   UNL     1     -11.243  13.144  67.300  0.00  0.00    +0.033 C 
ATOM     28  C   UNL     1     -10.548  11.561  63.952  0.00  0.00    +0.039 A 
ATOM     29  C   UNL     1     -10.295  14.243  66.816  0.00  0.00    +0.051 C 
ENDBRANCH  17  19
ENDBRANCH  16  17
ENDBRANCH   1  16
TORSDOF 6
ENDMDL
