MODEL 1
REMARK VINA RESULT:      -7.0      0.000      0.000
REMARK  Name = 
REMARK  6 active torsions:
REMARK  status: ('A' for Active; 'I' for Inactive)
REMARK    1  A    between atoms: C_2  and  O_3
REMARK    2  A    between atoms: O_3  and  C_4
REMARK    3  A    between atoms: C_7  and  C_8
REMARK    4  A    between atoms: C_8  and  C_9
REMARK    5  A    between atoms: C_11  and  C_12
REMARK    6  A    between atoms: C_14  and  C_15
REMARK                            x       y       z     vdW  Elec       q    Type
REMARK                         _______ _______ _______ _____ _____    ______ ____
ROOT
ATOM      1  C   UNL     1     -11.002  12.719  66.129  0.00  0.00    -0.007 A 
ATOM      2  C   UNL     1     -11.936  13.273  65.255  0.00  0.00    +0.054 A 
ATOM      3 CL   UNL     1     -12.789  12.228  64.108  0.00  0.00    -0.083 Cl
ATOM      4  C   UNL     1     -11.650  14.456  64.665  0.00  0.00    +0.011 A 
ATOM      5  C   UNL     1     -10.607  15.101  65.191  0.00  0.00    -0.001 A 
ATOM      6  C   UNL     1      -9.912  14.769  66.406  0.00  0.00    +0.007 A 
ATOM      7  C   UNL     1      -9.788  13.407  66.237  0.00  0.00    -0.005 A 
ENDROOT
BRANCH   6   8
ATOM      8  C   UNL     1      -8.755  15.869  66.119  0.00  0.00    +0.170 C 
ATOM      9  C   UNL     1      -9.859  17.226  66.308  0.00  0.00    +0.216 C 
ATOM     10  O   UNL     1      -8.771  18.199  65.994  0.00  0.00    -0.217 OA
ATOM     11  C   UNL     1      -9.730  17.454  67.980  0.00  0.00    +0.218 C 
ATOM     12  O   UNL     1     -11.190  17.817  68.055  0.00  0.00    -0.217 OA
ATOM     13  C   UNL     1     -10.086  15.857  68.443  0.00  0.00    +0.214 C 
ATOM     14  O   UNL     1     -10.316  16.256  69.860  0.00  0.00    -0.218 OA
ATOM     15  C   UNL     1      -8.402  15.676  68.693  0.00  0.00    +0.181 C 
ATOM     16  O   UNL     1      -7.987  16.061  67.352  0.00  0.00    -0.346 OA
BRANCH  15  17
ATOM     17  C   UNL     1      -8.316  14.057  68.387  0.00  0.00    +0.214 C 
ATOM     18  O   UNL     1      -6.970  13.802  68.423  0.00  0.00    -0.218 OA
ENDBRANCH  15  17
ENDBRANCH   6   8
BRANCH   1  19
ATOM     19  C   UNL     1     -11.677  11.826  67.028  0.00  0.00    +0.053 C 
BRANCH  19  23
ATOM     20  C   UNL     1     -12.507  11.008  70.804  0.00  0.00    +0.139 A 
ATOM     21  C   UNL     1     -11.403  10.344  70.269  0.00  0.00    +0.037 A 
ATOM     22  C   UNL     1     -10.987  10.823  69.025  0.00  0.00    -0.001 A 
ATOM     23  C   UNL     1     -11.622  11.936  68.435  0.00  0.00    -0.018 A 
ATOM     24  C   UNL     1     -11.829  12.835  69.454  0.00  0.00    -0.001 A 
ATOM     25  C   UNL     1     -12.328  12.391  70.695  0.00  0.00    +0.037 A 
BRANCH  20  26
ATOM     26  O   UNL     1     -13.171  10.353  71.802  0.00  0.00    -0.475 OA
BRANCH  26  28
ATOM     27  C   UNL     1     -14.357   8.398  71.825  0.00  0.00    +0.051 C 
ATOM     28  C   UNL     1     -13.099   9.017  72.161  0.00  0.00    +0.206 C 
ENDBRANCH  26  28
ENDBRANCH  20  26
ENDBRANCH  19  23
ENDBRANCH   1  19
TORSDOF 6
ENDMDL
MODEL 2
REMARK VINA RESULT:      -6.7      2.916      4.379
REMARK  Name = 
REMARK  6 active torsions:
REMARK  status: ('A' for Active; 'I' for Inactive)
REMARK    1  A    between atoms: C_2  and  O_3
REMARK    2  A    between atoms: O_3  and  C_4
REMARK    3  A    between atoms: C_7  and  C_8
REMARK    4  A    between atoms: C_8  and  C_9
REMARK    5  A    between atoms: C_11  and  C_12
REMARK    6  A    between atoms: C_14  and  C_15
REMARK                            x       y       z     vdW  Elec       q    Type
REMARK                         _______ _______ _______ _____ _____    ______ ____
ROOT
ATOM      1  C   UNL     1     -12.749  14.034  71.100  0.00  0.00    -0.007 A 
ATOM      2  C   UNL     1     -12.210  14.869  72.076  0.00  0.00    +0.054 A 
ATOM      3 CL   UNL     1     -13.124  15.185  73.560  0.00  0.00    -0.083 Cl
ATOM      4  C   UNL     1     -11.575  15.998  71.685  0.00  0.00    +0.011 A 
ATOM      5  C   UNL     1     -11.301  16.058  70.380  0.00  0.00    -0.001 A 
ATOM      6  C   UNL     1     -11.429  14.992  69.424  0.00  0.00    +0.007 A 
ATOM      7  C   UNL     1     -12.667  14.505  69.784  0.00  0.00    -0.005 A 
ENDROOT
BRANCH   6   8
ATOM      8  C   UNL     1     -11.127  15.987  68.180  0.00  0.00    +0.170 C 
ATOM      9  C   UNL     1      -9.487  16.324  68.718  0.00  0.00    +0.216 C 
ATOM     10  O   UNL     1      -9.271  17.268  67.580  0.00  0.00    -0.217 OA
ATOM     11  C   UNL     1      -8.680  15.047  67.956  0.00  0.00    +0.218 C 
ATOM     12  O   UNL     1      -7.748  14.918  69.132  0.00  0.00    -0.217 OA
ATOM     13  C   UNL     1      -9.647  13.787  68.563  0.00  0.00    +0.214 C 
ATOM     14  O   UNL     1      -8.655  12.751  68.162  0.00  0.00    -0.218 OA
ATOM     15  C   UNL     1     -10.393  13.772  67.021  0.00  0.00    +0.181 C 
ATOM     16  O   UNL     1     -10.791  15.172  67.009  0.00  0.00    -0.346 OA
BRANCH  15  17
ATOM     17  C   UNL     1     -11.872  13.228  67.507  0.00  0.00    +0.214 C 
ATOM     18  O   UNL     1     -12.137  12.211  66.628  0.00  0.00    -0.218 OA
ENDBRANCH  15  17
ENDBRANCH   6   8
BRANCH   1  19
ATOM     19  C   UNL     1     -12.864  12.706  71.633  0.00  0.00    +0.053 C 
BRANCH  19  23
ATOM     20  C   UNL     1     -11.050   9.216  71.253  0.00  0.00    +0.139 A 
ATOM     21  C   UNL     1     -12.427   9.162  71.467  0.00  0.00    +0.037 A 
ATOM     22  C   UNL     1     -13.078  10.393  71.359  0.00  0.00    -0.001 A 
ATOM     23  C   UNL     1     -12.363  11.553  70.989  0.00  0.00    -0.018 A 
ATOM     24  C   UNL     1     -11.511  11.165  69.984  0.00  0.00    -0.001 A 
ATOM     25  C   UNL     1     -10.777   9.967  70.105  0.00  0.00    +0.037 A 
BRANCH  20  26
ATOM     26  O   UNL     1     -10.333   8.147  71.711  0.00  0.00    -0.475 OA
BRANCH  26  28
ATOM     27  C   UNL     1     -10.335   6.999  73.689  0.00  0.00    +0.051 C 
ATOM     28  C   UNL     1      -9.656   8.007  72.912  0.00  0.00    +0.206 C 
ENDBRANCH  26  28
ENDBRANCH  20  26
ENDBRANCH  19  23
ENDBRANCH   1  19
TORSDOF 6
ENDMDL
MODEL 3
REMARK VINA RESULT:      -6.6      3.800      5.488
REMARK  Name = 
REMARK  6 active torsions:
REMARK  status: ('A' for Active; 'I' for Inactive)
REMARK    1  A    between atoms: C_2  and  O_3
REMARK    2  A    between atoms: O_3  and  C_4
REMARK    3  A    between atoms: C_7  and  C_8
REMARK    4  A    between atoms: C_8  and  C_9
REMARK    5  A    between atoms: C_11  and  C_12
REMARK    6  A    between atoms: C_14  and  C_15
REMARK                            x       y       z     vdW  Elec       q    Type
REMARK                         _______ _______ _______ _____ _____    ______ ____
ROOT
ATOM      1  C   UNL     1      -7.712  14.904  68.036  0.00  0.00    -0.007 A 
ATOM      2  C   UNL     1      -6.399  14.761  67.590  0.00  0.00    +0.054 A 
ATOM      3 CL   UNL     1      -5.555  13.223  67.830  0.00  0.00    -0.083 Cl
ATOM      4  C   UNL     1      -5.536  15.786  67.778  0.00  0.00    +0.011 A 
ATOM      5  C   UNL     1      -6.109  16.937  68.137  0.00  0.00    -0.001 A 
ATOM      6  C   UNL     1      -7.516  17.232  68.145  0.00  0.00    +0.007 A 
ATOM      7  C   UNL     1      -7.991  16.082  68.739  0.00  0.00    -0.005 A 
ENDROOT
BRANCH   6   8
ATOM      8  C   UNL     1      -7.278  18.653  68.889  0.00  0.00    +0.170 C 
ATOM      9  C   UNL     1      -6.595  19.404  67.453  0.00  0.00    +0.216 C 
ATOM     10  O   UNL     1      -6.353  20.678  68.192  0.00  0.00    -0.217 OA
ATOM     11  C   UNL     1      -8.020  19.964  66.731  0.00  0.00    +0.218 C 
ATOM     12  O   UNL     1      -7.460  19.662  65.366  0.00  0.00    -0.217 OA
ATOM     13  C   UNL     1      -8.858  18.484  66.733  0.00  0.00    +0.214 C 
ATOM     14  O   UNL     1      -9.878  18.994  65.774  0.00  0.00    -0.218 OA
ATOM     15  C   UNL     1      -9.714  19.103  68.082  0.00  0.00    +0.181 C 
ATOM     16  O   UNL     1      -8.550  19.380  68.911  0.00  0.00    -0.346 OA
BRANCH  15  17
ATOM     17  C   UNL     1     -10.039  17.657  68.807  0.00  0.00    +0.214 C 
ATOM     18  O   UNL     1     -11.289  17.346  68.339  0.00  0.00    -0.218 OA
ENDBRANCH  15  17
ENDBRANCH   6   8
BRANCH   1  19
ATOM     19  C   UNL     1      -8.557  14.014  67.290  0.00  0.00    +0.053 C 
BRANCH  19  23
ATOM     20  C   UNL     1     -11.827  13.685  65.097  0.00  0.00    +0.139 A 
ATOM     21  C   UNL     1     -12.012  13.599  66.477  0.00  0.00    +0.037 A 
ATOM     22  C   UNL     1     -10.894  13.955  67.234  0.00  0.00    -0.001 A 
ATOM     23  C   UNL     1      -9.721  14.425  66.605  0.00  0.00    -0.018 A 
ATOM     24  C   UNL     1     -10.143  15.273  65.609  0.00  0.00    -0.001 A 
ATOM     25  C   UNL     1     -11.217  14.901  64.775  0.00  0.00    +0.037 A 
BRANCH  20  26
ATOM     26  O   UNL     1     -12.730  13.003  64.330  0.00  0.00    -0.475 OA
BRANCH  26  28
ATOM     27  C   UNL     1     -11.113  11.584  63.554  0.00  0.00    +0.051 C 
ATOM     28  C   UNL     1     -12.512  11.927  63.484  0.00  0.00    +0.206 C 
ENDBRANCH  26  28
ENDBRANCH  20  26
ENDBRANCH  19  23
ENDBRANCH   1  19
TORSDOF 6
ENDMDL
MODEL 4
REMARK VINA RESULT:      -6.6      1.144      1.216
REMARK  Name = 
REMARK  6 active torsions:
REMARK  status: ('A' for Active; 'I' for Inactive)
REMARK    1  A    between atoms: C_2  and  O_3
REMARK    2  A    between atoms: O_3  and  C_4
REMARK    3  A    between atoms: C_7  and  C_8
REMARK    4  A    between atoms: C_8  and  C_9
REMARK    5  A    between atoms: C_11  and  C_12
REMARK    6  A    between atoms: C_14  and  C_15
REMARK                            x       y       z     vdW  Elec       q    Type
REMARK                         _______ _______ _______ _____ _____    ______ ____
ROOT
ATOM      1  C   UNL     1     -10.825  12.511  65.679  0.00  0.00    -0.007 A 
ATOM      2  C   UNL     1     -11.959  13.016  65.045  0.00  0.00    +0.054 A 
ATOM      3 CL   UNL     1     -12.841  12.002  63.890  0.00  0.00    -0.083 Cl
ATOM      4  C   UNL     1     -11.941  14.295  64.604  0.00  0.00    +0.011 A 
ATOM      5  C   UNL     1     -10.923  15.026  65.063  0.00  0.00    -0.001 A 
ATOM      6  C   UNL     1      -9.996  14.657  66.099  0.00  0.00    +0.007 A 
ATOM      7  C   UNL     1      -9.716  13.365  65.710  0.00  0.00    -0.005 A 
ENDROOT
BRANCH   6   8
ATOM      8  C   UNL     1      -9.065  15.954  65.816  0.00  0.00    +0.170 C 
ATOM      9  C   UNL     1     -10.258  17.075  66.459  0.00  0.00    +0.216 C 
ATOM     10  O   UNL     1      -9.385  18.243  66.138  0.00  0.00    -0.217 OA
ATOM     11  C   UNL     1      -9.809  17.048  68.091  0.00  0.00    +0.218 C 
ATOM     12  O   UNL     1     -11.253  17.163  68.503  0.00  0.00    -0.217 OA
ATOM     13  C   UNL     1      -9.866  15.361  68.302  0.00  0.00    +0.214 C 
ATOM     14  O   UNL     1      -9.838  15.486  69.786  0.00  0.00    -0.218 OA
ATOM     15  C   UNL     1      -8.157  15.406  68.195  0.00  0.00    +0.181 C 
ATOM     16  O   UNL     1      -8.083  16.062  66.898  0.00  0.00    -0.346 OA
BRANCH  15  17
ATOM     17  C   UNL     1      -7.944  13.891  67.578  0.00  0.00    +0.214 C 
ATOM     18  O   UNL     1      -6.607  13.857  67.283  0.00  0.00    -0.218 OA
ENDBRANCH  15  17
ENDBRANCH   6   8
BRANCH   1  19
ATOM     19  C   UNL     1     -11.211  11.415  66.522  0.00  0.00    +0.053 C 
BRANCH  19  23
ATOM     20  C   UNL     1     -11.273  10.041  70.226  0.00  0.00    +0.139 A 
ATOM     21  C   UNL     1     -10.014  10.112  69.628  0.00  0.00    +0.037 A 
ATOM     22  C   UNL     1      -9.986  10.818  68.423  0.00  0.00    -0.001 A 
ATOM     23  C   UNL     1     -11.150  11.448  67.932  0.00  0.00    -0.018 A 
ATOM     24  C   UNL     1     -11.752  12.027  69.023  0.00  0.00    -0.001 A 
ATOM     25  C   UNL     1     -11.869  11.306  70.229  0.00  0.00    +0.037 A 
BRANCH  20  26
ATOM     26  O   UNL     1     -11.428   9.070  71.175  0.00  0.00    -0.475 OA
BRANCH  26  28
ATOM     27  C   UNL     1     -11.102   7.499  72.805  0.00  0.00    +0.051 C 
ATOM     28  C   UNL     1     -10.514   8.620  72.114  0.00  0.00    +0.206 C 
ENDBRANCH  26  28
ENDBRANCH  20  26
ENDBRANCH  19  23
ENDBRANCH   1  19
TORSDOF 6
ENDMDL
MODEL 5
REMARK VINA RESULT:      -6.6      3.338      5.065
REMARK  Name = 
REMARK  6 active torsions:
REMARK  status: ('A' for Active; 'I' for Inactive)
REMARK    1  A    between atoms: C_2  and  O_3
REMARK    2  A    between atoms: O_3  and  C_4
REMARK    3  A    between atoms: C_7  and  C_8
REMARK    4  A    between atoms: C_8  and  C_9
REMARK    5  A    between atoms: C_11  and  C_12
REMARK    6  A    between atoms: C_14  and  C_15
REMARK                            x       y       z     vdW  Elec       q    Type
REMARK                         _______ _______ _______ _____ _____    ______ ____
ROOT
ATOM      1  C   UNL     1     -10.916  11.684  68.925  0.00  0.00    -0.007 A 
ATOM      2  C   UNL     1     -11.180  10.333  68.708  0.00  0.00    +0.054 A 
ATOM      3 CL   UNL     1     -10.888   9.163  70.007  0.00  0.00    -0.083 Cl
ATOM      4  C   UNL     1     -10.833   9.787  67.520  0.00  0.00    +0.011 A 
ATOM      5  C   UNL     1     -10.511  10.672  66.575  0.00  0.00    -0.001 A 
ATOM      6  C   UNL     1     -10.686  12.098  66.636  0.00  0.00    +0.007 A 
ATOM      7  C   UNL     1     -10.211  12.337  67.907  0.00  0.00    -0.005 A 
ENDROOT
BRANCH   6   8
ATOM      8  C   UNL     1      -9.860  12.322  65.258  0.00  0.00    +0.170 C 
ATOM      9  C   UNL     1     -11.086  11.528  64.277  0.00  0.00    +0.216 C 
ATOM     10  O   UNL     1     -10.268  11.716  63.042  0.00  0.00    -0.217 OA
ATOM     11  C   UNL     1     -12.081  12.858  63.953  0.00  0.00    +0.218 C 
ATOM     12  O   UNL     1     -13.301  11.978  64.030  0.00  0.00    -0.217 OA
ATOM     13  C   UNL     1     -12.314  13.350  65.564  0.00  0.00    +0.214 C 
ATOM     14  O   UNL     1     -13.454  14.234  65.192  0.00  0.00    -0.218 OA
ATOM     15  C   UNL     1     -11.164  14.576  65.234  0.00  0.00    +0.181 C 
ATOM     16  O   UNL     1     -10.092  13.694  64.799  0.00  0.00    -0.346 OA
BRANCH  15  17
ATOM     17  C   UNL     1     -10.579  14.735  66.768  0.00  0.00    +0.214 C 
ATOM     18  O   UNL     1     -10.765  16.065  67.039  0.00  0.00    -0.218 OA
ENDBRANCH  15  17
ENDBRANCH   6   8
BRANCH   1  19
ATOM     19  C   UNL     1     -11.808  12.177  69.937  0.00  0.00    +0.053 C 
BRANCH  19  23
ATOM     20  C   UNL     1     -12.053  15.714  71.680  0.00  0.00    +0.139 A 
ATOM     21  C   UNL     1     -10.944  15.521  70.857  0.00  0.00    +0.037 A 
ATOM     22  C   UNL     1     -11.001  14.368  70.070  0.00  0.00    -0.001 A 
ATOM     23  C   UNL     1     -12.144  13.539  70.094  0.00  0.00    -0.018 A 
ATOM     24  C   UNL     1     -13.224  14.388  70.102  0.00  0.00    -0.001 A 
ATOM     25  C   UNL     1     -13.228  15.515  70.948  0.00  0.00    +0.037 A 
BRANCH  20  26
ATOM     26  O   UNL     1     -11.882  16.589  72.716  0.00  0.00    -0.475 OA
BRANCH  26  28
ATOM     27  C   UNL     1     -12.415  15.128  74.393  0.00  0.00    +0.051 C 
ATOM     28  C   UNL     1     -12.385  16.517  74.005  0.00  0.00    +0.206 C 
ENDBRANCH  26  28
ENDBRANCH  20  26
ENDBRANCH  19  23
ENDBRANCH   1  19
TORSDOF 6
ENDMDL
MODEL 6
REMARK VINA RESULT:      -6.5      3.231      5.380
REMARK  Name = 
REMARK  6 active torsions:
REMARK  status: ('A' for Active; 'I' for Inactive)
REMARK    1  A    between atoms: C_2  and  O_3
REMARK    2  A    between atoms: O_3  and  C_4
REMARK    3  A    between atoms: C_7  and  C_8
REMARK    4  A    between atoms: C_8  and  C_9
REMARK    5  A    between atoms: C_11  and  C_12
REMARK    6  A    between atoms: C_14  and  C_15
REMARK                            x       y       z     vdW  Elec       q    Type
REMARK                         _______ _______ _______ _____ _____    ______ ____
ROOT
ATOM      1  C   UNL     1     -11.594  13.724  68.116  0.00  0.00    -0.007 A 
ATOM      2  C   UNL     1     -11.425  13.704  69.500  0.00  0.00    +0.054 A 
ATOM      3 CL   UNL     1     -12.359  12.562  70.480  0.00  0.00    -0.083 Cl
ATOM      4  C   UNL     1     -11.316  14.882  70.156  0.00  0.00    +0.011 A 
ATOM      5  C   UNL     1     -11.117  15.941  69.368  0.00  0.00    -0.001 A 
ATOM      6  C   UNL     1     -10.816  15.923  67.962  0.00  0.00    +0.007 A 
ATOM      7  C   UNL     1     -11.738  14.991  67.539  0.00  0.00    -0.005 A 
ENDROOT
BRANCH   6   8
ATOM      8  C   UNL     1     -10.973  17.532  67.843  0.00  0.00    +0.170 C 
ATOM      9  C   UNL     1      -9.615  17.844  68.917  0.00  0.00    +0.216 C 
ATOM     10  O   UNL     1      -9.827  19.319  68.813  0.00  0.00    -0.217 OA
ATOM     11  C   UNL     1      -8.359  17.834  67.782  0.00  0.00    +0.218 C 
ATOM     12  O   UNL     1      -7.443  17.183  68.784  0.00  0.00    -0.217 OA
ATOM     13  C   UNL     1      -8.707  16.320  67.090  0.00  0.00    +0.214 C 
ATOM     14  O   UNL     1      -7.379  16.256  66.418  0.00  0.00    -0.218 OA
ATOM     15  C   UNL     1      -9.400  17.199  65.794  0.00  0.00    +0.181 C 
ATOM     16  O   UNL     1     -10.345  17.966  66.593  0.00  0.00    -0.346 OA
BRANCH  15  17
ATOM     17  C   UNL     1     -10.511  16.068  65.341  0.00  0.00    +0.214 C 
ATOM     18  O   UNL     1     -11.205  16.694  64.339  0.00  0.00    -0.218 OA
ENDBRANCH  15  17
ENDBRANCH   6   8
BRANCH   1  19
ATOM     19  C   UNL     1     -11.145  12.472  67.574  0.00  0.00    +0.053 C 
BRANCH  19  23
ATOM     20  C   UNL     1     -10.244  11.736  63.798  0.00  0.00    +0.139 A 
ATOM     21  C   UNL     1     -10.133  10.653  64.669  0.00  0.00    +0.037 A 
ATOM     22  C   UNL     1     -10.681  10.869  65.936  0.00  0.00    -0.001 A 
ATOM     23  C   UNL     1     -11.344  12.080  66.232  0.00  0.00    -0.018 A 
ATOM     24  C   UNL     1     -12.102  12.375  65.125  0.00  0.00    -0.001 A 
ATOM     25  C   UNL     1     -11.546  12.244  63.836  0.00  0.00    +0.037 A 
BRANCH  20  26
ATOM     26  O   UNL     1      -9.412  11.718  62.714  0.00  0.00    -0.475 OA
BRANCH  26  28
ATOM     27  C   UNL     1      -8.978   9.991  61.278  0.00  0.00    +0.051 C 
ATOM     28  C   UNL     1      -8.455  10.776  62.370  0.00  0.00    +0.206 C 
ENDBRANCH  26  28
ENDBRANCH  20  26
ENDBRANCH  19  23
ENDBRANCH   1  19
TORSDOF 6
ENDMDL
MODEL 7
REMARK VINA RESULT:      -6.5      2.988      5.719
REMARK  Name = 
REMARK  6 active torsions:
REMARK  status: ('A' for Active; 'I' for Inactive)
REMARK    1  A    between atoms: C_2  and  O_3
REMARK    2  A    between atoms: O_3  and  C_4
REMARK    3  A    between atoms: C_7  and  C_8
REMARK    4  A    between atoms: C_8  and  C_9
REMARK    5  A    between atoms: C_11  and  C_12
REMARK    6  A    between atoms: C_14  and  C_15
REMARK                            x       y       z     vdW  Elec       q    Type
REMARK                         _______ _______ _______ _____ _____    ______ ____
ROOT
ATOM      1  C   UNL     1     -11.050  11.839  68.873  0.00  0.00    -0.007 A 
ATOM      2  C   UNL     1     -11.295  10.468  68.828  0.00  0.00    +0.054 A 
ATOM      3 CL   UNL     1     -11.068   9.489  70.287  0.00  0.00    -0.083 Cl
ATOM      4  C   UNL     1     -10.881   9.770  67.746  0.00  0.00    +0.011 A 
ATOM      5  C   UNL     1     -10.513  10.523  66.707  0.00  0.00    -0.001 A 
ATOM      6  C   UNL     1     -10.698  11.942  66.564  0.00  0.00    +0.007 A 
ATOM      7  C   UNL     1     -10.294  12.356  67.814  0.00  0.00    -0.005 A 
ENDROOT
BRANCH   6   8
ATOM      8  C   UNL     1      -9.799  11.987  65.215  0.00  0.00    +0.170 C 
ATOM      9  C   UNL     1     -11.075  11.293  64.222  0.00  0.00    +0.216 C 
ATOM     10  O   UNL     1     -10.194  11.312  63.016  0.00  0.00    -0.217 OA
ATOM     11  C   UNL     1     -11.887  12.713  63.787  0.00  0.00    +0.218 C 
ATOM     12  O   UNL     1     -13.208  11.992  63.855  0.00  0.00    -0.217 OA
ATOM     13  C   UNL     1     -12.118  13.319  65.359  0.00  0.00    +0.214 C 
ATOM     14  O   UNL     1     -13.126  14.311  64.892  0.00  0.00    -0.218 OA
ATOM     15  C   UNL     1     -10.815  14.377  65.018  0.00  0.00    +0.181 C 
ATOM     16  O   UNL     1      -9.843  13.349  64.677  0.00  0.00    -0.346 OA
BRANCH  15  17
ATOM     17  C   UNL     1     -10.272  14.550  66.566  0.00  0.00    +0.214 C 
ATOM     18  O   UNL     1      -9.079  15.205  66.409  0.00  0.00    -0.218 OA
ENDBRANCH  15  17
ENDBRANCH   6   8
BRANCH   1  19
ATOM     19  C   UNL     1     -11.997  12.454  69.760  0.00  0.00    +0.053 C 
BRANCH  19  23
ATOM     20  C   UNL     1     -10.905  16.250  69.659  0.00  0.00    +0.139 A 
ATOM     21  C   UNL     1     -12.030  15.923  68.901  0.00  0.00    +0.037 A 
ATOM     22  C   UNL     1     -12.536  14.643  69.139  0.00  0.00    -0.001 A 
ATOM     23  C   UNL     1     -11.961  13.817  70.128  0.00  0.00    -0.018 A 
ATOM     24  C   UNL     1     -11.704  14.636  71.201  0.00  0.00    -0.001 A 
ATOM     25  C   UNL     1     -11.116  15.901  70.996  0.00  0.00    +0.037 A 
BRANCH  20  26
ATOM     26  O   UNL     1     -10.165  17.304  69.203  0.00  0.00    -0.475 OA
BRANCH  26  28
ATOM     27  C   UNL     1      -9.848  19.385  68.308  0.00  0.00    +0.051 C 
ATOM     28  C   UNL     1     -10.340  18.054  68.050  0.00  0.00    +0.206 C 
ENDBRANCH  26  28
ENDBRANCH  20  26
ENDBRANCH  19  23
ENDBRANCH   1  19
TORSDOF 6
ENDMDL
MODEL 8
REMARK VINA RESULT:      -6.4      3.354      7.485
REMARK  Name = 
REMARK  6 active torsions:
REMARK  status: ('A' for Active; 'I' for Inactive)
REMARK    1  A    between atoms: C_2  and  O_3
REMARK    2  A    between atoms: O_3  and  C_4
REMARK    3  A    between atoms: C_7  and  C_8
REMARK    4  A    between atoms: C_8  and  C_9
REMARK    5  A    between atoms: C_11  and  C_12
REMARK    6  A    between atoms: C_14  and  C_15
REMARK                            x       y       z     vdW  Elec       q    Type
REMARK                         _______ _______ _______ _____ _____    ______ ____
ROOT
ATOM      1  C   UNL     1     -10.543  16.256  69.430  0.00  0.00    -0.007 A 
ATOM      2  C   UNL     1     -11.633  15.833  70.188  0.00  0.00    +0.054 A 
ATOM      3 CL   UNL     1     -11.781  16.352  71.876  0.00  0.00    -0.083 Cl
ATOM      4  C   UNL     1     -12.047  14.550  70.070  0.00  0.00    +0.011 A 
ATOM      5  C   UNL     1     -11.525  13.892  69.033  0.00  0.00    -0.001 A 
ATOM      6  C   UNL     1     -10.754  14.453  67.957  0.00  0.00    +0.007 A 
ATOM      7  C   UNL     1      -9.904  15.264  68.677  0.00  0.00    -0.005 A 
ENDROOT
BRANCH   6   8
ATOM      8  C   UNL     1     -10.392  12.987  67.367  0.00  0.00    +0.170 C 
ATOM      9  C   UNL     1     -12.046  12.673  66.856  0.00  0.00    +0.216 C 
ATOM     10  O   UNL     1     -11.674  11.312  66.369  0.00  0.00    -0.217 OA
ATOM     11  C   UNL     1     -11.990  13.362  65.311  0.00  0.00    +0.218 C 
ATOM     12  O   UNL     1     -13.409  13.845  65.462  0.00  0.00    -0.217 OA
ATOM     13  C   UNL     1     -11.403  14.889  65.776  0.00  0.00    +0.214 C 
ATOM     14  O   UNL     1     -11.752  15.490  64.459  0.00  0.00    -0.218 OA
ATOM     15  C   UNL     1      -9.881  14.349  65.207  0.00  0.00    +0.181 C 
ATOM     16  O   UNL     1      -9.799  13.157  66.039  0.00  0.00    -0.346 OA
BRANCH  15  17
ATOM     17  C   UNL     1      -8.944  15.264  66.210  0.00  0.00    +0.214 C 
ATOM     18  O   UNL     1      -8.848  16.459  65.547  0.00  0.00    -0.218 OA
ENDBRANCH  15  17
ENDBRANCH   6   8
BRANCH   1  19
ATOM     19  C   UNL     1     -10.611  17.681  69.269  0.00  0.00    +0.053 C 
BRANCH  19  23
ATOM     20  C   UNL     1      -8.239  19.439  66.644  0.00  0.00    +0.139 A 
ATOM     21  C   UNL     1      -9.320  20.201  67.089  0.00  0.00    +0.037 A 
ATOM     22  C   UNL     1      -9.999  19.659  68.182  0.00  0.00    -0.001 A 
ATOM     23  C   UNL     1      -9.542  18.471  68.793  0.00  0.00    -0.018 A 
ATOM     24  C   UNL     1      -8.174  18.580  68.852  0.00  0.00    -0.001 A 
ATOM     25  C   UNL     1      -7.455  19.047  67.733  0.00  0.00    +0.037 A 
BRANCH  20  26
ATOM     26  O   UNL     1      -7.794  19.716  65.382  0.00  0.00    -0.475 OA
BRANCH  26  28
ATOM     27  C   UNL     1      -5.851  19.112  64.337  0.00  0.00    +0.051 C 
ATOM     28  C   UNL     1      -6.554  20.192  64.984  0.00  0.00    +0.206 C 
ENDBRANCH  26  28
ENDBRANCH  20  26
ENDBRANCH  19  23
ENDBRANCH   1  19
TORSDOF 6
ENDMDL
MODEL 9
REMARK VINA RESULT:      -6.1      3.514      7.587
REMARK  Name = 
REMARK  6 active torsions:
REMARK  status: ('A' for Active; 'I' for Inactive)
REMARK    1  A    between atoms: C_2  and  O_3
REMARK    2  A    between atoms: O_3  and  C_4
REMARK    3  A    between atoms: C_7  and  C_8
REMARK    4  A    between atoms: C_8  and  C_9
REMARK    5  A    between atoms: C_11  and  C_12
REMARK    6  A    between atoms: C_14  and  C_15
REMARK                            x       y       z     vdW  Elec       q    Type
REMARK                         _______ _______ _______ _____ _____    ______ ____
ROOT
ATOM      1  C   UNL     1     -10.474  16.011  67.254  0.00  0.00    -0.007 A 
ATOM      2  C   UNL     1     -10.297  16.777  66.103  0.00  0.00    +0.054 A 
ATOM      3 CL   UNL     1     -10.238  18.543  66.226  0.00  0.00    -0.083 Cl
ATOM      4  C   UNL     1     -10.963  16.422  64.980  0.00  0.00    +0.011 A 
ATOM      5  C   UNL     1     -11.520  15.210  65.023  0.00  0.00    -0.001 A 
ATOM      6  C   UNL     1     -11.316  14.205  66.031  0.00  0.00    +0.007 A 
ATOM      7  C   UNL     1     -11.422  14.986  67.162  0.00  0.00    -0.005 A 
ENDROOT
BRANCH   6   8
ATOM      8  C   UNL     1     -12.485  13.263  65.418  0.00  0.00    +0.170 C 
ATOM      9  C   UNL     1     -11.642  13.042  63.890  0.00  0.00    +0.216 C 
ATOM     10  O   UNL     1     -12.764  12.217  63.351  0.00  0.00    -0.217 OA
ATOM     11  C   UNL     1     -10.699  11.695  64.290  0.00  0.00    +0.218 C 
ATOM     12  O   UNL     1      -9.565  12.226  63.452  0.00  0.00    -0.217 OA
ATOM     13  C   UNL     1      -9.986  12.339  65.693  0.00  0.00    +0.214 C 
ATOM     14  O   UNL     1      -8.946  11.273  65.726  0.00  0.00    -0.218 OA
ATOM     15  C   UNL     1     -11.103  11.376  66.563  0.00  0.00    +0.181 C 
ATOM     16  O   UNL     1     -12.308  11.908  65.944  0.00  0.00    -0.346 OA
BRANCH  15  17
ATOM     17  C   UNL     1     -11.217  12.338  67.899  0.00  0.00    +0.214 C 
ATOM     18  O   UNL     1     -11.908  11.559  68.789  0.00  0.00    -0.218 OA
ENDBRANCH  15  17
ENDBRANCH   6   8
BRANCH   1  19
ATOM     19  C   UNL     1      -9.334  16.184  68.109  0.00  0.00    +0.053 C 
BRANCH  19  23
ATOM     20  C   UNL     1      -6.656  18.693  66.644  0.00  0.00    +0.139 A 
ATOM     21  C   UNL     1      -6.755  18.658  68.035  0.00  0.00    +0.037 A 
ATOM     22  C   UNL     1      -7.525  17.604  68.534  0.00  0.00    -0.001 A 
ATOM     23  C   UNL     1      -8.076  16.642  67.660  0.00  0.00    -0.018 A 
ATOM     24  C   UNL     1      -7.095  16.366  66.738  0.00  0.00    -0.001 A 
ATOM     25  C   UNL     1      -6.359  17.418  66.156  0.00  0.00    +0.037 A 
BRANCH  20  26
ATOM     26  O   UNL     1      -6.251  19.882  66.105  0.00  0.00    -0.475 OA
BRANCH  26  28
ATOM     27  C   UNL     1      -4.682  21.466  66.615  0.00  0.00    +0.051 C 
ATOM     28  C   UNL     1      -6.073  21.104  66.734  0.00  0.00    +0.206 C 
ENDBRANCH  26  28
ENDBRANCH  20  26
ENDBRANCH  19  23
ENDBRANCH   1  19
TORSDOF 6
ENDMDL
