MODEL 1
REMARK VINA RESULT:      -7.1      0.000      0.000
REMARK  Name = 
REMARK  0 active torsions:
REMARK  status: ('A' for Active; 'I' for Inactive)
REMARK                            x       y       z     vdW  Elec       q    Type
REMARK                         _______ _______ _______ _____ _____    ______ ____
ROOT
ATOM      1  N   UNL     1     -14.332  15.964  72.530  0.00  0.00    -0.128 NA
ATOM      2  C   UNL     1     -13.428  15.004  71.974  0.00  0.00    +0.091 A 
ATOM      3  C   UNL     1     -12.634  15.404  70.907  0.00  0.00    +0.037 A 
ATOM      4  C   UNL     1     -12.180  14.519  69.949  0.00  0.00    +0.083 A 
ATOM      5  C   UNL     1     -12.089  13.193  70.352  0.00  0.00    +0.018 A 
ATOM      6  C   UNL     1     -11.596  12.310  69.400  0.00  0.00    +0.003 A 
ATOM      7  C   UNL     1     -11.489  12.695  68.068  0.00  0.00    +0.018 A 
ATOM      8  C   UNL     1     -11.658  14.020  67.692  0.00  0.00    +0.083 A 
ATOM      9  C   UNL     1     -12.221  14.211  66.436  0.00  0.00    +0.037 A 
ATOM     10  C   UNL     1     -12.119  13.258  65.461  0.00  0.00    +0.091 A 
ATOM     11  N   UNL     1     -12.606  13.439  64.145  0.00  0.00    -0.128 NA
ATOM     12  C   UNL     1     -11.634  11.998  65.773  0.00  0.00    +0.018 A 
ATOM     13  C   UNL     1     -11.293  11.728  67.090  0.00  0.00    +0.003 A 
ATOM     14  C   UNL     1     -12.977  12.760  71.327  0.00  0.00    +0.003 A 
ATOM     15  N   UNL     1     -11.872  14.899  68.688  0.00  0.00    -0.245 NA
ATOM     16  C   UNL     1     -13.689  13.655  72.117  0.00  0.00    +0.018 A 
ENDROOT
TORSDOF 0
ENDMDL
MODEL 2
REMARK VINA RESULT:      -6.6      2.962      4.021
REMARK  Name = 
REMARK  0 active torsions:
REMARK  status: ('A' for Active; 'I' for Inactive)
REMARK                            x       y       z     vdW  Elec       q    Type
REMARK                         _______ _______ _______ _____ _____    ______ ____
ROOT
ATOM      1  N   UNL     1     -12.813  16.095  74.369  0.00  0.00    -0.128 NA
ATOM      2  C   UNL     1     -12.816  15.593  73.029  0.00  0.00    +0.091 A 
ATOM      3  C   UNL     1     -13.426  14.367  72.797  0.00  0.00    +0.037 A 
ATOM      4  C   UNL     1     -13.035  13.528  71.772  0.00  0.00    +0.083 A 
ATOM      5  C   UNL     1     -12.410  14.145  70.697  0.00  0.00    +0.018 A 
ATOM      6  C   UNL     1     -12.051  13.304  69.650  0.00  0.00    +0.003 A 
ATOM      7  C   UNL     1     -12.062  11.924  69.817  0.00  0.00    +0.018 A 
ATOM      8  C   UNL     1     -12.633  11.345  70.942  0.00  0.00    +0.083 A 
ATOM      9  C   UNL     1     -12.027  10.171  71.375  0.00  0.00    +0.037 A 
ATOM     10  C   UNL     1     -11.321   9.379  70.513  0.00  0.00    +0.091 A 
ATOM     11  N   UNL     1     -10.755   8.137  70.888  0.00  0.00    -0.128 NA
ATOM     12  C   UNL     1     -11.019   9.837  69.241  0.00  0.00    +0.018 A 
ATOM     13  C   UNL     1     -11.419  11.118  68.886  0.00  0.00    +0.003 A 
ATOM     14  C   UNL     1     -11.686  15.301  70.956  0.00  0.00    +0.003 A 
ATOM     15  N   UNL     1     -13.214  12.188  71.815  0.00  0.00    -0.245 NA
ATOM     16  C   UNL     1     -11.846  16.012  72.139  0.00  0.00    +0.018 A 
ENDROOT
TORSDOF 0
ENDMDL
MODEL 3
REMARK VINA RESULT:      -6.3      2.309      5.735
REMARK  Name = 
REMARK  0 active torsions:
REMARK  status: ('A' for Active; 'I' for Inactive)
REMARK                            x       y       z     vdW  Elec       q    Type
REMARK                         _______ _______ _______ _____ _____    ______ ____
ROOT
ATOM      1  N   UNL     1      -7.963  15.989  66.668  0.00  0.00    -0.128 NA
ATOM      2  C   UNL     1      -9.127  15.286  67.112  0.00  0.00    +0.091 A 
ATOM      3  C   UNL     1     -10.142  16.024  67.708  0.00  0.00    +0.037 A 
ATOM      4  C   UNL     1     -10.996  15.483  68.649  0.00  0.00    +0.083 A 
ATOM      5  C   UNL     1     -11.156  14.105  68.593  0.00  0.00    +0.018 A 
ATOM      6  C   UNL     1     -12.044  13.567  69.516  0.00  0.00    +0.003 A 
ATOM      7  C   UNL     1     -12.498  14.329  70.587  0.00  0.00    +0.018 A 
ATOM      8  C   UNL     1     -12.256  15.695  70.644  0.00  0.00    +0.083 A 
ATOM      9  C   UNL     1     -12.085  16.211  71.923  0.00  0.00    +0.037 A 
ATOM     10  C   UNL     1     -12.625  15.591  73.016  0.00  0.00    +0.091 A 
ATOM     11  N   UNL     1     -12.545  16.120  74.326  0.00  0.00    -0.128 NA
ATOM     12  C   UNL     1     -13.173  14.325  72.893  0.00  0.00    +0.018 A 
ATOM     13  C   UNL     1     -13.128  13.702  71.654  0.00  0.00    +0.003 A 
ATOM     14  C   UNL     1     -10.086  13.357  68.121  0.00  0.00    +0.003 A 
ATOM     15  N   UNL     1     -11.617  16.231  69.589  0.00  0.00    -0.245 NA
ATOM     16  C   UNL     1      -9.040  13.941  67.417  0.00  0.00    +0.018 A 
ENDROOT
TORSDOF 0
ENDMDL
MODEL 4
REMARK VINA RESULT:      -6.2      1.783      2.101
REMARK  Name = 
REMARK  0 active torsions:
REMARK  status: ('A' for Active; 'I' for Inactive)
REMARK                            x       y       z     vdW  Elec       q    Type
REMARK                         _______ _______ _______ _____ _____    ______ ____
ROOT
ATOM      1  N   UNL     1     -13.121  16.309  73.949  0.00  0.00    -0.128 NA
ATOM      2  C   UNL     1     -12.754  15.310  72.992  0.00  0.00    +0.091 A 
ATOM      3  C   UNL     1     -11.583  15.503  72.270  0.00  0.00    +0.037 A 
ATOM      4  C   UNL     1     -11.403  14.992  71.001  0.00  0.00    +0.083 A 
ATOM      5  C   UNL     1     -12.170  13.878  70.688  0.00  0.00    +0.018 A 
ATOM      6  C   UNL     1     -11.960  13.341  69.424  0.00  0.00    +0.003 A 
ATOM      7  C   UNL     1     -11.251  14.054  68.463  0.00  0.00    +0.018 A 
ATOM      8  C   UNL     1     -10.553  15.206  68.799  0.00  0.00    +0.083 A 
ATOM      9  C   UNL     1     -10.498  16.175  67.804  0.00  0.00    +0.037 A 
ATOM     10  C   UNL     1     -10.624  15.842  66.483  0.00  0.00    +0.091 A 
ATOM     11  N   UNL     1     -10.495  16.780  65.432  0.00  0.00    -0.128 NA
ATOM     12  C   UNL     1     -11.019  14.563  66.126  0.00  0.00    +0.018 A 
ATOM     13  C   UNL     1     -11.310  13.655  67.133  0.00  0.00    +0.003 A 
ATOM     14  C   UNL     1     -13.405  13.756  71.312  0.00  0.00    +0.003 A 
ATOM     15  N   UNL     1     -10.562  15.548  70.100  0.00  0.00    -0.245 NA
ATOM     16  C   UNL     1     -13.728  14.501  72.440  0.00  0.00    +0.018 A 
ENDROOT
TORSDOF 0
ENDMDL
MODEL 5
REMARK VINA RESULT:      -6.2      1.289      5.710
REMARK  Name = 
REMARK  0 active torsions:
REMARK  status: ('A' for Active; 'I' for Inactive)
REMARK                            x       y       z     vdW  Elec       q    Type
REMARK                         _______ _______ _______ _____ _____    ______ ____
ROOT
ATOM      1  N   UNL     1     -13.020  12.239  64.017  0.00  0.00    -0.128 NA
ATOM      2  C   UNL     1     -12.153  12.936  64.918  0.00  0.00    +0.091 A 
ATOM      3  C   UNL     1     -11.856  12.329  66.131  0.00  0.00    +0.037 A 
ATOM      4  C   UNL     1     -11.549  13.053  67.266  0.00  0.00    +0.083 A 
ATOM      5  C   UNL     1     -11.038  14.326  67.046  0.00  0.00    +0.018 A 
ATOM      6  C   UNL     1     -10.694  15.039  68.187  0.00  0.00    +0.003 A 
ATOM      7  C   UNL     1     -11.111  14.608  69.442  0.00  0.00    +0.018 A 
ATOM      8  C   UNL     1     -11.684  13.355  69.613  0.00  0.00    +0.083 A 
ATOM      9  C   UNL     1     -12.650  13.278  70.609  0.00  0.00    +0.037 A 
ATOM     10  C   UNL     1     -12.657  14.154  71.659  0.00  0.00    +0.091 A 
ATOM     11  N   UNL     1     -13.569  14.066  72.737  0.00  0.00    -0.128 NA
ATOM     12  C   UNL     1     -11.828  15.264  71.640  0.00  0.00    +0.018 A 
ATOM     13  C   UNL     1     -11.029  15.474  70.525  0.00  0.00    +0.003 A 
ATOM     14  C   UNL     1     -11.444  14.986  65.894  0.00  0.00    +0.003 A 
ATOM     15  N   UNL     1     -11.757  12.580  68.515  0.00  0.00    -0.245 NA
ATOM     16  C   UNL     1     -12.044  14.310  64.838  0.00  0.00    +0.018 A 
ENDROOT
TORSDOF 0
ENDMDL
MODEL 6
REMARK VINA RESULT:      -6.2      4.153      4.563
REMARK  Name = 
REMARK  0 active torsions:
REMARK  status: ('A' for Active; 'I' for Inactive)
REMARK                            x       y       z     vdW  Elec       q    Type
REMARK                         _______ _______ _______ _____ _____    ______ ____
ROOT
ATOM      1  N   UNL     1     -10.766  19.984  67.659  0.00  0.00    -0.128 NA
ATOM      2  C   UNL     1     -10.074  18.749  67.455  0.00  0.00    +0.091 A 
ATOM      3  C   UNL     1     -10.174  18.148  66.207  0.00  0.00    +0.037 A 
ATOM      4  C   UNL     1     -10.075  16.782  66.032  0.00  0.00    +0.083 A 
ATOM      5  C   UNL     1      -9.367  16.102  67.014  0.00  0.00    +0.018 A 
ATOM      6  C   UNL     1      -9.235  14.733  66.817  0.00  0.00    +0.003 A 
ATOM      7  C   UNL     1     -10.007  14.078  65.864  0.00  0.00    +0.018 A 
ATOM      8  C   UNL     1     -10.761  14.793  64.942  0.00  0.00    +0.083 A 
ATOM      9  C   UNL     1     -11.949  14.186  64.553  0.00  0.00    +0.037 A 
ATOM     10  C   UNL     1     -12.109  12.830  64.625  0.00  0.00    +0.091 A 
ATOM     11  N   UNL     1     -13.269  12.161  64.167  0.00  0.00    -0.128 NA
ATOM     12  C   UNL     1     -11.168  12.056  65.283  0.00  0.00    +0.018 A 
ATOM     13  C   UNL     1     -10.092  12.692  65.887  0.00  0.00    +0.003 A 
ATOM     14  C   UNL     1      -9.379  16.634  68.296  0.00  0.00    +0.003 A 
ATOM     15  N   UNL     1     -10.651  16.133  64.996  0.00  0.00    -0.245 NA
ATOM     16  C   UNL     1      -9.774  17.945  68.537  0.00  0.00    +0.018 A 
ENDROOT
TORSDOF 0
ENDMDL
MODEL 7
REMARK VINA RESULT:      -6.1      2.193      5.808
REMARK  Name = 
REMARK  0 active torsions:
REMARK  status: ('A' for Active; 'I' for Inactive)
REMARK                            x       y       z     vdW  Elec       q    Type
REMARK                         _______ _______ _______ _____ _____    ______ ____
ROOT
ATOM      1  N   UNL     1     -11.841  11.748  63.507  0.00  0.00    -0.128 NA
ATOM      2  C   UNL     1     -11.635  12.477  64.721  0.00  0.00    +0.091 A 
ATOM      3  C   UNL     1     -11.024  11.816  65.779  0.00  0.00    +0.037 A 
ATOM      4  C   UNL     1     -11.265  12.147  67.097  0.00  0.00    +0.083 A 
ATOM      5  C   UNL     1     -11.695  13.448  67.320  0.00  0.00    +0.018 A 
ATOM      6  C   UNL     1     -11.901  13.791  68.651  0.00  0.00    +0.003 A 
ATOM      7  C   UNL     1     -11.948  12.810  69.635  0.00  0.00    +0.018 A 
ATOM      8  C   UNL     1     -11.578  11.501  69.356  0.00  0.00    +0.083 A 
ATOM      9  C   UNL     1     -12.272  10.527  70.064  0.00  0.00    +0.037 A 
ATOM     10  C   UNL     1     -12.849  10.805  71.272  0.00  0.00    +0.091 A 
ATOM     11  N   UNL     1     -13.496   9.828  72.066  0.00  0.00    -0.128 NA
ATOM     12  C   UNL     1     -12.933  12.115  71.713  0.00  0.00    +0.018 A 
ATOM     13  C   UNL     1     -12.452  13.124  70.890  0.00  0.00    +0.003 A 
ATOM     14  C   UNL     1     -12.425  14.062  66.310  0.00  0.00    +0.003 A 
ATOM     15  N   UNL     1     -11.125  11.263  68.111  0.00  0.00    -0.245 NA
ATOM     16  C   UNL     1     -12.440  13.561  65.014  0.00  0.00    +0.018 A 
ENDROOT
TORSDOF 0
ENDMDL
MODEL 8
REMARK VINA RESULT:      -6.0      2.958      5.763
REMARK  Name = 
REMARK  0 active torsions:
REMARK  status: ('A' for Active; 'I' for Inactive)
REMARK                            x       y       z     vdW  Elec       q    Type
REMARK                         _______ _______ _______ _____ _____    ______ ____
ROOT
ATOM      1  N   UNL     1      -8.805   8.501  69.355  0.00  0.00    -0.128 NA
ATOM      2  C   UNL     1     -10.087   8.919  69.836  0.00  0.00    +0.091 A 
ATOM      3  C   UNL     1     -10.640  10.071  69.292  0.00  0.00    +0.037 A 
ATOM      4  C   UNL     1     -11.511  10.878  69.996  0.00  0.00    +0.083 A 
ATOM      5  C   UNL     1     -12.211  10.255  71.020  0.00  0.00    +0.018 A 
ATOM      6  C   UNL     1     -13.116  11.059  71.703  0.00  0.00    +0.003 A 
ATOM      7  C   UNL     1     -13.089  12.441  71.549  0.00  0.00    +0.018 A 
ATOM      8  C   UNL     1     -12.319  13.034  70.557  0.00  0.00    +0.083 A 
ATOM      9  C   UNL     1     -11.796  14.280  70.881  0.00  0.00    +0.037 A 
ATOM     10  C   UNL     1     -12.394  15.078  71.817  0.00  0.00    +0.091 A 
ATOM     11  N   UNL     1     -11.945  16.385  72.122  0.00  0.00    -0.128 NA
ATOM     12  C   UNL     1     -13.411  14.573  72.610  0.00  0.00    +0.018 A 
ATOM     13  C   UNL     1     -13.776  13.243  72.451  0.00  0.00    +0.003 A 
ATOM     14  C   UNL     1     -11.597   9.184  71.655  0.00  0.00    +0.003 A 
ATOM     15  N   UNL     1     -11.659  12.197  69.737  0.00  0.00    -0.245 NA
ATOM     16  C   UNL     1     -10.504   8.534  71.096  0.00  0.00    +0.018 A 
ENDROOT
TORSDOF 0
ENDMDL
MODEL 9
REMARK VINA RESULT:      -6.0      7.355      8.986
REMARK  Name = 
REMARK  0 active torsions:
REMARK  status: ('A' for Active; 'I' for Inactive)
REMARK                            x       y       z     vdW  Elec       q    Type
REMARK                         _______ _______ _______ _____ _____    ______ ____
ROOT
ATOM      1  N   UNL     1     -11.294  16.979  68.452  0.00  0.00    -0.128 NA
ATOM      2  C   UNL     1     -10.212  17.783  67.973  0.00  0.00    +0.091 A 
ATOM      3  C   UNL     1      -8.918  17.359  68.247  0.00  0.00    +0.037 A 
ATOM      4  C   UNL     1      -7.861  18.239  68.370  0.00  0.00    +0.083 A 
ATOM      5  C   UNL     1      -8.010  19.452  67.711  0.00  0.00    +0.018 A 
ATOM      6  C   UNL     1      -6.930  20.321  67.805  0.00  0.00    +0.003 A 
ATOM      7  C   UNL     1      -5.918  20.093  68.730  0.00  0.00    +0.018 A 
ATOM      8  C   UNL     1      -5.843  18.893  69.425  0.00  0.00    +0.083 A 
ATOM      9  C   UNL     1      -5.336  18.989  70.716  0.00  0.00    +0.037 A 
ATOM     10  C   UNL     1      -4.505  20.013  71.077  0.00  0.00    +0.091 A 
ATOM     11  N   UNL     1      -3.902  20.108  72.354  0.00  0.00    -0.128 NA
ATOM     12  C   UNL     1      -4.320  21.088  70.224  0.00  0.00    +0.018 A 
ATOM     13  C   UNL     1      -5.019  21.110  69.026  0.00  0.00    +0.003 A 
ATOM     14  C   UNL     1      -9.301  19.941  67.556  0.00  0.00    +0.003 A 
ATOM     15  N   UNL     1      -6.762  17.964  69.108  0.00  0.00    -0.245 NA
ATOM     16  C   UNL     1     -10.414  19.128  67.728  0.00  0.00    +0.018 A 
ENDROOT
TORSDOF 0
ENDMDL
