MODEL 1
REMARK VINA RESULT:      -7.3      0.000      0.000
REMARK  Name = 
REMARK  1 active torsions:
REMARK  status: ('A' for Active; 'I' for Inactive)
REMARK    1  A    between atoms: N_10  and  C_11
REMARK                            x       y       z     vdW  Elec       q    Type
REMARK                         _______ _______ _______ _____ _____    ______ ____
ROOT
ATOM      1  N   UNL     1     -11.110  13.524  64.365  0.00  0.00    -0.128 NA
ATOM      2  C   UNL     1     -11.145  13.319  65.780  0.00  0.00    +0.094 A 
ATOM      3  C   UNL     1     -11.331  14.473  66.532  0.00  0.00    +0.075 A 
ATOM      4  C   UNL     1     -10.514  15.693  66.442  0.00  0.00    +0.257 C 
ATOM      5  N   UNL     1     -10.737  16.443  67.576  0.00  0.00    -0.216 N 
ATOM      6  C   UNL     1     -11.519  15.636  68.465  0.00  0.00    +0.255 C 
ATOM      7  O   UNL     1     -12.161  16.082  69.465  0.00  0.00    -0.269 OA
ATOM      8  O   UNL     1     -10.147  16.228  65.360  0.00  0.00    -0.269 OA
ATOM      9  C   UNL     1     -11.868  14.366  67.809  0.00  0.00    +0.060 A 
ATOM     10  C   UNL     1     -11.850  13.104  68.396  0.00  0.00    +0.005 A 
ATOM     11  C   UNL     1     -11.460  11.966  67.711  0.00  0.00    +0.002 A 
ATOM     12  C   UNL     1     -11.287  12.051  66.334  0.00  0.00    +0.018 A 
ENDROOT
BRANCH   5  13
ATOM     13  C   UNL     1      -9.852  17.609  68.141  0.00  0.00    +0.162 C 
ATOM     14  C   UNL     1     -10.172  18.650  66.958  0.00  0.00    +0.266 C 
ATOM     15  O   UNL     1     -11.039  19.478  67.380  0.00  0.00    -0.271 OA
ATOM     16  N   UNL     1      -9.203  19.097  66.089  0.00  0.00    -0.143 NA
ATOM     17  C   UNL     1      -7.788  18.902  66.230  0.00  0.00    +0.248 C 
ATOM     18  O   UNL     1      -7.088  18.665  65.199  0.00  0.00    -0.273 OA
ATOM     19  C   UNL     1      -7.474  18.127  67.475  0.00  0.00    +0.089 C 
ATOM     20  C   UNL     1      -8.479  17.015  67.455  0.00  0.00    +0.039 C 
ENDBRANCH   5  13
TORSDOF 1
ENDMDL
MODEL 2
REMARK VINA RESULT:      -7.1      3.186      5.184
REMARK  Name = 
REMARK  1 active torsions:
REMARK  status: ('A' for Active; 'I' for Inactive)
REMARK    1  A    between atoms: N_10  and  C_11
REMARK                            x       y       z     vdW  Elec       q    Type
REMARK                         _______ _______ _______ _____ _____    ______ ____
ROOT
ATOM      1  N   UNL     1     -12.141  15.972  71.327  0.00  0.00    -0.128 NA
ATOM      2  C   UNL     1     -12.632  14.630  71.271  0.00  0.00    +0.094 A 
ATOM      3  C   UNL     1     -12.013  13.823  70.324  0.00  0.00    +0.075 A 
ATOM      4  C   UNL     1     -11.874  14.136  68.893  0.00  0.00    +0.257 C 
ATOM      5  N   UNL     1     -11.576  12.967  68.225  0.00  0.00    -0.216 N 
ATOM      6  C   UNL     1     -11.716  11.898  69.169  0.00  0.00    +0.255 C 
ATOM      7  O   UNL     1     -11.245  10.731  69.008  0.00  0.00    -0.269 OA
ATOM      8  O   UNL     1     -11.530  15.261  68.439  0.00  0.00    -0.269 OA
ATOM      9  C   UNL     1     -12.028  12.445  70.499  0.00  0.00    +0.060 A 
ATOM     10  C   UNL     1     -12.958  11.935  71.401  0.00  0.00    +0.005 A 
ATOM     11  C   UNL     1     -13.740  12.745  72.207  0.00  0.00    +0.002 A 
ATOM     12  C   UNL     1     -13.436  14.100  72.274  0.00  0.00    +0.018 A 
ENDROOT
BRANCH   5  13
ATOM     13  C   UNL     1     -11.703  12.685  66.688  0.00  0.00    +0.162 C 
ATOM     14  C   UNL     1     -10.217  13.164  66.306  0.00  0.00    +0.266 C 
ATOM     15  O   UNL     1      -9.492  12.132  66.151  0.00  0.00    -0.271 OA
ATOM     16  N   UNL     1      -9.979  14.260  65.508  0.00  0.00    -0.143 NA
ATOM     17  C   UNL     1     -10.960  14.974  64.740  0.00  0.00    +0.248 C 
ATOM     18  O   UNL     1     -10.885  16.237  64.657  0.00  0.00    -0.273 OA
ATOM     19  C   UNL     1     -12.322  14.369  64.913  0.00  0.00    +0.089 C 
ATOM     20  C   UNL     1     -12.414  14.140  66.392  0.00  0.00    +0.039 C 
ENDBRANCH   5  13
TORSDOF 1
ENDMDL
MODEL 3
REMARK VINA RESULT:      -7.0      2.300      5.815
REMARK  Name = 
REMARK  1 active torsions:
REMARK  status: ('A' for Active; 'I' for Inactive)
REMARK    1  A    between atoms: N_10  and  C_11
REMARK                            x       y       z     vdW  Elec       q    Type
REMARK                         _______ _______ _______ _____ _____    ______ ____
ROOT
ATOM      1  N   UNL     1     -10.936  16.852  69.937  0.00  0.00    -0.128 NA
ATOM      2  C   UNL     1     -10.316  17.336  68.742  0.00  0.00    +0.094 A 
ATOM      3  C   UNL     1     -10.801  16.774  67.567  0.00  0.00    +0.075 A 
ATOM      4  C   UNL     1     -10.891  15.335  67.280  0.00  0.00    +0.257 C 
ATOM      5  N   UNL     1     -11.039  15.176  65.919  0.00  0.00    -0.216 N 
ATOM      6  C   UNL     1     -10.848  16.466  65.325  0.00  0.00    +0.255 C 
ATOM      7  O   UNL     1     -11.196  16.772  64.143  0.00  0.00    -0.269 OA
ATOM      8  O   UNL     1     -11.316  14.469  68.094  0.00  0.00    -0.269 OA
ATOM      9  C   UNL     1     -10.664  17.478  66.377  0.00  0.00    +0.060 A 
ATOM     10  C   UNL     1      -9.741  18.519  66.365  0.00  0.00    +0.005 A 
ATOM     11  C   UNL     1      -9.086  18.952  67.506  0.00  0.00    +0.002 A 
ATOM     12  C   UNL     1      -9.522  18.476  68.737  0.00  0.00    +0.018 A 
ENDROOT
BRANCH   5  13
ATOM     13  C   UNL     1     -10.800  13.876  65.075  0.00  0.00    +0.162 C 
ATOM     14  C   UNL     1     -12.101  13.092  65.604  0.00  0.00    +0.266 C 
ATOM     15  O   UNL     1     -13.003  13.169  64.712  0.00  0.00    -0.271 OA
ATOM     16  N   UNL     1     -12.012  11.941  66.353  0.00  0.00    -0.143 NA
ATOM     17  C   UNL     1     -10.824  11.166  66.573  0.00  0.00    +0.248 C 
ATOM     18  O   UNL     1     -10.622  10.648  67.713  0.00  0.00    -0.273 OA
ATOM     19  C   UNL     1      -9.646  11.778  65.872  0.00  0.00    +0.089 C 
ATOM     20  C   UNL     1      -9.772  13.237  66.191  0.00  0.00    +0.039 C 
ENDBRANCH   5  13
TORSDOF 1
ENDMDL
MODEL 4
REMARK VINA RESULT:      -7.0      3.508      6.090
REMARK  Name = 
REMARK  1 active torsions:
REMARK  status: ('A' for Active; 'I' for Inactive)
REMARK    1  A    between atoms: N_10  and  C_11
REMARK                            x       y       z     vdW  Elec       q    Type
REMARK                         _______ _______ _______ _____ _____    ______ ____
ROOT
ATOM      1  N   UNL     1     -13.830  12.789  72.509  0.00  0.00    -0.128 NA
ATOM      2  C   UNL     1     -13.001  13.947  72.375  0.00  0.00    +0.094 A 
ATOM      3  C   UNL     1     -12.724  14.317  71.064  0.00  0.00    +0.075 A 
ATOM      4  C   UNL     1     -12.156  13.439  70.030  0.00  0.00    +0.257 C 
ATOM      5  N   UNL     1     -11.668  14.232  69.014  0.00  0.00    -0.216 N 
ATOM      6  C   UNL     1     -11.738  15.588  69.472  0.00  0.00    +0.255 C 
ATOM      7  O   UNL     1     -11.659  16.606  68.718  0.00  0.00    -0.269 OA
ATOM      8  O   UNL     1     -12.528  12.252  69.819  0.00  0.00    -0.269 OA
ATOM      9  C   UNL     1     -12.381  15.636  70.794  0.00  0.00    +0.060 A 
ATOM     10  C   UNL     1     -11.983  16.417  71.875  0.00  0.00    +0.005 A 
ATOM     11  C   UNL     1     -12.057  15.974  73.185  0.00  0.00    +0.002 A 
ATOM     12  C   UNL     1     -12.750  14.798  73.446  0.00  0.00    +0.018 A 
ENDROOT
BRANCH   5  13
ATOM     13  C   UNL     1     -10.650  13.830  67.891  0.00  0.00    +0.162 C 
ATOM     14  C   UNL     1     -11.739  13.171  66.907  0.00  0.00    +0.266 C 
ATOM     15  O   UNL     1     -11.999  14.004  65.984  0.00  0.00    -0.271 OA
ATOM     16  N   UNL     1     -11.736  11.829  66.600  0.00  0.00    -0.143 NA
ATOM     17  C   UNL     1     -10.688  10.896  66.901  0.00  0.00    +0.248 C 
ATOM     18  O   UNL     1     -10.989   9.718  67.263  0.00  0.00    -0.273 OA
ATOM     19  C   UNL     1      -9.555  11.573  67.616  0.00  0.00    +0.089 C 
ATOM     20  C   UNL     1     -10.248  12.421  68.640  0.00  0.00    +0.039 C 
ENDBRANCH   5  13
TORSDOF 1
ENDMDL
MODEL 5
REMARK VINA RESULT:      -6.8      1.649      2.387
REMARK  Name = 
REMARK  1 active torsions:
REMARK  status: ('A' for Active; 'I' for Inactive)
REMARK    1  A    between atoms: N_10  and  C_11
REMARK                            x       y       z     vdW  Elec       q    Type
REMARK                         _______ _______ _______ _____ _____    ______ ____
ROOT
ATOM      1  N   UNL     1     -12.434  13.708  63.202  0.00  0.00    -0.128 NA
ATOM      2  C   UNL     1     -11.600  12.937  64.071  0.00  0.00    +0.094 A 
ATOM      3  C   UNL     1     -11.419  13.480  65.338  0.00  0.00    +0.075 A 
ATOM      4  C   UNL     1     -10.948  14.843  65.625  0.00  0.00    +0.257 C 
ATOM      5  N   UNL     1     -10.528  14.884  66.937  0.00  0.00    -0.216 N 
ATOM      6  C   UNL     1     -10.540  13.536  67.423  0.00  0.00    +0.255 C 
ATOM      7  O   UNL     1     -10.504  13.214  68.650  0.00  0.00    -0.269 OA
ATOM      8  O   UNL     1     -11.354  15.879  65.031  0.00  0.00    -0.269 OA
ATOM      9  C   UNL     1     -11.078  12.638  66.389  0.00  0.00    +0.060 A 
ATOM     10  C   UNL     1     -10.585  11.381  66.054  0.00  0.00    +0.005 A 
ATOM     11  C   UNL     1     -10.564  10.908  64.753  0.00  0.00    +0.002 A 
ATOM     12  C   UNL     1     -11.253  11.623  63.780  0.00  0.00    +0.018 A 
ENDROOT
BRANCH   5  13
ATOM     13  C   UNL     1      -9.607  15.959  67.614  0.00  0.00    +0.162 C 
ATOM     14  C   UNL     1     -10.800  16.927  68.089  0.00  0.00    +0.266 C 
ATOM     15  O   UNL     1     -11.005  16.729  69.327  0.00  0.00    -0.271 OA
ATOM     16  N   UNL     1     -10.957  18.200  67.591  0.00  0.00    -0.143 NA
ATOM     17  C   UNL     1     -10.005  18.917  66.790  0.00  0.00    +0.248 C 
ATOM     18  O   UNL     1     -10.418  19.647  65.839  0.00  0.00    -0.273 OA
ATOM     19  C   UNL     1      -8.777  18.090  66.546  0.00  0.00    +0.089 C 
ATOM     20  C   UNL     1      -9.331  16.742  66.193  0.00  0.00    +0.039 C 
ENDBRANCH   5  13
TORSDOF 1
ENDMDL
MODEL 6
REMARK VINA RESULT:      -6.7      1.768      5.422
REMARK  Name = 
REMARK  1 active torsions:
REMARK  status: ('A' for Active; 'I' for Inactive)
REMARK    1  A    between atoms: N_10  and  C_11
REMARK                            x       y       z     vdW  Elec       q    Type
REMARK                         _______ _______ _______ _____ _____    ______ ____
ROOT
ATOM      1  N   UNL     1      -7.238  17.831  65.742  0.00  0.00    -0.128 NA
ATOM      2  C   UNL     1      -8.430  18.337  66.351  0.00  0.00    +0.094 A 
ATOM      3  C   UNL     1      -9.186  17.388  67.028  0.00  0.00    +0.075 A 
ATOM      4  C   UNL     1      -9.671  16.119  66.463  0.00  0.00    +0.257 C 
ATOM      5  N   UNL     1     -10.682  15.647  67.272  0.00  0.00    -0.216 N 
ATOM      6  C   UNL     1     -10.978  16.682  68.218  0.00  0.00    +0.255 C 
ATOM      7  O   UNL     1     -11.632  16.509  69.292  0.00  0.00    -0.269 OA
ATOM      8  O   UNL     1      -8.974  15.339  65.758  0.00  0.00    -0.269 OA
ATOM      9  C   UNL     1     -10.044  17.805  68.038  0.00  0.00    +0.060 A 
ATOM     10  C   UNL     1     -10.368  19.158  68.070  0.00  0.00    +0.005 A 
ATOM     11  C   UNL     1      -9.765  20.091  67.243  0.00  0.00    +0.002 A 
ATOM     12  C   UNL     1      -8.652  19.700  66.509  0.00  0.00    +0.018 A 
ENDROOT
BRANCH   5  13
ATOM     13  C   UNL     1     -11.763  14.566  66.921  0.00  0.00    +0.162 C 
ATOM     14  C   UNL     1     -10.790  13.297  67.085  0.00  0.00    +0.266 C 
ATOM     15  O   UNL     1     -11.022  12.759  68.212  0.00  0.00    -0.271 OA
ATOM     16  N   UNL     1     -10.455  12.485  66.025  0.00  0.00    -0.143 NA
ATOM     17  C   UNL     1     -11.066  12.497  64.726  0.00  0.00    +0.248 C 
ATOM     18  O   UNL     1     -10.343  12.329  63.698  0.00  0.00    -0.273 OA
ATOM     19  C   UNL     1     -12.149  13.533  64.652  0.00  0.00    +0.089 C 
ATOM     20  C   UNL     1     -11.527  14.732  65.301  0.00  0.00    +0.039 C 
ENDBRANCH   5  13
TORSDOF 1
ENDMDL
MODEL 7
REMARK VINA RESULT:      -6.7      2.433      5.548
REMARK  Name = 
REMARK  1 active torsions:
REMARK  status: ('A' for Active; 'I' for Inactive)
REMARK    1  A    between atoms: N_10  and  C_11
REMARK                            x       y       z     vdW  Elec       q    Type
REMARK                         _______ _______ _______ _____ _____    ______ ____
ROOT
ATOM      1  N   UNL     1     -10.754  19.325  65.446  0.00  0.00    -0.128 NA
ATOM      2  C   UNL     1     -10.492  18.402  66.507  0.00  0.00    +0.094 A 
ATOM      3  C   UNL     1     -10.083  17.140  66.093  0.00  0.00    +0.075 A 
ATOM      4  C   UNL     1     -10.797  16.280  65.136  0.00  0.00    +0.257 C 
ATOM      5  N   UNL     1     -10.319  14.995  65.275  0.00  0.00    -0.216 N 
ATOM      6  C   UNL     1      -9.465  14.988  66.426  0.00  0.00    +0.255 C 
ATOM      7  O   UNL     1      -8.624  14.075  66.692  0.00  0.00    -0.269 OA
ATOM      8  O   UNL     1     -11.299  16.683  64.051  0.00  0.00    -0.269 OA
ATOM      9  C   UNL     1      -9.343  16.351  66.965  0.00  0.00    +0.060 A 
ATOM     10  C   UNL     1      -9.365  16.709  68.310  0.00  0.00    +0.005 A 
ATOM     11  C   UNL     1      -9.963  17.873  68.764  0.00  0.00    +0.002 A 
ATOM     12  C   UNL     1     -10.364  18.818  67.827  0.00  0.00    +0.018 A 
ENDROOT
BRANCH   5  13
ATOM     13  C   UNL     1     -10.991  13.666  64.783  0.00  0.00    +0.162 C 
ATOM     14  C   UNL     1     -12.093  13.592  65.952  0.00  0.00    +0.266 C 
ATOM     15  O   UNL     1     -13.201  13.998  65.482  0.00  0.00    -0.271 OA
ATOM     16  N   UNL     1     -12.105  12.584  66.889  0.00  0.00    -0.143 NA
ATOM     17  C   UNL     1     -11.328  11.378  66.841  0.00  0.00    +0.248 C 
ATOM     18  O   UNL     1     -10.837  10.912  67.914  0.00  0.00    -0.273 OA
ATOM     19  C   UNL     1     -10.469  11.340  65.611  0.00  0.00    +0.089 C 
ATOM     20  C   UNL     1      -9.886  12.720  65.553  0.00  0.00    +0.039 C 
ENDBRANCH   5  13
TORSDOF 1
ENDMDL
MODEL 8
REMARK VINA RESULT:      -6.3      3.090      4.693
REMARK  Name = 
REMARK  1 active torsions:
REMARK  status: ('A' for Active; 'I' for Inactive)
REMARK    1  A    between atoms: N_10  and  C_11
REMARK                            x       y       z     vdW  Elec       q    Type
REMARK                         _______ _______ _______ _____ _____    ______ ____
ROOT
ATOM      1  N   UNL     1     -13.570  12.509  72.133  0.00  0.00    -0.128 NA
ATOM      2  C   UNL     1     -12.855  13.747  72.081  0.00  0.00    +0.094 A 
ATOM      3  C   UNL     1     -12.548  14.189  70.799  0.00  0.00    +0.075 A 
ATOM      4  C   UNL     1     -11.842  13.408  69.772  0.00  0.00    +0.257 C 
ATOM      5  N   UNL     1     -11.383  14.281  68.809  0.00  0.00    -0.216 N 
ATOM      6  C   UNL     1     -11.612  15.607  69.303  0.00  0.00    +0.255 C 
ATOM      7  O   UNL     1     -11.596  16.654  68.586  0.00  0.00    -0.269 OA
ATOM      8  O   UNL     1     -12.082  12.199  69.504  0.00  0.00    -0.269 OA
ATOM      9  C   UNL     1     -12.325  15.544  70.588  0.00  0.00    +0.060 A 
ATOM     10  C   UNL     1     -12.064  16.321  71.713  0.00  0.00    +0.005 A 
ATOM     11  C   UNL     1     -12.163  15.827  73.003  0.00  0.00    +0.002 A 
ATOM     12  C   UNL     1     -12.747  14.579  73.189  0.00  0.00    +0.018 A 
ENDROOT
BRANCH   5  13
ATOM     13  C   UNL     1     -10.273  14.021  67.732  0.00  0.00    +0.162 C 
ATOM     14  C   UNL     1      -9.210  15.068  68.332  0.00  0.00    +0.266 C 
ATOM     15  O   UNL     1      -8.335  14.417  68.986  0.00  0.00    -0.271 OA
ATOM     16  N   UNL     1      -8.815  16.192  67.644  0.00  0.00    -0.143 NA
ATOM     17  C   UNL     1      -9.091  16.478  66.264  0.00  0.00    +0.248 C 
ATOM     18  O   UNL     1      -9.364  17.667  65.918  0.00  0.00    -0.273 OA
ATOM     19  C   UNL     1      -9.889  15.373  65.636  0.00  0.00    +0.089 C 
ATOM     20  C   UNL     1     -10.942  15.078  66.663  0.00  0.00    +0.039 C 
ENDBRANCH   5  13
TORSDOF 1
ENDMDL
MODEL 9
REMARK VINA RESULT:      -6.2      2.233      2.941
REMARK  Name = 
REMARK  1 active torsions:
REMARK  status: ('A' for Active; 'I' for Inactive)
REMARK    1  A    between atoms: N_10  and  C_11
REMARK                            x       y       z     vdW  Elec       q    Type
REMARK                         _______ _______ _______ _____ _____    ______ ____
ROOT
ATOM      1  N   UNL     1      -8.435  12.324  67.239  0.00  0.00    -0.128 NA
ATOM      2  C   UNL     1      -9.687  12.960  66.965  0.00  0.00    +0.094 A 
ATOM      3  C   UNL     1      -9.589  14.175  66.298  0.00  0.00    +0.075 A 
ATOM      4  C   UNL     1      -8.774  15.323  66.726  0.00  0.00    +0.257 C 
ATOM      5  N   UNL     1      -9.226  16.442  66.060  0.00  0.00    -0.216 N 
ATOM      6  C   UNL     1     -10.426  16.065  65.374  0.00  0.00    +0.255 C 
ATOM      7  O   UNL     1     -10.956  16.731  64.433  0.00  0.00    -0.269 OA
ATOM      8  O   UNL     1      -7.587  15.239  67.144  0.00  0.00    -0.269 OA
ATOM      9  C   UNL     1     -10.673  14.626  65.555  0.00  0.00    +0.060 A 
ATOM     10  C   UNL     1     -11.904  14.028  65.812  0.00  0.00    +0.005 A 
ATOM     11  C   UNL     1     -12.044  12.935  66.652  0.00  0.00    +0.002 A 
ATOM     12  C   UNL     1     -10.895  12.282  67.082  0.00  0.00    +0.018 A 
ENDROOT
BRANCH   5  13
ATOM     13  C   UNL     1      -8.966  17.944  66.428  0.00  0.00    +0.162 C 
ATOM     14  C   UNL     1      -7.369  17.888  66.241  0.00  0.00    +0.266 C 
ATOM     15  O   UNL     1      -7.081  18.404  65.116  0.00  0.00    -0.271 OA
ATOM     16  N   UNL     1      -6.499  18.070  67.291  0.00  0.00    -0.143 NA
ATOM     17  C   UNL     1      -6.844  18.544  68.602  0.00  0.00    +0.248 C 
ATOM     18  O   UNL     1      -6.275  18.038  69.616  0.00  0.00    -0.273 OA
ATOM     19  C   UNL     1      -8.315  18.827  68.701  0.00  0.00    +0.089 C 
ATOM     20  C   UNL     1      -8.942  17.634  68.044  0.00  0.00    +0.039 C 
ENDBRANCH   5  13
TORSDOF 1
ENDMDL
