MODEL 1
REMARK VINA RESULT:      -6.5      0.000      0.000
REMARK  Name = 
REMARK  7 active torsions:
REMARK  status: ('A' for Active; 'I' for Inactive)
REMARK    1  A    between atoms: C_4  and  C_5
REMARK    2  A    between atoms: C_9  and  C_10
REMARK    3  A    between atoms: C_10  and  O_12
REMARK    4  A    between atoms: O_12  and  C_13
REMARK    5  A    between atoms: C_13  and  C_14
REMARK    6  A    between atoms: C_18  and  O_19
REMARK    7  A    between atoms: O_19  and  C_20
REMARK                            x       y       z     vdW  Elec       q    Type
REMARK                         _______ _______ _______ _____ _____    ______ ____
ROOT
ATOM      1  C   UNL     1     -11.079  12.271  67.608  0.00  0.00    +0.235 C 
ENDROOT
BRANCH   1   2
ATOM      2  C   UNL     1     -11.278  11.722  68.968  0.00  0.00    +0.024 A 
ATOM      3  C   UNL     1     -12.358  12.128  69.731  0.00  0.00    +0.037 A 
ATOM      4  C   UNL     1     -12.605  11.446  70.914  0.00  0.00    +0.145 A 
ATOM      5  C   UNL     1     -11.937  10.259  71.185  0.00  0.00    +0.037 A 
ATOM      6  C   UNL     1     -10.842   9.909  70.437  0.00  0.00    +0.003 A 
ATOM      7  C   UNL     1     -10.583  10.553  69.258  0.00  0.00    -0.000 A 
BRANCH   4   8
ATOM      8  O   UNL     1     -13.358  11.985  71.944  0.00  0.00    -0.454 OA
BRANCH   8   9
ATOM      9  C   UNL     1     -13.340  13.338  72.234  0.00  0.00    +0.145 A 
ATOM     10  C   UNL     1     -12.369  13.954  72.978  0.00  0.00    +0.037 A 
ATOM     11  C   UNL     1     -12.574  15.253  73.418  0.00  0.00    +0.003 A 
ATOM     12  C   UNL     1     -13.598  16.046  72.927  0.00  0.00    +0.000 A 
ATOM     13  C   UNL     1     -14.527  15.445  72.108  0.00  0.00    +0.003 A 
ATOM     14  C   UNL     1     -14.411  14.106  71.798  0.00  0.00    +0.037 A 
ENDBRANCH   8   9
ENDBRANCH   4   8
ENDBRANCH   1   2
BRANCH   1  15
ATOM     15  O   UNL     1     -11.462  13.642  67.603  0.00  0.00    -0.443 OA
BRANCH  15  16
ATOM     16  C   UNL     1     -10.512  14.671  67.530  0.00  0.00    +0.317 C 
ATOM     17  O   UNL     1      -9.883  14.811  66.461  0.00  0.00    -0.250 OA
BRANCH  16  20
ATOM     18  C   UNL     1     -10.654  15.512  70.118  0.00  0.00    +0.001 C 
ATOM     19  C   UNL     1     -10.594  15.555  69.928  0.00  0.00    +0.015 C 
ATOM     20  C   UNL     1      -9.558  14.717  68.847  0.00  0.00    +0.103 C 
ATOM     21  C   UNL     1      -9.371  16.423  69.092  0.00  0.00    +0.035 C 
ATOM     22  C   UNL     1     -11.932  15.775  69.500  0.00  0.00    +0.001 C 
BRANCH  21  23
ATOM     23  C   UNL     1     -10.247  17.038  67.863  0.00  0.00    -0.003 C 
ATOM     24  C   UNL     1      -9.761  18.237  67.492  0.00  0.00    +0.111 C 
ATOM     25 CL   UNL     1     -10.860  19.452  66.895  0.00  0.00    -0.070 Cl
ATOM     26 CL   UNL     1      -8.045  18.501  67.466  0.00  0.00    -0.070 Cl
ENDBRANCH  21  23
ENDBRANCH  16  20
ENDBRANCH  15  16
ENDBRANCH   1  15
TORSDOF 7
ENDMDL
MODEL 2
REMARK VINA RESULT:      -6.4      1.636      2.246
REMARK  Name = 
REMARK  7 active torsions:
REMARK  status: ('A' for Active; 'I' for Inactive)
REMARK    1  A    between atoms: C_4  and  C_5
REMARK    2  A    between atoms: C_9  and  C_10
REMARK    3  A    between atoms: C_10  and  O_12
REMARK    4  A    between atoms: O_12  and  C_13
REMARK    5  A    between atoms: C_13  and  C_14
REMARK    6  A    between atoms: C_18  and  O_19
REMARK    7  A    between atoms: O_19  and  C_20
REMARK                            x       y       z     vdW  Elec       q    Type
REMARK                         _______ _______ _______ _____ _____    ______ ____
ROOT
ATOM      1  C   UNL     1     -11.714  13.902  65.855  0.00  0.00    +0.235 C 
ENDROOT
BRANCH   1   2
ATOM      2  C   UNL     1     -11.491  12.921  66.942  0.00  0.00    +0.024 A 
ATOM      3  C   UNL     1     -11.928  13.194  68.226  0.00  0.00    +0.037 A 
ATOM      4  C   UNL     1     -11.866  12.169  69.159  0.00  0.00    +0.145 A 
ATOM      5  C   UNL     1     -11.602  10.869  68.749  0.00  0.00    +0.037 A 
ATOM      6  C   UNL     1     -11.127  10.639  67.483  0.00  0.00    +0.003 A 
ATOM      7  C   UNL     1     -11.190  11.626  66.537  0.00  0.00    -0.000 A 
BRANCH   4   8
ATOM      8  O   UNL     1     -11.871  12.402  70.525  0.00  0.00    -0.454 OA
BRANCH   8   9
ATOM      9  C   UNL     1     -12.367  13.574  71.067  0.00  0.00    +0.145 A 
ATOM     10  C   UNL     1     -11.674  14.755  71.116  0.00  0.00    +0.037 A 
ATOM     11  C   UNL     1     -12.159  15.793  71.897  0.00  0.00    +0.003 A 
ATOM     12  C   UNL     1     -13.440  15.785  72.424  0.00  0.00    +0.000 A 
ATOM     13  C   UNL     1     -14.169  14.625  72.297  0.00  0.00    +0.003 A 
ATOM     14  C   UNL     1     -13.622  13.532  71.657  0.00  0.00    +0.037 A 
ENDBRANCH   8   9
ENDBRANCH   4   8
ENDBRANCH   1   2
BRANCH   1  15
ATOM     15  O   UNL     1     -11.518  15.215  66.370  0.00  0.00    -0.443 OA
BRANCH  15  16
ATOM     16  C   UNL     1     -10.564  16.084  65.822  0.00  0.00    +0.317 C 
ATOM     17  O   UNL     1     -10.772  16.533  64.677  0.00  0.00    -0.250 OA
BRANCH  16  20
ATOM     18  C   UNL     1      -8.752  15.829  67.842  0.00  0.00    +0.001 C 
ATOM     19  C   UNL     1      -8.816  15.940  67.684  0.00  0.00    +0.015 C 
ATOM     20  C   UNL     1      -9.046  15.537  66.031  0.00  0.00    +0.103 C 
ATOM     21  C   UNL     1      -8.201  16.987  66.468  0.00  0.00    +0.035 C 
ATOM     22  C   UNL     1      -9.954  16.401  68.400  0.00  0.00    +0.001 C 
BRANCH  21  23
ATOM     23  C   UNL     1      -9.393  18.098  66.420  0.00  0.00    -0.003 C 
ATOM     24  C   UNL     1      -8.881  19.340  66.489  0.00  0.00    +0.111 C 
ATOM     25 CL   UNL     1      -9.796  20.594  67.285  0.00  0.00    -0.070 Cl
ATOM     26 CL   UNL     1      -7.402  19.712  65.657  0.00  0.00    -0.070 Cl
ENDBRANCH  21  23
ENDBRANCH  16  20
ENDBRANCH  15  16
ENDBRANCH   1  15
TORSDOF 7
ENDMDL
MODEL 3
REMARK VINA RESULT:      -6.4      2.489      5.556
REMARK  Name = 
REMARK  7 active torsions:
REMARK  status: ('A' for Active; 'I' for Inactive)
REMARK    1  A    between atoms: C_4  and  C_5
REMARK    2  A    between atoms: C_9  and  C_10
REMARK    3  A    between atoms: C_10  and  O_12
REMARK    4  A    between atoms: O_12  and  C_13
REMARK    5  A    between atoms: C_13  and  C_14
REMARK    6  A    between atoms: C_18  and  O_19
REMARK    7  A    between atoms: O_19  and  C_20
REMARK                            x       y       z     vdW  Elec       q    Type
REMARK                         _______ _______ _______ _____ _____    ______ ____
ROOT
ATOM      1  C   UNL     1     -11.313  16.448  68.751  0.00  0.00    +0.235 C 
ENDROOT
BRANCH   1   2
ATOM      2  C   UNL     1     -11.722  15.039  68.953  0.00  0.00    +0.024 A 
ATOM      3  C   UNL     1     -11.549  14.113  67.940  0.00  0.00    +0.037 A 
ATOM      4  C   UNL     1     -11.768  12.777  68.245  0.00  0.00    +0.145 A 
ATOM      5  C   UNL     1     -11.918  12.380  69.566  0.00  0.00    +0.037 A 
ATOM      6  C   UNL     1     -12.133  13.322  70.539  0.00  0.00    +0.003 A 
ATOM      7  C   UNL     1     -11.909  14.645  70.273  0.00  0.00    -0.000 A 
BRANCH   4   8
ATOM      8  O   UNL     1     -12.034  11.824  67.274  0.00  0.00    -0.454 OA
BRANCH   8   9
ATOM      9  C   UNL     1     -11.545  11.935  65.985  0.00  0.00    +0.145 A 
ATOM     10  C   UNL     1     -12.221  12.532  64.953  0.00  0.00    +0.037 A 
ATOM     11  C   UNL     1     -11.757  12.370  63.656  0.00  0.00    +0.003 A 
ATOM     12  C   UNL     1     -10.503  11.850  63.379  0.00  0.00    +0.000 A 
ATOM     13  C   UNL     1      -9.788  11.329  64.433  0.00  0.00    +0.003 A 
ATOM     14  C   UNL     1     -10.321  11.346  65.705  0.00  0.00    +0.037 A 
ENDBRANCH   8   9
ENDBRANCH   4   8
ENDBRANCH   1   2
BRANCH   1  15
ATOM     15  O   UNL     1     -10.199  16.483  67.865  0.00  0.00    -0.443 OA
BRANCH  15  16
ATOM     16  C   UNL     1      -9.238  17.501  67.934  0.00  0.00    +0.317 C 
ATOM     17  O   UNL     1      -8.124  17.222  68.422  0.00  0.00    -0.250 OA
BRANCH  16  20
ATOM     18  C   UNL     1     -10.684  19.618  67.010  0.00  0.00    +0.001 C 
ATOM     19  C   UNL     1     -10.500  19.545  67.054  0.00  0.00    +0.015 C 
ATOM     20  C   UNL     1      -9.859  18.892  68.507  0.00  0.00    +0.103 C 
ATOM     21  C   UNL     1      -8.965  20.078  67.611  0.00  0.00    +0.035 C 
ATOM     22  C   UNL     1     -10.500  18.699  65.911  0.00  0.00    +0.001 C 
BRANCH  21  23
ATOM     23  C   UNL     1      -7.991  19.144  66.697  0.00  0.00    -0.003 C 
ATOM     24  C   UNL     1      -6.962  19.867  66.216  0.00  0.00    +0.111 C 
ATOM     25 CL   UNL     1      -6.302  19.470  64.651  0.00  0.00    -0.070 Cl
ATOM     26 CL   UNL     1      -6.212  21.072  67.217  0.00  0.00    -0.070 Cl
ENDBRANCH  21  23
ENDBRANCH  16  20
ENDBRANCH  15  16
ENDBRANCH   1  15
TORSDOF 7
ENDMDL
MODEL 4
REMARK VINA RESULT:      -6.3      2.377      3.701
REMARK  Name = 
REMARK  7 active torsions:
REMARK  status: ('A' for Active; 'I' for Inactive)
REMARK    1  A    between atoms: C_4  and  C_5
REMARK    2  A    between atoms: C_9  and  C_10
REMARK    3  A    between atoms: C_10  and  O_12
REMARK    4  A    between atoms: O_12  and  C_13
REMARK    5  A    between atoms: C_13  and  C_14
REMARK    6  A    between atoms: C_18  and  O_19
REMARK    7  A    between atoms: O_19  and  C_20
REMARK                            x       y       z     vdW  Elec       q    Type
REMARK                         _______ _______ _______ _____ _____    ______ ____
ROOT
ATOM      1  C   UNL     1     -10.535  15.952  65.911  0.00  0.00    +0.235 C 
ENDROOT
BRANCH   1   2
ATOM      2  C   UNL     1     -10.824  14.737  66.708  0.00  0.00    +0.024 A 
ATOM      3  C   UNL     1     -11.101  14.842  68.059  0.00  0.00    +0.037 A 
ATOM      4  C   UNL     1     -11.551  13.704  68.714  0.00  0.00    +0.145 A 
ATOM      5  C   UNL     1     -11.929  12.585  67.985  0.00  0.00    +0.037 A 
ATOM      6  C   UNL     1     -11.598  12.494  66.657  0.00  0.00    +0.003 A 
ATOM      7  C   UNL     1     -11.168  13.603  65.981  0.00  0.00    -0.000 A 
BRANCH   4   8
ATOM      8  O   UNL     1     -11.468  13.553  70.089  0.00  0.00    -0.454 OA
BRANCH   8   9
ATOM      9  C   UNL     1     -12.129  14.400  70.960  0.00  0.00    +0.145 A 
ATOM     10  C   UNL     1     -11.505  15.317  71.765  0.00  0.00    +0.037 A 
ATOM     11  C   UNL     1     -12.227  15.937  72.774  0.00  0.00    +0.003 A 
ATOM     12  C   UNL     1     -13.609  15.864  72.844  0.00  0.00    +0.000 A 
ATOM     13  C   UNL     1     -14.243  15.006  71.974  0.00  0.00    +0.003 A 
ATOM     14  C   UNL     1     -13.505  14.266  71.074  0.00  0.00    +0.037 A 
ENDBRANCH   8   9
ENDBRANCH   4   8
ENDBRANCH   1   2
BRANCH   1  15
ATOM     15  O   UNL     1     -10.390  17.059  66.794  0.00  0.00    -0.443 OA
BRANCH  15  16
ATOM     16  C   UNL     1      -9.149  17.681  66.995  0.00  0.00    +0.317 C 
ATOM     17  O   UNL     1      -8.129  16.962  66.997  0.00  0.00    -0.250 OA
BRANCH  16  20
ATOM     18  C   UNL     1     -10.061  20.202  67.479  0.00  0.00    +0.001 C 
ATOM     19  C   UNL     1      -9.902  20.086  67.429  0.00  0.00    +0.015 C 
ATOM     20  C   UNL     1      -9.188  18.743  68.226  0.00  0.00    +0.103 C 
ATOM     21  C   UNL     1      -8.196  20.029  67.620  0.00  0.00    +0.035 C 
ATOM     22  C   UNL     1     -10.400  19.867  66.116  0.00  0.00    +0.001 C 
BRANCH  21  23
ATOM     23  C   UNL     1      -7.765  19.459  66.155  0.00  0.00    -0.003 C 
ATOM     24  C   UNL     1      -6.564  19.949  65.794  0.00  0.00    +0.111 C 
ATOM     25 CL   UNL     1      -6.239  20.244  64.106  0.00  0.00    -0.070 Cl
ATOM     26 CL   UNL     1      -5.313  20.131  66.984  0.00  0.00    -0.070 Cl
ENDBRANCH  21  23
ENDBRANCH  16  20
ENDBRANCH  15  16
ENDBRANCH   1  15
TORSDOF 7
ENDMDL
MODEL 5
REMARK VINA RESULT:      -6.2      2.087      4.956
REMARK  Name = 
REMARK  7 active torsions:
REMARK  status: ('A' for Active; 'I' for Inactive)
REMARK    1  A    between atoms: C_4  and  C_5
REMARK    2  A    between atoms: C_9  and  C_10
REMARK    3  A    between atoms: C_10  and  O_12
REMARK    4  A    between atoms: O_12  and  C_13
REMARK    5  A    between atoms: C_13  and  C_14
REMARK    6  A    between atoms: C_18  and  O_19
REMARK    7  A    between atoms: O_19  and  C_20
REMARK                            x       y       z     vdW  Elec       q    Type
REMARK                         _______ _______ _______ _____ _____    ______ ____
ROOT
ATOM      1  C   UNL     1     -11.405  15.174  70.177  0.00  0.00    +0.235 C 
ENDROOT
BRANCH   1   2
ATOM      2  C   UNL     1     -11.867  13.784  69.959  0.00  0.00    +0.024 A 
ATOM      3  C   UNL     1     -11.461  13.085  68.836  0.00  0.00    +0.037 A 
ATOM      4  C   UNL     1     -11.763  11.732  68.776  0.00  0.00    +0.145 A 
ATOM      5  C   UNL     1     -12.237  11.074  69.903  0.00  0.00    +0.037 A 
ATOM      6  C   UNL     1     -12.673  11.800  70.982  0.00  0.00    +0.003 A 
ATOM      7  C   UNL     1     -12.376  13.132  71.076  0.00  0.00    -0.000 A 
BRANCH   4   8
ATOM      8  O   UNL     1     -11.795  11.027  67.584  0.00  0.00    -0.454 OA
BRANCH   8   9
ATOM      9  C   UNL     1     -11.381  11.589  66.389  0.00  0.00    +0.145 A 
ATOM     10  C   UNL     1     -12.102  12.515  65.683  0.00  0.00    +0.037 A 
ATOM     11  C   UNL     1     -11.721  12.825  64.386  0.00  0.00    +0.003 A 
ATOM     12  C   UNL     1     -10.500  12.435  63.861  0.00  0.00    +0.000 A 
ATOM     13  C   UNL     1      -9.736  11.570  64.612  0.00  0.00    +0.003 A 
ATOM     14  C   UNL     1     -10.191  11.134  65.839  0.00  0.00    +0.037 A 
ENDBRANCH   8   9
ENDBRANCH   4   8
ENDBRANCH   1   2
BRANCH   1  15
ATOM     15  O   UNL     1     -10.297  15.432  69.322  0.00  0.00    -0.443 OA
BRANCH  15  16
ATOM     16  C   UNL     1     -10.337  16.448  68.355  0.00  0.00    +0.317 C 
ATOM     17  O   UNL     1     -10.851  17.539  68.674  0.00  0.00    -0.250 OA
BRANCH  16  20
ATOM     18  C   UNL     1      -9.329  15.052  66.243  0.00  0.00    +0.001 C 
ATOM     19  C   UNL     1      -9.372  15.235  66.320  0.00  0.00    +0.015 C 
ATOM     20  C   UNL     1     -10.842  15.897  66.910  0.00  0.00    +0.103 C 
ATOM     21  C   UNL     1      -9.850  16.805  65.816  0.00  0.00    +0.035 C 
ATOM     22  C   UNL     1      -8.284  15.166  67.232  0.00  0.00    +0.001 C 
BRANCH  21  23
ATOM     23  C   UNL     1      -8.965  17.714  66.839  0.00  0.00    -0.003 C 
ATOM     24  C   UNL     1      -9.001  19.008  66.471  0.00  0.00    +0.111 C 
ATOM     25 CL   UNL     1      -7.606  20.014  66.760  0.00  0.00    -0.070 Cl
ATOM     26 CL   UNL     1     -10.478  19.691  65.862  0.00  0.00    -0.070 Cl
ENDBRANCH  21  23
ENDBRANCH  16  20
ENDBRANCH  15  16
ENDBRANCH   1  15
TORSDOF 7
ENDMDL
MODEL 6
REMARK VINA RESULT:      -6.1      4.775      8.166
REMARK  Name = 
REMARK  7 active torsions:
REMARK  status: ('A' for Active; 'I' for Inactive)
REMARK    1  A    between atoms: C_4  and  C_5
REMARK    2  A    between atoms: C_9  and  C_10
REMARK    3  A    between atoms: C_10  and  O_12
REMARK    4  A    between atoms: O_12  and  C_13
REMARK    5  A    between atoms: C_13  and  C_14
REMARK    6  A    between atoms: C_18  and  O_19
REMARK    7  A    between atoms: O_19  and  C_20
REMARK                            x       y       z     vdW  Elec       q    Type
REMARK                         _______ _______ _______ _____ _____    ______ ____
ROOT
ATOM      1  C   UNL     1     -13.206  10.155  71.891  0.00  0.00    +0.235 C 
ENDROOT
BRANCH   1   2
ATOM      2  C   UNL     1     -12.758  11.490  71.435  0.00  0.00    +0.024 A 
ATOM      3  C   UNL     1     -12.172  11.641  70.191  0.00  0.00    +0.037 A 
ATOM      4  C   UNL     1     -11.948  12.932  69.736  0.00  0.00    +0.145 A 
ATOM      5  C   UNL     1     -12.510  14.012  70.403  0.00  0.00    +0.037 A 
ATOM      6  C   UNL     1     -13.042  13.837  71.655  0.00  0.00    +0.003 A 
ATOM      7  C   UNL     1     -13.289  12.575  72.123  0.00  0.00    -0.000 A 
BRANCH   4   8
ATOM      8  O   UNL     1     -11.027  13.224  68.743  0.00  0.00    -0.454 OA
BRANCH   8   9
ATOM      9  C   UNL     1     -11.358  13.181  67.401  0.00  0.00    +0.145 A 
ATOM     10  C   UNL     1     -12.091  14.142  66.756  0.00  0.00    +0.037 A 
ATOM     11  C   UNL     1     -12.577  13.885  65.483  0.00  0.00    +0.003 A 
ATOM     12  C   UNL     1     -12.142  12.806  64.731  0.00  0.00    +0.000 A 
ATOM     13  C   UNL     1     -11.332  11.884  65.356  0.00  0.00    +0.003 A 
ATOM     14  C   UNL     1     -10.978  12.060  66.678  0.00  0.00    +0.037 A 
ENDBRANCH   8   9
ENDBRANCH   4   8
ENDBRANCH   1   2
BRANCH   1  15
ATOM     15  O   UNL     1     -12.791   9.180  70.939  0.00  0.00    -0.443 OA
BRANCH  15  16
ATOM     16  C   UNL     1     -12.309   7.924  71.337  0.00  0.00    +0.317 C 
ATOM     17  O   UNL     1     -13.116   6.973  71.373  0.00  0.00    -0.250 OA
BRANCH  16  20
ATOM     18  C   UNL     1      -9.749   8.609  71.971  0.00  0.00    +0.001 C 
ATOM     19  C   UNL     1      -9.879   8.458  71.930  0.00  0.00    +0.015 C 
ATOM     20  C   UNL     1     -11.369   8.021  72.661  0.00  0.00    +0.103 C 
ATOM     21  C   UNL     1     -10.168   6.814  72.336  0.00  0.00    +0.035 C 
ATOM     22  C   UNL     1      -9.910   8.784  70.547  0.00  0.00    +0.001 C 
BRANCH  21  23
ATOM     23  C   UNL     1     -10.648   6.244  70.886  0.00  0.00    -0.003 C 
ATOM     24  C   UNL     1     -10.169   5.002  70.687  0.00  0.00    +0.111 C 
ATOM     25 CL   UNL     1      -9.769   4.496  69.066  0.00  0.00    -0.070 Cl
ATOM     26 CL   UNL     1     -10.104   3.880  72.010  0.00  0.00    -0.070 Cl
ENDBRANCH  21  23
ENDBRANCH  16  20
ENDBRANCH  15  16
ENDBRANCH   1  15
TORSDOF 7
ENDMDL
MODEL 7
REMARK VINA RESULT:      -6.1      4.557      7.291
REMARK  Name = 
REMARK  7 active torsions:
REMARK  status: ('A' for Active; 'I' for Inactive)
REMARK    1  A    between atoms: C_4  and  C_5
REMARK    2  A    between atoms: C_9  and  C_10
REMARK    3  A    between atoms: C_10  and  O_12
REMARK    4  A    between atoms: O_12  and  C_13
REMARK    5  A    between atoms: C_13  and  C_14
REMARK    6  A    between atoms: C_18  and  O_19
REMARK    7  A    between atoms: O_19  and  C_20
REMARK                            x       y       z     vdW  Elec       q    Type
REMARK                         _______ _______ _______ _____ _____    ______ ____
ROOT
ATOM      1  C   UNL     1     -11.897  13.275  68.165  0.00  0.00    +0.235 C 
ENDROOT
BRANCH   1   2
ATOM      2  C   UNL     1     -11.596  14.172  67.026  0.00  0.00    +0.024 A 
ATOM      3  C   UNL     1     -10.394  14.854  66.977  0.00  0.00    +0.037 A 
ATOM      4  C   UNL     1     -10.082  15.527  65.804  0.00  0.00    +0.145 A 
ATOM      5  C   UNL     1     -10.839  15.317  64.659  0.00  0.00    +0.037 A 
ATOM      6  C   UNL     1     -12.049  14.677  64.752  0.00  0.00    +0.003 A 
ATOM      7  C   UNL     1     -12.376  13.992  65.890  0.00  0.00    -0.000 A 
BRANCH   4   8
ATOM      8  O   UNL     1      -9.155  16.555  65.757  0.00  0.00    -0.454 OA
BRANCH   8   9
ATOM      9  C   UNL     1      -9.318  17.723  66.480  0.00  0.00    +0.145 A 
ATOM     10  C   UNL     1      -8.535  18.087  67.544  0.00  0.00    +0.037 A 
ATOM     11  C   UNL     1      -8.934  19.143  68.349  0.00  0.00    +0.003 A 
ATOM     12  C   UNL     1      -9.950  20.010  67.982  0.00  0.00    +0.000 A 
ATOM     13  C   UNL     1     -10.682  19.688  66.861  0.00  0.00    +0.003 A 
ATOM     14  C   UNL     1     -10.385  18.545  66.147  0.00  0.00    +0.037 A 
ENDBRANCH   8   9
ENDBRANCH   4   8
ENDBRANCH   1   2
BRANCH   1  15
ATOM     15  O   UNL     1     -12.090  11.953  67.673  0.00  0.00    -0.443 OA
BRANCH  15  16
ATOM     16  C   UNL     1     -11.299  10.883  68.115  0.00  0.00    +0.317 C 
ATOM     17  O   UNL     1     -11.632  10.307  69.171  0.00  0.00    -0.250 OA
BRANCH  16  20
ATOM     18  C   UNL     1      -9.361  11.153  66.219  0.00  0.00    +0.001 C 
ATOM     19  C   UNL     1      -9.448  11.031  66.356  0.00  0.00    +0.015 C 
ATOM     20  C   UNL     1      -9.710  11.224  68.042  0.00  0.00    +0.103 C 
ATOM     21  C   UNL     1      -9.055   9.743  67.422  0.00  0.00    +0.035 C 
ATOM     22  C   UNL     1     -10.598  10.850  65.541  0.00  0.00    +0.001 C 
BRANCH  21  23
ATOM     23  C   UNL     1     -10.392   8.824  67.264  0.00  0.00    -0.003 C 
ATOM     24  C   UNL     1     -10.147   7.563  67.666  0.00  0.00    +0.111 C 
ATOM     25 CL   UNL     1     -10.976   6.244  66.882  0.00  0.00    -0.070 Cl
ATOM     26 CL   UNL     1      -9.138   7.281  69.051  0.00  0.00    -0.070 Cl
ENDBRANCH  21  23
ENDBRANCH  16  20
ENDBRANCH  15  16
ENDBRANCH   1  15
TORSDOF 7
ENDMDL
MODEL 8
REMARK VINA RESULT:      -6.1      3.657      5.649
REMARK  Name = 
REMARK  7 active torsions:
REMARK  status: ('A' for Active; 'I' for Inactive)
REMARK    1  A    between atoms: C_4  and  C_5
REMARK    2  A    between atoms: C_9  and  C_10
REMARK    3  A    between atoms: C_10  and  O_12
REMARK    4  A    between atoms: O_12  and  C_13
REMARK    5  A    between atoms: C_13  and  C_14
REMARK    6  A    between atoms: C_18  and  O_19
REMARK    7  A    between atoms: O_19  and  C_20
REMARK                            x       y       z     vdW  Elec       q    Type
REMARK                         _______ _______ _______ _____ _____    ______ ____
ROOT
ATOM      1  C   UNL     1     -10.960  14.893  65.237  0.00  0.00    +0.235 C 
ENDROOT
BRANCH   1   2
ATOM      2  C   UNL     1     -10.465  15.558  66.463  0.00  0.00    +0.024 A 
ATOM      3  C   UNL     1     -11.256  15.603  67.597  0.00  0.00    +0.037 A 
ATOM      4  C   UNL     1     -10.675  16.065  68.770  0.00  0.00    +0.145 A 
ATOM      5  C   UNL     1      -9.300  16.241  68.843  0.00  0.00    +0.037 A 
ATOM      6  C   UNL     1      -8.551  16.236  67.693  0.00  0.00    +0.003 A 
ATOM      7  C   UNL     1      -9.093  15.771  66.526  0.00  0.00    -0.000 A 
BRANCH   4   8
ATOM      8  O   UNL     1     -11.421  16.545  69.834  0.00  0.00    -0.454 OA
BRANCH   8   9
ATOM      9  C   UNL     1     -11.930  15.706  70.809  0.00  0.00    +0.145 A 
ATOM     10  C   UNL     1     -12.432  14.454  70.565  0.00  0.00    +0.037 A 
ATOM     11  C   UNL     1     -13.141  13.801  71.561  0.00  0.00    +0.003 A 
ATOM     12  C   UNL     1     -13.147  14.244  72.874  0.00  0.00    +0.000 A 
ATOM     13  C   UNL     1     -12.565  15.464  73.133  0.00  0.00    +0.003 A 
ATOM     14  C   UNL     1     -11.998  16.191  72.107  0.00  0.00    +0.037 A 
ENDBRANCH   8   9
ENDBRANCH   4   8
ENDBRANCH   1   2
BRANCH   1  15
ATOM     15  O   UNL     1     -10.201  13.709  65.014  0.00  0.00    -0.443 OA
BRANCH  15  16
ATOM     16  C   UNL     1     -10.743  12.436  65.239  0.00  0.00    +0.317 C 
ATOM     17  O   UNL     1     -11.426  11.923  64.329  0.00  0.00    -0.250 OA
BRANCH  16  20
ATOM     18  C   UNL     1      -9.970  12.157  67.837  0.00  0.00    +0.001 C 
ATOM     19  C   UNL     1     -10.035  12.064  67.668  0.00  0.00    +0.015 C 
ATOM     20  C   UNL     1     -11.435  12.315  66.706  0.00  0.00    +0.103 C 
ATOM     21  C   UNL     1     -10.978  10.712  67.185  0.00  0.00    +0.035 C 
ATOM     22  C   UNL     1      -8.776  12.220  67.028  0.00  0.00    +0.001 C 
BRANCH  21  23
ATOM     23  C   UNL     1     -10.115  10.209  65.897  0.00  0.00    -0.003 C 
ATOM     24  C   UNL     1      -9.680   8.950  66.084  0.00  0.00    +0.111 C 
ATOM     25 CL   UNL     1      -8.150   8.468  65.399  0.00  0.00    -0.070 Cl
ATOM     26 CL   UNL     1     -10.709   7.789  66.864  0.00  0.00    -0.070 Cl
ENDBRANCH  21  23
ENDBRANCH  16  20
ENDBRANCH  15  16
ENDBRANCH   1  15
TORSDOF 7
ENDMDL
MODEL 9
REMARK VINA RESULT:      -6.0      2.712      3.751
REMARK  Name = 
REMARK  7 active torsions:
REMARK  status: ('A' for Active; 'I' for Inactive)
REMARK    1  A    between atoms: C_4  and  C_5
REMARK    2  A    between atoms: C_9  and  C_10
REMARK    3  A    between atoms: C_10  and  O_12
REMARK    4  A    between atoms: O_12  and  C_13
REMARK    5  A    between atoms: C_13  and  C_14
REMARK    6  A    between atoms: C_18  and  O_19
REMARK    7  A    between atoms: O_19  and  C_20
REMARK                            x       y       z     vdW  Elec       q    Type
REMARK                         _______ _______ _______ _____ _____    ______ ____
ROOT
ATOM      1  C   UNL     1     -11.915  13.726  65.567  0.00  0.00    +0.235 C 
ENDROOT
BRANCH   1   2
ATOM      2  C   UNL     1     -11.399  12.633  66.423  0.00  0.00    +0.024 A 
ATOM      3  C   UNL     1     -11.724  12.590  67.767  0.00  0.00    +0.037 A 
ATOM      4  C   UNL     1     -11.377  11.450  68.477  0.00  0.00    +0.145 A 
ATOM      5  C   UNL     1     -10.941  10.316  67.805  0.00  0.00    +0.037 A 
ATOM      6  C   UNL     1     -10.584  10.405  66.483  0.00  0.00    +0.003 A 
ATOM      7  C   UNL     1     -10.928  11.510  65.753  0.00  0.00    -0.000 A 
BRANCH   4   8
ATOM      8  O   UNL     1     -11.262  11.437  69.858  0.00  0.00    -0.454 OA
BRANCH   8   9
ATOM      9  C   UNL     1     -11.724  10.380  70.622  0.00  0.00    +0.145 A 
ATOM     10  C   UNL     1     -13.030  10.215  71.000  0.00  0.00    +0.037 A 
ATOM     11  C   UNL     1     -13.343   9.269  71.965  0.00  0.00    +0.003 A 
ATOM     12  C   UNL     1     -12.435   8.308  72.378  0.00  0.00    +0.000 A 
ATOM     13  C   UNL     1     -11.139   8.426  71.927  0.00  0.00    +0.003 A 
ATOM     14  C   UNL     1     -10.791   9.466  71.090  0.00  0.00    +0.037 A 
ENDBRANCH   8   9
ENDBRANCH   4   8
ENDBRANCH   1   2
BRANCH   1  15
ATOM     15  O   UNL     1     -11.673  14.972  66.213  0.00  0.00    -0.443 OA
BRANCH  15  16
ATOM     16  C   UNL     1     -10.674  15.848  65.766  0.00  0.00    +0.317 C 
ATOM     17  O   UNL     1     -10.795  16.341  64.626  0.00  0.00    -0.250 OA
BRANCH  16  20
ATOM     18  C   UNL     1      -9.005  15.522  67.896  0.00  0.00    +0.001 C 
ATOM     19  C   UNL     1      -9.056  15.638  67.737  0.00  0.00    +0.015 C 
ATOM     20  C   UNL     1      -9.180  15.276  66.063  0.00  0.00    +0.103 C 
ATOM     21  C   UNL     1      -8.349  16.704  66.591  0.00  0.00    +0.035 C 
ATOM     22  C   UNL     1     -10.235  16.098  68.386  0.00  0.00    +0.001 C 
BRANCH  21  23
ATOM     23  C   UNL     1      -9.522  17.832  66.490  0.00  0.00    -0.003 C 
ATOM     24  C   UNL     1      -8.992  19.068  66.544  0.00  0.00    +0.111 C 
ATOM     25 CL   UNL     1      -9.906  20.353  67.291  0.00  0.00    -0.070 Cl
ATOM     26 CL   UNL     1      -7.488  19.398  65.740  0.00  0.00    -0.070 Cl
ENDBRANCH  21  23
ENDBRANCH  16  20
ENDBRANCH  15  16
ENDBRANCH   1  15
TORSDOF 7
ENDMDL
