MODEL 1
REMARK VINA RESULT:      -4.9      0.000      0.000
REMARK  Name = 
REMARK  2 active torsions:
REMARK  status: ('A' for Active; 'I' for Inactive)
REMARK    1  A    between atoms: C_4  and  O_6
REMARK    2  A    between atoms: O_6  and  C_7
REMARK                            x       y       z     vdW  Elec       q    Type
REMARK                         _______ _______ _______ _____ _____    ______ ____
ROOT
ATOM      1  C   UNL     1      -9.724  18.139  66.359  0.00  0.00    +0.219 A 
ATOM      2  C   UNL     1      -8.712  19.087  66.293  0.00  0.00    +0.328 A 
ATOM      3  N   UNL     1      -8.177  19.640  67.405  0.00  0.00    -0.151 N 
ATOM      4  C   UNL     1      -7.158  20.649  67.239  0.00  0.00    +0.409 C 
ATOM      5  C   UNL     1      -8.645  19.394  68.643  0.00  0.00    +0.290 A 
ATOM      6  C   UNL     1      -9.868  18.738  68.711  0.00  0.00    +0.079 A 
ATOM      7  C   UNL     1     -10.359  18.073  67.594  0.00  0.00    +0.050 A 
ENDROOT
BRANCH   1   8
ATOM      8  O   UNL     1      -9.656  16.928  65.658  0.00  0.00    -0.404 OA
BRANCH   8  11
ATOM      9  C   UNL     1     -10.407  14.418  66.786  0.00  0.00    +0.118 C 
ATOM     10  N   UNL     1     -11.134  14.944  65.633  0.00  0.00    -0.242 N 
ATOM     11  C   UNL     1     -10.771  16.259  65.190  0.00  0.00    +0.410 C 
ATOM     12  O   UNL     1     -11.350  16.794  64.198  0.00  0.00    -0.226 OA
ATOM     13  C   UNL     1     -11.382  13.952  64.590  0.00  0.00    +0.118 C 
ENDBRANCH   8  11
ENDBRANCH   1   8
TORSDOF 2
ENDMDL
MODEL 2
REMARK VINA RESULT:      -4.8      4.501      6.122
REMARK  Name = 
REMARK  2 active torsions:
REMARK  status: ('A' for Active; 'I' for Inactive)
REMARK    1  A    between atoms: C_4  and  O_6
REMARK    2  A    between atoms: O_6  and  C_7
REMARK                            x       y       z     vdW  Elec       q    Type
REMARK                         _______ _______ _______ _____ _____    ______ ____
ROOT
ATOM      1  C   UNL     1     -11.873  15.390  70.588  0.00  0.00    +0.219 A 
ATOM      2  C   UNL     1     -12.321  14.089  70.780  0.00  0.00    +0.328 A 
ATOM      3  N   UNL     1     -12.988  13.721  71.897  0.00  0.00    -0.151 N 
ATOM      4  C   UNL     1     -13.378  12.337  72.029  0.00  0.00    +0.409 C 
ATOM      5  C   UNL     1     -13.182  14.548  72.941  0.00  0.00    +0.290 A 
ATOM      6  C   UNL     1     -12.447  15.727  72.927  0.00  0.00    +0.079 A 
ATOM      7  C   UNL     1     -11.857  16.161  71.745  0.00  0.00    +0.050 A 
ENDROOT
BRANCH   1   8
ATOM      8  O   UNL     1     -12.126  16.097  69.405  0.00  0.00    -0.404 OA
BRANCH   8  11
ATOM      9  C   UNL     1     -11.845  14.467  67.082  0.00  0.00    +0.118 C 
ATOM     10  N   UNL     1     -10.883  15.535  67.341  0.00  0.00    -0.242 N 
ATOM     11  C   UNL     1     -11.150  16.381  68.468  0.00  0.00    +0.410 C 
ATOM     12  O   UNL     1     -10.369  17.333  68.767  0.00  0.00    -0.226 OA
ATOM     13  C   UNL     1      -9.491  15.137  67.144  0.00  0.00    +0.118 C 
ENDBRANCH   8  11
ENDBRANCH   1   8
TORSDOF 2
ENDMDL
MODEL 3
REMARK VINA RESULT:      -4.6      4.748      6.761
REMARK  Name = 
REMARK  2 active torsions:
REMARK  status: ('A' for Active; 'I' for Inactive)
REMARK    1  A    between atoms: C_4  and  O_6
REMARK    2  A    between atoms: O_6  and  C_7
REMARK                            x       y       z     vdW  Elec       q    Type
REMARK                         _______ _______ _______ _____ _____    ______ ____
ROOT
ATOM      1  C   UNL     1     -11.801  14.133  68.959  0.00  0.00    +0.219 A 
ATOM      2  C   UNL     1     -11.664  14.701  67.699  0.00  0.00    +0.328 A 
ATOM      3  N   UNL     1     -11.723  13.957  66.571  0.00  0.00    -0.151 N 
ATOM      4  C   UNL     1     -11.527  14.626  65.306  0.00  0.00    +0.409 C 
ATOM      5  C   UNL     1     -11.818  12.614  66.581  0.00  0.00    +0.290 A 
ATOM      6  C   UNL     1     -11.600  12.000  67.809  0.00  0.00    +0.079 A 
ATOM      7  C   UNL     1     -11.654  12.751  68.978  0.00  0.00    +0.050 A 
ENDROOT
BRANCH   1   8
ATOM      8  O   UNL     1     -12.683  14.651  69.916  0.00  0.00    -0.404 OA
BRANCH   8  11
ATOM      9  C   UNL     1     -13.589  13.539  72.381  0.00  0.00    +0.118 C 
ATOM     10  N   UNL     1     -12.775  14.752  72.386  0.00  0.00    -0.242 N 
ATOM     11  C   UNL     1     -12.266  15.190  71.119  0.00  0.00    +0.410 C 
ATOM     12  O   UNL     1     -11.550  16.232  71.029  0.00  0.00    -0.226 OA
ATOM     13  C   UNL     1     -13.273  15.793  73.281  0.00  0.00    +0.118 C 
ENDBRANCH   8  11
ENDBRANCH   1   8
TORSDOF 2
ENDMDL
MODEL 4
REMARK VINA RESULT:      -4.6      1.189      1.922
REMARK  Name = 
REMARK  2 active torsions:
REMARK  status: ('A' for Active; 'I' for Inactive)
REMARK    1  A    between atoms: C_4  and  O_6
REMARK    2  A    between atoms: O_6  and  C_7
REMARK                            x       y       z     vdW  Elec       q    Type
REMARK                         _______ _______ _______ _____ _____    ______ ____
ROOT
ATOM      1  C   UNL     1      -8.955  16.826  66.336  0.00  0.00    +0.219 A 
ATOM      2  C   UNL     1      -9.752  17.774  66.966  0.00  0.00    +0.328 A 
ATOM      3  N   UNL     1      -9.375  19.068  67.069  0.00  0.00    -0.151 N 
ATOM      4  C   UNL     1     -10.247  19.974  67.778  0.00  0.00    +0.409 C 
ATOM      5  C   UNL     1      -8.171  19.516  66.665  0.00  0.00    +0.290 A 
ATOM      6  C   UNL     1      -7.229  18.539  66.364  0.00  0.00    +0.079 A 
ATOM      7  C   UNL     1      -7.639  17.228  66.145  0.00  0.00    +0.050 A 
ENDROOT
BRANCH   1   8
ATOM      8  O   UNL     1      -9.462  15.961  65.358  0.00  0.00    -0.404 OA
BRANCH   8  11
ATOM      9  C   UNL     1     -10.998  13.827  66.462  0.00  0.00    +0.118 C 
ATOM     10  N   UNL     1     -11.608  14.737  65.496  0.00  0.00    -0.242 N 
ATOM     11  C   UNL     1     -10.809  15.848  65.068  0.00  0.00    +0.410 C 
ATOM     12  O   UNL     1     -11.257  16.689  64.232  0.00  0.00    -0.226 OA
ATOM     13  C   UNL     1     -12.390  14.063  64.463  0.00  0.00    +0.118 C 
ENDBRANCH   8  11
ENDBRANCH   1   8
TORSDOF 2
ENDMDL
MODEL 5
REMARK VINA RESULT:      -4.5      1.403      5.485
REMARK  Name = 
REMARK  2 active torsions:
REMARK  status: ('A' for Active; 'I' for Inactive)
REMARK    1  A    between atoms: C_4  and  O_6
REMARK    2  A    between atoms: O_6  and  C_7
REMARK                            x       y       z     vdW  Elec       q    Type
REMARK                         _______ _______ _______ _____ _____    ______ ____
ROOT
ATOM      1  C   UNL     1     -10.360  15.361  65.831  0.00  0.00    +0.219 A 
ATOM      2  C   UNL     1     -10.584  14.479  64.781  0.00  0.00    +0.328 A 
ATOM      3  N   UNL     1     -11.628  13.619  64.782  0.00  0.00    -0.151 N 
ATOM      4  C   UNL     1     -11.757  12.709  63.668  0.00  0.00    +0.409 C 
ATOM      5  C   UNL     1     -12.463  13.480  65.828  0.00  0.00    +0.290 A 
ATOM      6  C   UNL     1     -12.057  14.082  67.013  0.00  0.00    +0.079 A 
ATOM      7  C   UNL     1     -11.061  15.051  66.991  0.00  0.00    +0.050 A 
ENDROOT
BRANCH   1   8
ATOM      8  O   UNL     1     -10.133  16.726  65.619  0.00  0.00    -0.404 OA
BRANCH   8  11
ATOM      9  C   UNL     1     -10.614  19.052  67.199  0.00  0.00    +0.118 C 
ATOM     10  N   UNL     1      -9.243  18.654  66.889  0.00  0.00    -0.242 N 
ATOM     11  C   UNL     1      -9.077  17.416  66.184  0.00  0.00    +0.410 C 
ATOM     12  O   UNL     1      -7.923  16.993  65.875  0.00  0.00    -0.226 OA
ATOM     13  C   UNL     1      -8.389  19.762  66.470  0.00  0.00    +0.118 C 
ENDBRANCH   8  11
ENDBRANCH   1   8
TORSDOF 2
ENDMDL
MODEL 6
REMARK VINA RESULT:      -4.4      2.549      4.918
REMARK  Name = 
REMARK  2 active torsions:
REMARK  status: ('A' for Active; 'I' for Inactive)
REMARK    1  A    between atoms: C_4  and  O_6
REMARK    2  A    between atoms: O_6  and  C_7
REMARK                            x       y       z     vdW  Elec       q    Type
REMARK                         _______ _______ _______ _____ _____    ______ ____
ROOT
ATOM      1  C   UNL     1     -11.187  15.407  67.619  0.00  0.00    +0.219 A 
ATOM      2  C   UNL     1     -11.673  15.912  68.819  0.00  0.00    +0.328 A 
ATOM      3  N   UNL     1     -12.005  15.103  69.851  0.00  0.00    -0.151 N 
ATOM      4  C   UNL     1     -12.542  15.713  71.044  0.00  0.00    +0.409 C 
ATOM      5  C   UNL     1     -11.987  13.760  69.765  0.00  0.00    +0.290 A 
ATOM      6  C   UNL     1     -11.852  13.234  68.486  0.00  0.00    +0.079 A 
ATOM      7  C   UNL     1     -11.399  14.044  67.450  0.00  0.00    +0.050 A 
ENDROOT
BRANCH   1   8
ATOM      8  O   UNL     1     -10.026  15.909  67.017  0.00  0.00    -0.404 OA
BRANCH   8  11
ATOM      9  C   UNL     1      -8.876  18.397  67.804  0.00  0.00    +0.118 C 
ATOM     10  N   UNL     1      -9.570  18.290  66.523  0.00  0.00    -0.242 N 
ATOM     11  C   UNL     1     -10.026  16.983  66.148  0.00  0.00    +0.410 C 
ATOM     12  O   UNL     1     -10.637  16.797  65.053  0.00  0.00    -0.226 OA
ATOM     13  C   UNL     1     -10.480  19.399  66.251  0.00  0.00    +0.118 C 
ENDBRANCH   8  11
ENDBRANCH   1   8
TORSDOF 2
ENDMDL
MODEL 7
REMARK VINA RESULT:      -4.4      3.354      4.482
REMARK  Name = 
REMARK  2 active torsions:
REMARK  status: ('A' for Active; 'I' for Inactive)
REMARK    1  A    between atoms: C_4  and  O_6
REMARK    2  A    between atoms: O_6  and  C_7
REMARK                            x       y       z     vdW  Elec       q    Type
REMARK                         _______ _______ _______ _____ _____    ______ ____
ROOT
ATOM      1  C   UNL     1     -10.751  14.748  66.997  0.00  0.00    +0.219 A 
ATOM      2  C   UNL     1     -11.232  13.953  68.029  0.00  0.00    +0.328 A 
ATOM      3  N   UNL     1     -11.758  14.486  69.155  0.00  0.00    -0.151 N 
ATOM      4  C   UNL     1     -12.194  13.583  70.193  0.00  0.00    +0.409 C 
ATOM      5  C   UNL     1     -11.766  15.809  69.406  0.00  0.00    +0.290 A 
ATOM      6  C   UNL     1     -10.981  16.591  68.566  0.00  0.00    +0.079 A 
ATOM      7  C   UNL     1     -10.538  16.074  67.354  0.00  0.00    +0.050 A 
ENDROOT
BRANCH   1   8
ATOM      8  O   UNL     1     -11.128  14.544  65.663  0.00  0.00    -0.404 OA
BRANCH   8  11
ATOM      9  C   UNL     1     -10.370  11.914  64.859  0.00  0.00    +0.118 C 
ATOM     10  N   UNL     1     -11.765  12.333  64.754  0.00  0.00    -0.242 N 
ATOM     11  C   UNL     1     -12.089  13.628  65.278  0.00  0.00    +0.410 C 
ATOM     12  O   UNL     1     -13.275  14.072  65.230  0.00  0.00    -0.226 OA
ATOM     13  C   UNL     1     -12.397  11.967  63.489  0.00  0.00    +0.118 C 
ENDBRANCH   8  11
ENDBRANCH   1   8
TORSDOF 2
ENDMDL
MODEL 8
REMARK VINA RESULT:      -4.4      1.965      5.063
REMARK  Name = 
REMARK  2 active torsions:
REMARK  status: ('A' for Active; 'I' for Inactive)
REMARK    1  A    between atoms: C_4  and  O_6
REMARK    2  A    between atoms: O_6  and  C_7
REMARK                            x       y       z     vdW  Elec       q    Type
REMARK                         _______ _______ _______ _____ _____    ______ ____
ROOT
ATOM      1  C   UNL     1     -10.645  16.568  67.905  0.00  0.00    +0.219 A 
ATOM      2  C   UNL     1     -10.319  15.983  66.687  0.00  0.00    +0.328 A 
ATOM      3  N   UNL     1     -10.957  14.882  66.231  0.00  0.00    -0.151 N 
ATOM      4  C   UNL     1     -10.523  14.318  64.975  0.00  0.00    +0.409 C 
ATOM      5  C   UNL     1     -11.876  14.214  66.954  0.00  0.00    +0.290 A 
ATOM      6  C   UNL     1     -11.961  14.561  68.297  0.00  0.00    +0.079 A 
ATOM      7  C   UNL     1     -11.401  15.754  68.740  0.00  0.00    +0.050 A 
ENDROOT
BRANCH   1   8
ATOM      8  O   UNL     1     -10.890  17.941  68.028  0.00  0.00    -0.404 OA
BRANCH   8  11
ATOM      9  C   UNL     1     -10.621  19.639  65.752  0.00  0.00    +0.118 C 
ATOM     10  N   UNL     1      -9.633  19.700  66.827  0.00  0.00    -0.242 N 
ATOM     11  C   UNL     1      -9.893  18.897  67.986  0.00  0.00    +0.410 C 
ATOM     12  O   UNL     1      -9.090  18.889  68.966  0.00  0.00    -0.226 OA
ATOM     13  C   UNL     1      -8.251  19.732  66.355  0.00  0.00    +0.118 C 
ENDBRANCH   8  11
ENDBRANCH   1   8
TORSDOF 2
ENDMDL
MODEL 9
REMARK VINA RESULT:      -4.4      4.033      5.532
REMARK  Name = 
REMARK  2 active torsions:
REMARK  status: ('A' for Active; 'I' for Inactive)
REMARK    1  A    between atoms: C_4  and  O_6
REMARK    2  A    between atoms: O_6  and  C_7
REMARK                            x       y       z     vdW  Elec       q    Type
REMARK                         _______ _______ _______ _____ _____    ______ ____
ROOT
ATOM      1  C   UNL     1     -11.693  14.248  69.074  0.00  0.00    +0.219 A 
ATOM      2  C   UNL     1     -12.381  13.561  70.066  0.00  0.00    +0.328 A 
ATOM      3  N   UNL     1     -12.855  14.184  71.168  0.00  0.00    -0.151 N 
ATOM      4  C   UNL     1     -13.521  13.383  72.167  0.00  0.00    +0.409 C 
ATOM      5  C   UNL     1     -12.615  15.481  71.438  0.00  0.00    +0.290 A 
ATOM      6  C   UNL     1     -11.644  16.094  70.655  0.00  0.00    +0.079 A 
ATOM      7  C   UNL     1     -11.242  15.504  69.462  0.00  0.00    +0.050 A 
ENDROOT
BRANCH   1   8
ATOM      8  O   UNL     1     -12.025  14.127  67.719  0.00  0.00    -0.404 OA
BRANCH   8  11
ATOM      9  C   UNL     1      -9.962  14.858  65.889  0.00  0.00    +0.118 C 
ATOM     10  N   UNL     1     -10.511  13.504  65.864  0.00  0.00    -0.242 N 
ATOM     11  C   UNL     1     -11.466  13.178  66.882  0.00  0.00    +0.410 C 
ATOM     12  O   UNL     1     -11.993  12.027  66.937  0.00  0.00    -0.226 OA
ATOM     13  C   UNL     1     -10.801  13.012  64.519  0.00  0.00    +0.118 C 
ENDBRANCH   8  11
ENDBRANCH   1   8
TORSDOF 2
ENDMDL
