MODEL 1
REMARK VINA RESULT:      -7.0      0.000      0.000
REMARK  Name = 
REMARK  7 active torsions:
REMARK  status: ('A' for Active; 'I' for Inactive)
REMARK    1  A    between atoms: C_2  and  C_3
REMARK    2  A    between atoms: C_6  and  C_7
REMARK    3  A    between atoms: C_7  and  C_8
REMARK    4  A    between atoms: C_8  and  O_9
REMARK    5  A    between atoms: O_9  and  C_10
REMARK    6  A    between atoms: C_13  and  C_14
REMARK    7  A    between atoms: C_14  and  C_15
REMARK                            x       y       z     vdW  Elec       q    Type
REMARK                         _______ _______ _______ _____ _____    ______ ____
ROOT
ATOM      1  C   UNL     1     -11.831  12.585  67.012  0.00  0.00    +0.139 A 
ATOM      2  C   UNL     1     -11.510  11.623  67.960  0.00  0.00    +0.037 A 
ATOM      3  C   UNL     1     -12.011  11.866  69.234  0.00  0.00    -0.001 A 
ATOM      4  C   UNL     1     -11.923  13.166  69.724  0.00  0.00    -0.021 A 
ATOM      5  C   UNL     1     -12.019  14.153  68.748  0.00  0.00    -0.001 A 
ATOM      6  C   UNL     1     -12.269  13.841  67.418  0.00  0.00    +0.037 A 
ENDROOT
BRANCH   4   7
ATOM      7  C   UNL     1     -12.476  13.529  71.048  0.00  0.00    +0.047 C 
BRANCH   7   8
ATOM      8  C   UNL     1     -12.879  15.075  71.019  0.00  0.00    +0.139 C 
ATOM      9  C   UNL     1     -14.075  14.919  72.023  0.00  0.00    +0.259 C 
ATOM     10  O   UNL     1     -15.178  14.566  71.502  0.00  0.00    -0.272 OA
ATOM     11  N   UNL     1     -14.035  16.081  72.862  0.00  0.00    -0.135 NA
ATOM     12  C   UNL     1     -12.861  15.897  73.667  0.00  0.00    +0.299 C 
ATOM     13  O   UNL     1     -12.649  16.649  74.666  0.00  0.00    -0.261 OA
ATOM     14  S   UNL     1     -11.633  15.542  72.400  0.00  0.00    -0.046 S 
ENDBRANCH   7   8
ENDBRANCH   4   7
BRANCH   1  15
ATOM     15  O   UNL     1     -11.657  12.314  65.651  0.00  0.00    -0.475 OA
BRANCH  15  16
ATOM     16  C   UNL     1     -11.482  13.414  64.766  0.00  0.00    +0.212 C 
BRANCH  16  17
ATOM     17  C   UNL     1     -10.010  13.792  64.639  0.00  0.00    +0.093 C 
BRANCH  17  21
ATOM     18  C   UNL     1      -9.773  17.600  66.481  0.00  0.00    -0.003 A 
ATOM     19  C   UNL     1     -10.688  17.291  65.494  0.00  0.00    +0.094 A 
ATOM     20  N   UNL     1     -10.759  16.073  64.932  0.00  0.00    -0.248 NA
ATOM     21  C   UNL     1      -9.888  15.123  65.294  0.00  0.00    +0.063 A 
ATOM     22  C   UNL     1      -9.064  15.327  66.395  0.00  0.00    +0.015 A 
ATOM     23  C   UNL     1      -9.034  16.551  67.016  0.00  0.00    -0.002 A 
BRANCH  18  25
ATOM     24  C   UNL     1     -10.349  19.809  66.417  0.00  0.00    +0.005 C 
ATOM     25  C   UNL     1      -9.413  18.998  66.839  0.00  0.00    +0.028 C 
ENDBRANCH  18  25
ENDBRANCH  17  21
ENDBRANCH  16  17
ENDBRANCH  15  16
ENDBRANCH   1  15
TORSDOF 7
ENDMDL
MODEL 2
REMARK VINA RESULT:      -6.6      2.881      4.962
REMARK  Name = 
REMARK  7 active torsions:
REMARK  status: ('A' for Active; 'I' for Inactive)
REMARK    1  A    between atoms: C_2  and  C_3
REMARK    2  A    between atoms: C_6  and  C_7
REMARK    3  A    between atoms: C_7  and  C_8
REMARK    4  A    between atoms: C_8  and  O_9
REMARK    5  A    between atoms: O_9  and  C_10
REMARK    6  A    between atoms: C_13  and  C_14
REMARK    7  A    between atoms: C_14  and  C_15
REMARK                            x       y       z     vdW  Elec       q    Type
REMARK                         _______ _______ _______ _____ _____    ______ ____
ROOT
ATOM      1  C   UNL     1     -10.549  13.712  67.016  0.00  0.00    +0.139 A 
ATOM      2  C   UNL     1     -11.358  14.820  67.220  0.00  0.00    +0.037 A 
ATOM      3  C   UNL     1     -11.765  15.015  68.536  0.00  0.00    -0.001 A 
ATOM      4  C   UNL     1     -12.178  13.897  69.254  0.00  0.00    -0.021 A 
ATOM      5  C   UNL     1     -11.529  12.717  68.902  0.00  0.00    -0.001 A 
ATOM      6  C   UNL     1     -10.497  12.703  67.973  0.00  0.00    +0.037 A 
ENDROOT
BRANCH   4   7
ATOM      7  C   UNL     1     -12.579  13.998  70.675  0.00  0.00    +0.047 C 
BRANCH   7   8
ATOM      8  C   UNL     1     -12.969  15.517  70.982  0.00  0.00    +0.139 C 
ATOM      9  C   UNL     1     -14.122  15.157  71.984  0.00  0.00    +0.259 C 
ATOM     10  O   UNL     1     -15.250  14.918  71.451  0.00  0.00    -0.272 OA
ATOM     11  N   UNL     1     -14.035  16.122  73.042  0.00  0.00    -0.135 NA
ATOM     12  C   UNL     1     -12.830  15.777  73.739  0.00  0.00    +0.299 C 
ATOM     13  O   UNL     1     -12.567  16.307  74.861  0.00  0.00    -0.261 OA
ATOM     14  S   UNL     1     -11.661  15.690  72.373  0.00  0.00    -0.046 S 
ENDBRANCH   7   8
ENDBRANCH   4   7
BRANCH   1  15
ATOM     15  O   UNL     1      -9.830  13.577  65.823  0.00  0.00    -0.475 OA
BRANCH  15  16
ATOM     16  C   UNL     1     -10.551  13.625  64.598  0.00  0.00    +0.212 C 
BRANCH  16  17
ATOM     17  C   UNL     1     -11.432  12.390  64.426  0.00  0.00    +0.093 C 
BRANCH  17  21
ATOM     18  C   UNL     1      -8.708   9.311  63.400  0.00  0.00    -0.003 A 
ATOM     19  C   UNL     1      -8.977  10.390  62.581  0.00  0.00    +0.094 A 
ATOM     20  N   UNL     1      -9.832  11.366  62.929  0.00  0.00    -0.248 NA
ATOM     21  C   UNL     1     -10.495  11.284  64.089  0.00  0.00    +0.063 A 
ATOM     22  C   UNL     1     -10.139  10.315  65.020  0.00  0.00    +0.015 A 
ATOM     23  C   UNL     1      -9.216   9.352  64.694  0.00  0.00    -0.002 A 
BRANCH  18  25
ATOM     24  C   UNL     1      -8.318   7.936  61.620  0.00  0.00    +0.005 C 
ATOM     25  C   UNL     1      -8.089   8.054  62.902  0.00  0.00    +0.028 C 
ENDBRANCH  18  25
ENDBRANCH  17  21
ENDBRANCH  16  17
ENDBRANCH  15  16
ENDBRANCH   1  15
TORSDOF 7
ENDMDL
MODEL 3
REMARK VINA RESULT:      -6.5      4.808      8.400
REMARK  Name = 
REMARK  7 active torsions:
REMARK  status: ('A' for Active; 'I' for Inactive)
REMARK    1  A    between atoms: C_2  and  C_3
REMARK    2  A    between atoms: C_6  and  C_7
REMARK    3  A    between atoms: C_7  and  C_8
REMARK    4  A    between atoms: C_8  and  O_9
REMARK    5  A    between atoms: O_9  and  C_10
REMARK    6  A    between atoms: C_13  and  C_14
REMARK    7  A    between atoms: C_14  and  C_15
REMARK                            x       y       z     vdW  Elec       q    Type
REMARK                         _______ _______ _______ _____ _____    ______ ____
ROOT
ATOM      1  C   UNL     1      -9.017   9.335  67.727  0.00  0.00    +0.139 A 
ATOM      2  C   UNL     1      -9.906   9.245  66.667  0.00  0.00    +0.037 A 
ATOM      3  C   UNL     1     -10.369  10.465  66.184  0.00  0.00    -0.001 A 
ATOM      4  C   UNL     1     -10.728  11.432  67.118  0.00  0.00    -0.021 A 
ATOM      5  C   UNL     1      -9.987  11.395  68.296  0.00  0.00    -0.001 A 
ATOM      6  C   UNL     1      -8.927  10.514  68.461  0.00  0.00    +0.037 A 
ENDROOT
BRANCH   4   7
ATOM      7  C   UNL     1     -11.181  12.777  66.698  0.00  0.00    +0.047 C 
BRANCH   7   8
ATOM      8  C   UNL     1     -10.998  12.901  65.116  0.00  0.00    +0.139 C 
ATOM      9  C   UNL     1     -12.460  13.407  64.853  0.00  0.00    +0.259 C 
ATOM     10  O   UNL     1     -13.337  12.496  64.735  0.00  0.00    -0.272 OA
ATOM     11  N   UNL     1     -12.348  14.410  63.834  0.00  0.00    -0.135 NA
ATOM     12  C   UNL     1     -11.697  15.509  64.488  0.00  0.00    +0.299 C 
ATOM     13  O   UNL     1     -11.635  16.642  63.921  0.00  0.00    -0.261 OA
ATOM     14  S   UNL     1     -10.281  14.676  65.223  0.00  0.00    -0.046 S 
ENDBRANCH   7   8
ENDBRANCH   4   7
BRANCH   1  15
ATOM     15  O   UNL     1      -8.252   8.224  68.099  0.00  0.00    -0.475 OA
BRANCH  15  16
ATOM     16  C   UNL     1      -8.248   7.841  69.469  0.00  0.00    +0.212 C 
BRANCH  16  17
ATOM     17  C   UNL     1      -9.180   6.658  69.714  0.00  0.00    +0.093 C 
BRANCH  17  21
ATOM     18  C   UNL     1     -12.550   8.163  71.795  0.00  0.00    -0.003 A 
ATOM     19  C   UNL     1     -12.519   6.915  71.204  0.00  0.00    +0.094 A 
ATOM     20  N   UNL     1     -11.435   6.448  70.561  0.00  0.00    -0.248 NA
ATOM     21  C   UNL     1     -10.352   7.224  70.436  0.00  0.00    +0.063 A 
ATOM     22  C   UNL     1     -10.269   8.412  71.153  0.00  0.00    +0.015 A 
ATOM     23  C   UNL     1     -11.351   8.864  71.866  0.00  0.00    -0.002 A 
BRANCH  18  25
ATOM     24  C   UNL     1     -14.826   8.053  71.932  0.00  0.00    +0.005 C 
ATOM     25  C   UNL     1     -13.816   8.851  72.163  0.00  0.00    +0.028 C 
ENDBRANCH  18  25
ENDBRANCH  17  21
ENDBRANCH  16  17
ENDBRANCH  15  16
ENDBRANCH   1  15
TORSDOF 7
ENDMDL
MODEL 4
REMARK VINA RESULT:      -6.4      4.344      6.629
REMARK  Name = 
REMARK  7 active torsions:
REMARK  status: ('A' for Active; 'I' for Inactive)
REMARK    1  A    between atoms: C_2  and  C_3
REMARK    2  A    between atoms: C_6  and  C_7
REMARK    3  A    between atoms: C_7  and  C_8
REMARK    4  A    between atoms: C_8  and  O_9
REMARK    5  A    between atoms: O_9  and  C_10
REMARK    6  A    between atoms: C_13  and  C_14
REMARK    7  A    between atoms: C_14  and  C_15
REMARK                            x       y       z     vdW  Elec       q    Type
REMARK                         _______ _______ _______ _____ _____    ______ ____
ROOT
ATOM      1  C   UNL     1      -6.707  16.290  68.628  0.00  0.00    +0.139 A 
ATOM      2  C   UNL     1      -7.880  15.742  69.127  0.00  0.00    +0.037 A 
ATOM      3  C   UNL     1      -8.646  15.049  68.195  0.00  0.00    -0.001 A 
ATOM      4  C   UNL     1      -8.802  15.622  66.936  0.00  0.00    -0.021 A 
ATOM      5  C   UNL     1      -7.710  16.372  66.508  0.00  0.00    -0.001 A 
ATOM      6  C   UNL     1      -6.543  16.450  67.256  0.00  0.00    +0.037 A 
ENDROOT
BRANCH   4   7
ATOM      7  C   UNL     1      -9.556  14.934  65.865  0.00  0.00    +0.047 C 
BRANCH   7   8
ATOM      8  C   UNL     1     -11.117  15.132  66.139  0.00  0.00    +0.139 C 
ATOM      9  C   UNL     1     -11.504  15.245  64.623  0.00  0.00    +0.259 C 
ATOM     10  O   UNL     1     -11.391  16.406  64.119  0.00  0.00    -0.272 OA
ATOM     11  N   UNL     1     -12.744  14.538  64.482  0.00  0.00    -0.135 NA
ATOM     12  C   UNL     1     -12.387  13.160  64.661  0.00  0.00    +0.299 C 
ATOM     13  O   UNL     1     -13.222  12.244  64.389  0.00  0.00    -0.261 OA
ATOM     14  S   UNL     1     -11.461  13.246  66.202  0.00  0.00    -0.046 S 
ENDBRANCH   7   8
ENDBRANCH   4   7
BRANCH   1  15
ATOM     15  O   UNL     1      -5.712  16.736  69.505  0.00  0.00    -0.475 OA
BRANCH  15  16
ATOM     16  C   UNL     1      -4.989  17.911  69.155  0.00  0.00    +0.212 C 
BRANCH  16  17
ATOM     17  C   UNL     1      -5.636  19.156  69.754  0.00  0.00    +0.093 C 
BRANCH  17  21
ATOM     18  C   UNL     1      -8.938  20.098  67.271  0.00  0.00    -0.003 A 
ATOM     19  C   UNL     1      -9.071  19.587  68.547  0.00  0.00    +0.094 A 
ATOM     20  N   UNL     1      -8.012  19.308  69.327  0.00  0.00    -0.248 NA
ATOM     21  C   UNL     1      -6.773  19.481  68.849  0.00  0.00    +0.063 A 
ATOM     22  C   UNL     1      -6.585  20.149  67.645  0.00  0.00    +0.015 A 
ATOM     23  C   UNL     1      -7.667  20.495  66.873  0.00  0.00    -0.002 A 
BRANCH  18  25
ATOM     24  C   UNL     1     -10.525  18.842  66.215  0.00  0.00    +0.005 C 
ATOM     25  C   UNL     1     -10.033  20.053  66.266  0.00  0.00    +0.028 C 
ENDBRANCH  18  25
ENDBRANCH  17  21
ENDBRANCH  16  17
ENDBRANCH  15  16
ENDBRANCH   1  15
TORSDOF 7
ENDMDL
MODEL 5
REMARK VINA RESULT:      -6.3      5.124      9.081
REMARK  Name = 
REMARK  7 active torsions:
REMARK  status: ('A' for Active; 'I' for Inactive)
REMARK    1  A    between atoms: C_2  and  C_3
REMARK    2  A    between atoms: C_6  and  C_7
REMARK    3  A    between atoms: C_7  and  C_8
REMARK    4  A    between atoms: C_8  and  O_9
REMARK    5  A    between atoms: O_9  and  C_10
REMARK    6  A    between atoms: C_13  and  C_14
REMARK    7  A    between atoms: C_14  and  C_15
REMARK                            x       y       z     vdW  Elec       q    Type
REMARK                         _______ _______ _______ _____ _____    ______ ____
ROOT
ATOM      1  C   UNL     1      -9.995   9.239  68.258  0.00  0.00    +0.139 A 
ATOM      2  C   UNL     1     -10.870   9.889  69.116  0.00  0.00    +0.037 A 
ATOM      3  C   UNL     1     -11.611  10.912  68.533  0.00  0.00    -0.001 A 
ATOM      4  C   UNL     1     -10.946  11.779  67.672  0.00  0.00    -0.021 A 
ATOM      5  C   UNL     1      -9.905  11.192  66.959  0.00  0.00    -0.001 A 
ATOM      6  C   UNL     1      -9.634   9.833  67.053  0.00  0.00    +0.037 A 
ENDROOT
BRANCH   4   7
ATOM      7  C   UNL     1     -11.662  12.865  66.966  0.00  0.00    +0.047 C 
BRANCH   7   8
ATOM      8  C   UNL     1     -11.156  12.902  65.451  0.00  0.00    +0.139 C 
ATOM      9  C   UNL     1     -12.549  13.309  64.856  0.00  0.00    +0.259 C 
ATOM     10  O   UNL     1     -13.343  12.344  64.624  0.00  0.00    -0.272 OA
ATOM     11  N   UNL     1     -12.268  14.253  63.814  0.00  0.00    -0.135 NA
ATOM     12  C   UNL     1     -11.816  15.424  64.508  0.00  0.00    +0.299 C 
ATOM     13  O   UNL     1     -11.683  16.523  63.888  0.00  0.00    -0.261 OA
ATOM     14  S   UNL     1     -10.553  14.718  65.579  0.00  0.00    -0.046 S 
ENDBRANCH   7   8
ENDBRANCH   4   7
BRANCH   1  15
ATOM     15  O   UNL     1      -9.428   8.015  68.629  0.00  0.00    -0.475 OA
BRANCH  15  16
ATOM     16  C   UNL     1      -9.725   6.872  67.836  0.00  0.00    +0.212 C 
BRANCH  16  17
ATOM     17  C   UNL     1     -11.081   6.279  68.208  0.00  0.00    +0.093 C 
BRANCH  17  21
ATOM     18  C   UNL     1     -10.932   5.424  72.354  0.00  0.00    -0.003 A 
ATOM     19  C   UNL     1     -11.838   6.303  71.794  0.00  0.00    +0.094 A 
ATOM     20  N   UNL     1     -11.881   6.550  70.473  0.00  0.00    -0.248 NA
ATOM     21  C   UNL     1     -10.990   5.970  69.660  0.00  0.00    +0.063 A 
ATOM     22  C   UNL     1     -10.174   4.954  70.145  0.00  0.00    +0.015 A 
ATOM     23  C   UNL     1     -10.172   4.651  71.484  0.00  0.00    -0.002 A 
BRANCH  18  25
ATOM     24  C   UNL     1     -10.118   6.585  74.144  0.00  0.00    +0.005 C 
ATOM     25  C   UNL     1     -10.604   5.419  73.805  0.00  0.00    +0.028 C 
ENDBRANCH  18  25
ENDBRANCH  17  21
ENDBRANCH  16  17
ENDBRANCH  15  16
ENDBRANCH   1  15
TORSDOF 7
ENDMDL
MODEL 6
REMARK VINA RESULT:      -6.3      4.625      7.455
REMARK  Name = 
REMARK  7 active torsions:
REMARK  status: ('A' for Active; 'I' for Inactive)
REMARK    1  A    between atoms: C_2  and  C_3
REMARK    2  A    between atoms: C_6  and  C_7
REMARK    3  A    between atoms: C_7  and  C_8
REMARK    4  A    between atoms: C_8  and  O_9
REMARK    5  A    between atoms: O_9  and  C_10
REMARK    6  A    between atoms: C_13  and  C_14
REMARK    7  A    between atoms: C_14  and  C_15
REMARK                            x       y       z     vdW  Elec       q    Type
REMARK                         _______ _______ _______ _____ _____    ______ ____
ROOT
ATOM      1  C   UNL     1      -7.789  18.278  68.340  0.00  0.00    +0.139 A 
ATOM      2  C   UNL     1      -9.123  18.424  67.989  0.00  0.00    +0.037 A 
ATOM      3  C   UNL     1      -9.706  17.297  67.418  0.00  0.00    -0.001 A 
ATOM      4  C   UNL     1      -8.964  16.600  66.469  0.00  0.00    -0.021 A 
ATOM      5  C   UNL     1      -7.589  16.630  66.681  0.00  0.00    -0.001 A 
ATOM      6  C   UNL     1      -7.038  17.238  67.802  0.00  0.00    +0.037 A 
ENDROOT
BRANCH   4   7
ATOM      7  C   UNL     1      -9.481  15.360  65.846  0.00  0.00    +0.047 C 
BRANCH   7   8
ATOM      8  C   UNL     1     -11.069  15.333  66.018  0.00  0.00    +0.139 C 
ATOM      9  C   UNL     1     -11.369  15.650  64.510  0.00  0.00    +0.259 C 
ATOM     10  O   UNL     1     -11.369  16.883  64.204  0.00  0.00    -0.272 OA
ATOM     11  N   UNL     1     -12.499  14.840  64.159  0.00  0.00    -0.135 NA
ATOM     12  C   UNL     1     -11.987  13.500  64.152  0.00  0.00    +0.299 C 
ATOM     13  O   UNL     1     -12.682  12.553  63.673  0.00  0.00    -0.261 OA
ATOM     14  S   UNL     1     -11.178  13.436  65.758  0.00  0.00    -0.046 S 
ENDBRANCH   7   8
ENDBRANCH   4   7
BRANCH   1  15
ATOM     15  O   UNL     1      -7.180  19.209  69.189  0.00  0.00    -0.475 OA
BRANCH  15  16
ATOM     16  C   UNL     1      -5.997  19.856  68.735  0.00  0.00    +0.212 C 
BRANCH  16  17
ATOM     17  C   UNL     1      -6.310  20.878  67.646  0.00  0.00    +0.093 C 
BRANCH  17  21
ATOM     18  C   UNL     1      -4.602  19.197  64.151  0.00  0.00    -0.003 A 
ATOM     19  C   UNL     1      -3.912  19.340  65.339  0.00  0.00    +0.094 A 
ATOM     20  N   UNL     1      -4.475  19.861  66.443  0.00  0.00    -0.248 NA
ATOM     21  C   UNL     1      -5.736  20.309  66.396  0.00  0.00    +0.063 A 
ATOM     22  C   UNL     1      -6.524  20.035  65.284  0.00  0.00    +0.015 A 
ATOM     23  C   UNL     1      -5.970  19.443  64.177  0.00  0.00    -0.002 A 
BRANCH  18  25
ATOM     24  C   UNL     1      -4.813  19.026  61.884  0.00  0.00    +0.005 C 
ATOM     25  C   UNL     1      -3.924  18.995  62.843  0.00  0.00    +0.028 C 
ENDBRANCH  18  25
ENDBRANCH  17  21
ENDBRANCH  16  17
ENDBRANCH  15  16
ENDBRANCH   1  15
TORSDOF 7
ENDMDL
MODEL 7
REMARK VINA RESULT:      -6.2      3.880      7.292
REMARK  Name = 
REMARK  7 active torsions:
REMARK  status: ('A' for Active; 'I' for Inactive)
REMARK    1  A    between atoms: C_2  and  C_3
REMARK    2  A    between atoms: C_6  and  C_7
REMARK    3  A    between atoms: C_7  and  C_8
REMARK    4  A    between atoms: C_8  and  O_9
REMARK    5  A    between atoms: O_9  and  C_10
REMARK    6  A    between atoms: C_13  and  C_14
REMARK    7  A    between atoms: C_14  and  C_15
REMARK                            x       y       z     vdW  Elec       q    Type
REMARK                         _______ _______ _______ _____ _____    ______ ____
ROOT
ATOM      1  C   UNL     1     -10.169  11.467  66.775  0.00  0.00    +0.139 A 
ATOM      2  C   UNL     1     -11.474  11.847  66.497  0.00  0.00    +0.037 A 
ATOM      3  C   UNL     1     -11.704  13.218  66.525  0.00  0.00    -0.001 A 
ATOM      4  C   UNL     1     -11.132  13.945  67.565  0.00  0.00    -0.021 A 
ATOM      5  C   UNL     1      -9.915  13.443  68.015  0.00  0.00    -0.001 A 
ATOM      6  C   UNL     1      -9.303  12.358  67.399  0.00  0.00    +0.037 A 
ENDROOT
BRANCH   4   7
ATOM      7  C   UNL     1     -11.279  15.416  67.649  0.00  0.00    +0.047 C 
BRANCH   7   8
ATOM      8  C   UNL     1      -9.888  16.086  67.240  0.00  0.00    +0.139 C 
ATOM      9  C   UNL     1     -10.467  16.841  65.992  0.00  0.00    +0.259 C 
ATOM     10  O   UNL     1     -10.516  16.161  64.920  0.00  0.00    -0.272 OA
ATOM     11  N   UNL     1      -9.826  18.124  65.980  0.00  0.00    -0.135 NA
ATOM     12  C   UNL     1     -10.384  18.810  67.109  0.00  0.00    +0.299 C 
ATOM     13  O   UNL     1     -10.185  20.053  67.263  0.00  0.00    -0.261 OA
ATOM     14  S   UNL     1     -10.138  17.587  68.406  0.00  0.00    -0.046 S 
ENDBRANCH   7   8
ENDBRANCH   4   7
BRANCH   1  15
ATOM     15  O   UNL     1      -9.738  10.168  66.481  0.00  0.00    -0.475 OA
BRANCH  15  16
ATOM     16  C   UNL     1     -10.346   9.087  67.178  0.00  0.00    +0.212 C 
BRANCH  16  17
ATOM     17  C   UNL     1      -9.626   8.801  68.492  0.00  0.00    +0.093 C 
BRANCH  17  21
ATOM     18  C   UNL     1     -12.572   8.946  71.533  0.00  0.00    -0.003 A 
ATOM     19  C   UNL     1     -11.929   7.784  71.156  0.00  0.00    +0.094 A 
ATOM     20  N   UNL     1     -10.985   7.759  70.199  0.00  0.00    -0.248 NA
ATOM     21  C   UNL     1     -10.677   8.884  69.542  0.00  0.00    +0.063 A 
ATOM     22  C   UNL     1     -11.167  10.103  69.995  0.00  0.00    +0.015 A 
ATOM     23  C   UNL     1     -12.083  10.141  71.016  0.00  0.00    -0.002 A 
BRANCH  18  25
ATOM     24  C   UNL     1     -14.660   8.054  71.776  0.00  0.00    +0.005 C 
ATOM     25  C   UNL     1     -13.855   8.951  72.285  0.00  0.00    +0.028 C 
ENDBRANCH  18  25
ENDBRANCH  17  21
ENDBRANCH  16  17
ENDBRANCH  15  16
ENDBRANCH   1  15
TORSDOF 7
ENDMDL
MODEL 8
REMARK VINA RESULT:      -6.2      3.898      7.503
REMARK  Name = 
REMARK  7 active torsions:
REMARK  status: ('A' for Active; 'I' for Inactive)
REMARK    1  A    between atoms: C_2  and  C_3
REMARK    2  A    between atoms: C_6  and  C_7
REMARK    3  A    between atoms: C_7  and  C_8
REMARK    4  A    between atoms: C_8  and  O_9
REMARK    5  A    between atoms: O_9  and  C_10
REMARK    6  A    between atoms: C_13  and  C_14
REMARK    7  A    between atoms: C_14  and  C_15
REMARK                            x       y       z     vdW  Elec       q    Type
REMARK                         _______ _______ _______ _____ _____    ______ ____
ROOT
ATOM      1  C   UNL     1     -11.576  13.459  67.699  0.00  0.00    +0.139 A 
ATOM      2  C   UNL     1     -12.029  14.169  68.801  0.00  0.00    +0.037 A 
ATOM      3  C   UNL     1     -11.742  15.530  68.780  0.00  0.00    -0.001 A 
ATOM      4  C   UNL     1     -10.469  15.913  68.369  0.00  0.00    -0.021 A 
ATOM      5  C   UNL     1      -9.898  15.075  67.415  0.00  0.00    -0.001 A 
ATOM      6  C   UNL     1     -10.599  14.005  66.874  0.00  0.00    +0.037 A 
ENDROOT
BRANCH   4   7
ATOM      7  C   UNL     1     -10.089  17.340  68.264  0.00  0.00    +0.047 C 
BRANCH   7   8
ATOM      8  C   UNL     1      -8.929  17.476  67.174  0.00  0.00    +0.139 C 
ATOM      9  C   UNL     1      -9.623  18.643  66.388  0.00  0.00    +0.259 C 
ATOM     10  O   UNL     1     -10.474  18.281  65.517  0.00  0.00    -0.272 OA
ATOM     11  N   UNL     1      -8.569  19.539  66.010  0.00  0.00    -0.135 NA
ATOM     12  C   UNL     1      -8.149  20.135  67.246  0.00  0.00    +0.299 C 
ATOM     13  O   UNL     1      -7.368  21.135  67.240  0.00  0.00    -0.261 OA
ATOM     14  S   UNL     1      -7.893  18.670  68.260  0.00  0.00    -0.046 S 
ENDBRANCH   7   8
ENDBRANCH   4   7
BRANCH   1  15
ATOM     15  O   UNL     1     -12.056  12.169  67.449  0.00  0.00    -0.475 OA
BRANCH  15  16
ATOM     16  C   UNL     1     -11.161  11.076  67.618  0.00  0.00    +0.212 C 
BRANCH  16  17
ATOM     17  C   UNL     1     -10.415  11.173  68.946  0.00  0.00    +0.093 C 
BRANCH  17  21
ATOM     18  C   UNL     1     -12.832   9.189  71.805  0.00  0.00    -0.003 A 
ATOM     19  C   UNL     1     -11.748   8.597  71.187  0.00  0.00    +0.094 A 
ATOM     20  N   UNL     1     -10.982   9.247  70.293  0.00  0.00    -0.248 NA
ATOM     21  C   UNL     1     -11.295  10.500  69.940  0.00  0.00    +0.063 A 
ATOM     22  C   UNL     1     -12.265  11.196  70.652  0.00  0.00    +0.015 A 
ATOM     23  C   UNL     1     -13.007  10.555  71.612  0.00  0.00    -0.002 A 
BRANCH  18  25
ATOM     24  C   UNL     1     -14.809   8.065  71.605  0.00  0.00    +0.005 C 
ATOM     25  C   UNL     1     -13.901   8.408  72.482  0.00  0.00    +0.028 C 
ENDBRANCH  18  25
ENDBRANCH  17  21
ENDBRANCH  16  17
ENDBRANCH  15  16
ENDBRANCH   1  15
TORSDOF 7
ENDMDL
MODEL 9
REMARK VINA RESULT:      -6.2      3.963      4.804
REMARK  Name = 
REMARK  7 active torsions:
REMARK  status: ('A' for Active; 'I' for Inactive)
REMARK    1  A    between atoms: C_2  and  C_3
REMARK    2  A    between atoms: C_6  and  C_7
REMARK    3  A    between atoms: C_7  and  C_8
REMARK    4  A    between atoms: C_8  and  O_9
REMARK    5  A    between atoms: O_9  and  C_10
REMARK    6  A    between atoms: C_13  and  C_14
REMARK    7  A    between atoms: C_14  and  C_15
REMARK                            x       y       z     vdW  Elec       q    Type
REMARK                         _______ _______ _______ _____ _____    ______ ____
ROOT
ATOM      1  C   UNL     1     -11.229  11.988  67.174  0.00  0.00    +0.139 A 
ATOM      2  C   UNL     1     -11.857  12.680  68.200  0.00  0.00    +0.037 A 
ATOM      3  C   UNL     1     -11.671  12.143  69.469  0.00  0.00    -0.001 A 
ATOM      4  C   UNL     1     -11.769  10.761  69.604  0.00  0.00    -0.021 A 
ATOM      5  C   UNL     1     -11.350  10.045  68.486  0.00  0.00    -0.001 A 
ATOM      6  C   UNL     1     -10.802  10.680  67.379  0.00  0.00    +0.037 A 
ENDROOT
BRANCH   4   7
ATOM      7  C   UNL     1     -11.536  10.095  70.905  0.00  0.00    +0.047 C 
BRANCH   7   8
ATOM      8  C   UNL     1     -10.929   8.644  70.628  0.00  0.00    +0.139 C 
ATOM      9  C   UNL     1      -9.657   8.860  71.521  0.00  0.00    +0.259 C 
ATOM     10  O   UNL     1      -8.682   9.437  70.947  0.00  0.00    -0.272 OA
ATOM     11  N   UNL     1      -9.437   7.613  72.195  0.00  0.00    -0.135 NA
ATOM     12  C   UNL     1     -10.523   7.518  73.128  0.00  0.00    +0.299 C 
ATOM     13  O   UNL     1     -10.511   6.628  74.033  0.00  0.00    -0.261 OA
ATOM     14  S   UNL     1     -11.928   7.830  72.048  0.00  0.00    -0.046 S 
ENDBRANCH   7   8
ENDBRANCH   4   7
BRANCH   1  15
ATOM     15  O   UNL     1     -11.079  12.580  65.916  0.00  0.00    -0.475 OA
BRANCH  15  16
ATOM     16  C   UNL     1     -11.603  13.889  65.724  0.00  0.00    +0.212 C 
BRANCH  16  17
ATOM     17  C   UNL     1     -10.583  14.800  65.048  0.00  0.00    +0.093 C 
BRANCH  17  21
ATOM     18  C   UNL     1     -10.384  18.294  67.435  0.00  0.00    -0.003 A 
ATOM     19  C   UNL     1     -10.381  18.318  66.054  0.00  0.00    +0.094 A 
ATOM     20  N   UNL     1     -10.461  17.200  65.313  0.00  0.00    -0.248 NA
ATOM     21  C   UNL     1     -10.496  16.005  65.916  0.00  0.00    +0.063 A 
ATOM     22  C   UNL     1     -10.672  15.933  67.293  0.00  0.00    +0.015 A 
ATOM     23  C   UNL     1     -10.658  17.078  68.050  0.00  0.00    -0.002 A 
BRANCH  18  25
ATOM     24  C   UNL     1      -9.757  20.489  67.500  0.00  0.00    +0.005 C 
ATOM     25  C   UNL     1      -9.918  19.439  68.263  0.00  0.00    +0.028 C 
ENDBRANCH  18  25
ENDBRANCH  17  21
ENDBRANCH  16  17
ENDBRANCH  15  16
ENDBRANCH   1  15
TORSDOF 7
ENDMDL
