MODEL 1
REMARK VINA RESULT:      -6.9      0.000      0.000
REMARK  Name = 
REMARK  5 active torsions:
REMARK  status: ('A' for Active; 'I' for Inactive)
REMARK    1  A    between atoms: C_4  and  C_5
REMARK    2  A    between atoms: C_4  and  C_11
REMARK    3  A    between atoms: N_19  and  C_20
REMARK    4  A    between atoms: C_20  and  O_21
REMARK    5  A    between atoms: O_21  and  P_22
REMARK                            x       y       z     vdW  Elec       q    Type
REMARK                         _______ _______ _______ _____ _____    ______ ____
ROOT
ATOM      1  O   UNL     1     -12.100  13.708  68.934  0.00  0.00    -0.250 OA
ATOM      2  C   UNL     1     -11.156  14.255  68.290  0.00  0.00    +0.332 C 
ATOM      3  N   UNL     1     -10.664  13.979  66.992  0.00  0.00    -0.183 N 
ATOM      4  C   UNL     1     -10.242  15.246  66.472  0.00  0.00    +0.260 C 
ATOM      5  O   UNL     1      -9.709  15.353  65.327  0.00  0.00    -0.272 OA
ATOM      6  C   UNL     1      -9.815  16.038  67.648  0.00  0.00    +0.186 C 
ATOM      7  N   UNL     1     -10.370  15.335  68.801  0.00  0.00    -0.174 NA
ENDROOT
BRANCH   6   8
ATOM      8  C   UNL     1      -8.344  16.006  67.749  0.00  0.00    +0.008 A 
ATOM      9  C   UNL     1      -7.534  16.828  66.986  0.00  0.00    -0.002 A 
ATOM     10  C   UNL     1      -6.158  16.670  67.064  0.00  0.00    -0.000 A 
ATOM     11  C   UNL     1      -5.614  15.863  68.055  0.00  0.00    -0.000 A 
ATOM     12  C   UNL     1      -6.446  15.568  69.122  0.00  0.00    -0.000 A 
ATOM     13  C   UNL     1      -7.787  15.420  68.874  0.00  0.00    -0.002 A 
ENDBRANCH   6   8
BRANCH   6  14
ATOM     14  C   UNL     1     -10.306  17.448  67.585  0.00  0.00    +0.008 A 
ATOM     15  C   UNL     1     -10.562  18.020  66.345  0.00  0.00    -0.002 A 
ATOM     16  C   UNL     1     -10.419  19.385  66.126  0.00  0.00    -0.000 A 
ATOM     17  C   UNL     1      -9.740  20.152  67.065  0.00  0.00    -0.000 A 
ATOM     18  C   UNL     1      -9.815  19.693  68.375  0.00  0.00    -0.000 A 
ATOM     19  C   UNL     1     -10.060  18.347  68.614  0.00  0.00    -0.002 A 
ENDBRANCH   6  14
BRANCH   3  20
ATOM     20  C   UNL     1     -10.900  12.735  66.307  0.00  0.00    +0.260 C 
BRANCH  20  21
ATOM     21  O   UNL     1     -12.199  12.578  65.866  0.00  0.00    -0.248 OA
BRANCH  21  22
ATOM     22  P   UNL     1     -12.192  12.864  64.189  0.00  0.00    +0.534 P 
ATOM     23  O   UNL     1     -10.628  12.560  63.598  0.00  0.00    -0.115 OA
ATOM     24  O   UNL     1     -12.563  14.491  63.863  0.00  0.00    -0.115 OA
ATOM     25  O   UNL     1     -13.187  11.927  63.538  0.00  0.00    -0.222 OA
ENDBRANCH  21  22
ENDBRANCH  20  21
ENDBRANCH   3  20
TORSDOF 5
ENDMDL
MODEL 2
REMARK VINA RESULT:      -6.8      3.625      5.951
REMARK  Name = 
REMARK  5 active torsions:
REMARK  status: ('A' for Active; 'I' for Inactive)
REMARK    1  A    between atoms: C_4  and  C_5
REMARK    2  A    between atoms: C_4  and  C_11
REMARK    3  A    between atoms: N_19  and  C_20
REMARK    4  A    between atoms: C_20  and  O_21
REMARK    5  A    between atoms: O_21  and  P_22
REMARK                            x       y       z     vdW  Elec       q    Type
REMARK                         _______ _______ _______ _____ _____    ______ ____
ROOT
ATOM      1  O   UNL     1     -10.521  18.710  68.697  0.00  0.00    -0.250 OA
ATOM      2  C   UNL     1     -10.415  17.447  68.695  0.00  0.00    +0.332 C 
ATOM      3  N   UNL     1      -9.257  16.634  68.691  0.00  0.00    -0.183 N 
ATOM      4  C   UNL     1      -9.609  15.474  69.455  0.00  0.00    +0.260 C 
ATOM      5  O   UNL     1      -8.799  14.513  69.619  0.00  0.00    -0.272 OA
ATOM      6  C   UNL     1     -11.064  15.289  69.253  0.00  0.00    +0.186 C 
ATOM      7  N   UNL     1     -11.535  16.559  68.707  0.00  0.00    -0.174 NA
ENDROOT
BRANCH   6   8
ATOM      8  C   UNL     1     -11.287  14.238  68.244  0.00  0.00    +0.008 A 
ATOM      9  C   UNL     1     -11.371  12.898  68.581  0.00  0.00    -0.002 A 
ATOM     10  C   UNL     1     -11.482  11.959  67.565  0.00  0.00    -0.000 A 
ATOM     11  C   UNL     1     -11.731  12.379  66.265  0.00  0.00    -0.000 A 
ATOM     12  C   UNL     1     -12.221  13.667  66.127  0.00  0.00    -0.000 A 
ATOM     13  C   UNL     1     -11.784  14.623  67.010  0.00  0.00    -0.002 A 
ENDBRANCH   6   8
BRANCH   6  14
ATOM     14  C   UNL     1     -11.770  14.953  70.527  0.00  0.00    +0.008 A 
ATOM     15  C   UNL     1     -13.150  14.787  70.511  0.00  0.00    -0.002 A 
ATOM     16  C   UNL     1     -13.934  15.080  71.621  0.00  0.00    -0.000 A 
ATOM     17  C   UNL     1     -13.382  15.815  72.663  0.00  0.00    -0.000 A 
ATOM     18  C   UNL     1     -12.011  15.661  72.839  0.00  0.00    -0.000 A 
ATOM     19  C   UNL     1     -11.224  15.269  71.763  0.00  0.00    -0.002 A 
ENDBRANCH   6  14
BRANCH   3  20
ATOM     20  C   UNL     1      -7.961  17.110  68.283  0.00  0.00    +0.260 C 
BRANCH  20  21
ATOM     21  O   UNL     1      -7.718  16.981  66.930  0.00  0.00    -0.248 OA
BRANCH  21  22
ATOM     22  P   UNL     1      -7.521  18.553  66.310  0.00  0.00    +0.534 P 
ATOM     23  O   UNL     1      -9.048  19.152  65.866  0.00  0.00    -0.115 OA
ATOM     24  O   UNL     1      -6.550  18.523  64.915  0.00  0.00    -0.115 OA
ATOM     25  O   UNL     1      -6.913  19.423  67.390  0.00  0.00    -0.222 OA
ENDBRANCH  21  22
ENDBRANCH  20  21
ENDBRANCH   3  20
TORSDOF 5
ENDMDL
MODEL 3
REMARK VINA RESULT:      -6.8      3.570      5.949
REMARK  Name = 
REMARK  5 active torsions:
REMARK  status: ('A' for Active; 'I' for Inactive)
REMARK    1  A    between atoms: C_4  and  C_5
REMARK    2  A    between atoms: C_4  and  C_11
REMARK    3  A    between atoms: N_19  and  C_20
REMARK    4  A    between atoms: C_20  and  O_21
REMARK    5  A    between atoms: O_21  and  P_22
REMARK                            x       y       z     vdW  Elec       q    Type
REMARK                         _______ _______ _______ _____ _____    ______ ____
ROOT
ATOM      1  O   UNL     1     -11.018  17.664  68.531  0.00  0.00    -0.250 OA
ATOM      2  C   UNL     1     -10.923  16.400  68.527  0.00  0.00    +0.332 C 
ATOM      3  N   UNL     1     -11.567  15.439  69.343  0.00  0.00    -0.183 N 
ATOM      4  C   UNL     1     -11.761  14.299  68.498  0.00  0.00    +0.260 C 
ATOM      5  O   UNL     1     -12.285  13.229  68.931  0.00  0.00    -0.272 OA
ATOM      6  C   UNL     1     -10.642  14.323  67.529  0.00  0.00    +0.186 C 
ATOM      7  N   UNL     1     -10.089  15.672  67.621  0.00  0.00    -0.174 NA
ENDROOT
BRANCH   6   8
ATOM      8  C   UNL     1      -9.604  13.367  67.958  0.00  0.00    +0.008 A 
ATOM      9  C   UNL     1      -9.759  11.999  67.818  0.00  0.00    -0.002 A 
ATOM     10  C   UNL     1      -8.784  11.159  68.336  0.00  0.00    -0.000 A 
ATOM     11  C   UNL     1      -7.580  11.694  68.776  0.00  0.00    -0.000 A 
ATOM     12  C   UNL     1      -7.284  12.971  68.329  0.00  0.00    -0.000 A 
ATOM     13  C   UNL     1      -8.322  13.851  68.156  0.00  0.00    -0.002 A 
ENDBRANCH   6   8
BRANCH   6  14
ATOM     14  C   UNL     1     -11.094  14.018  66.137  0.00  0.00    +0.008 A 
ATOM     15  C   UNL     1     -12.364  13.488  65.941  0.00  0.00    -0.002 A 
ATOM     16  C   UNL     1     -12.645  12.641  64.875  0.00  0.00    -0.000 A 
ATOM     17  C   UNL     1     -11.592  12.083  64.159  0.00  0.00    -0.000 A 
ATOM     18  C   UNL     1     -10.433  12.850  64.112  0.00  0.00    -0.000 A 
ATOM     19  C   UNL     1     -10.185  13.776  65.117  0.00  0.00    -0.002 A 
ENDBRANCH   6  14
BRANCH   3  20
ATOM     20  C   UNL     1     -12.164  15.756  70.613  0.00  0.00    +0.260 C 
BRANCH  20  21
ATOM     21  O   UNL     1     -11.709  14.973  71.656  0.00  0.00    -0.248 OA
BRANCH  21  22
ATOM     22  P   UNL     1     -12.969  14.882  72.794  0.00  0.00    +0.534 P 
ATOM     23  O   UNL     1     -13.703  13.354  72.662  0.00  0.00    -0.115 OA
ATOM     24  O   UNL     1     -14.153  16.056  72.465  0.00  0.00    -0.115 OA
ATOM     25  O   UNL     1     -12.381  15.060  74.178  0.00  0.00    -0.222 OA
ENDBRANCH  21  22
ENDBRANCH  20  21
ENDBRANCH   3  20
TORSDOF 5
ENDMDL
MODEL 4
REMARK VINA RESULT:      -6.8      3.215      6.186
REMARK  Name = 
REMARK  5 active torsions:
REMARK  status: ('A' for Active; 'I' for Inactive)
REMARK    1  A    between atoms: C_4  and  C_5
REMARK    2  A    between atoms: C_4  and  C_11
REMARK    3  A    between atoms: N_19  and  C_20
REMARK    4  A    between atoms: C_20  and  O_21
REMARK    5  A    between atoms: O_21  and  P_22
REMARK                            x       y       z     vdW  Elec       q    Type
REMARK                         _______ _______ _______ _____ _____    ______ ____
ROOT
ATOM      1  O   UNL     1      -8.147  15.159  66.656  0.00  0.00    -0.250 OA
ATOM      2  C   UNL     1      -9.043  14.438  67.186  0.00  0.00    +0.332 C 
ATOM      3  N   UNL     1     -10.116  14.801  68.034  0.00  0.00    -0.183 N 
ATOM      4  C   UNL     1     -11.180  13.900  67.701  0.00  0.00    +0.260 C 
ATOM      5  O   UNL     1     -12.292  13.927  68.309  0.00  0.00    -0.272 OA
ATOM      6  C   UNL     1     -10.521  12.649  67.262  0.00  0.00    +0.186 C 
ATOM      7  N   UNL     1      -9.134  13.023  66.999  0.00  0.00    -0.174 NA
ENDROOT
BRANCH   6   8
ATOM      8  C   UNL     1     -10.537  11.674  68.368  0.00  0.00    +0.008 A 
ATOM      9  C   UNL     1     -11.709  11.098  68.825  0.00  0.00    -0.002 A 
ATOM     10  C   UNL     1     -11.656  10.266  69.935  0.00  0.00    -0.000 A 
ATOM     11  C   UNL     1     -10.425   9.850  70.424  0.00  0.00    -0.000 A 
ATOM     12  C   UNL     1      -9.352   9.985  69.558  0.00  0.00    -0.000 A 
ATOM     13  C   UNL     1      -9.344  11.055  68.701  0.00  0.00    -0.002 A 
ENDBRANCH   6   8
BRANCH   6  14
ATOM     14  C   UNL     1     -11.166  12.071  66.043  0.00  0.00    +0.008 A 
ATOM     15  C   UNL     1     -10.465  11.142  65.283  0.00  0.00    -0.002 A 
ATOM     16  C   UNL     1     -10.664  11.020  63.913  0.00  0.00    -0.000 A 
ATOM     17  C   UNL     1     -11.354  12.019  63.239  0.00  0.00    -0.000 A 
ATOM     18  C   UNL     1     -12.308  12.695  63.991  0.00  0.00    -0.000 A 
ATOM     19  C   UNL     1     -12.180  12.741  65.374  0.00  0.00    -0.002 A 
ENDBRANCH   6  14
BRANCH   3  20
ATOM     20  C   UNL     1     -10.152  16.033  68.778  0.00  0.00    +0.260 C 
BRANCH  20  21
ATOM     21  O   UNL     1     -11.107  16.926  68.334  0.00  0.00    -0.248 OA
BRANCH  21  22
ATOM     22  P   UNL     1     -10.292  18.117  67.434  0.00  0.00    +0.534 P 
ATOM     23  O   UNL     1     -10.209  17.605  65.816  0.00  0.00    -0.115 OA
ATOM     24  O   UNL     1      -8.701  18.306  68.002  0.00  0.00    -0.115 OA
ATOM     25  O   UNL     1     -11.073  19.411  67.532  0.00  0.00    -0.222 OA
ENDBRANCH  21  22
ENDBRANCH  20  21
ENDBRANCH   3  20
TORSDOF 5
ENDMDL
MODEL 5
REMARK VINA RESULT:      -6.7      3.283      6.273
REMARK  Name = 
REMARK  5 active torsions:
REMARK  status: ('A' for Active; 'I' for Inactive)
REMARK    1  A    between atoms: C_4  and  C_5
REMARK    2  A    between atoms: C_4  and  C_11
REMARK    3  A    between atoms: N_19  and  C_20
REMARK    4  A    between atoms: C_20  and  O_21
REMARK    5  A    between atoms: O_21  and  P_22
REMARK                            x       y       z     vdW  Elec       q    Type
REMARK                         _______ _______ _______ _____ _____    ______ ____
ROOT
ATOM      1  O   UNL     1      -7.749  15.282  68.936  0.00  0.00    -0.250 OA
ATOM      2  C   UNL     1      -8.979  15.403  69.214  0.00  0.00    +0.332 C 
ATOM      3  N   UNL     1      -9.860  16.487  68.980  0.00  0.00    -0.183 N 
ATOM      4  C   UNL     1     -11.135  15.886  68.727  0.00  0.00    +0.260 C 
ATOM      5  O   UNL     1     -12.171  16.585  68.514  0.00  0.00    -0.272 OA
ATOM      6  C   UNL     1     -11.147  14.628  69.508  0.00  0.00    +0.186 C 
ATOM      7  N   UNL     1      -9.750  14.384  69.855  0.00  0.00    -0.174 NA
ENDROOT
BRANCH   6   8
ATOM      8  C   UNL     1     -11.906  14.835  70.755  0.00  0.00    +0.008 A 
ATOM      9  C   UNL     1     -11.355  15.464  71.858  0.00  0.00    -0.002 A 
ATOM     10  C   UNL     1     -12.096  15.533  73.029  0.00  0.00    -0.000 A 
ATOM     11  C   UNL     1     -13.440  15.182  73.012  0.00  0.00    -0.000 A 
ATOM     12  C   UNL     1     -14.042  15.144  71.766  0.00  0.00    -0.000 A 
ATOM     13  C   UNL     1     -13.286  14.737  70.695  0.00  0.00    -0.002 A 
ENDBRANCH   6   8
BRANCH   6  14
ATOM     14  C   UNL     1     -11.719  13.487  68.729  0.00  0.00    +0.008 A 
ATOM     15  C   UNL     1     -11.605  12.198  69.237  0.00  0.00    -0.002 A 
ATOM     16  C   UNL     1     -11.525  11.089  68.403  0.00  0.00    -0.000 A 
ATOM     17  C   UNL     1     -11.266  11.278  67.051  0.00  0.00    -0.000 A 
ATOM     18  C   UNL     1     -11.725  12.477  66.519  0.00  0.00    -0.000 A 
ATOM     19  C   UNL     1     -11.909  13.570  67.357  0.00  0.00    -0.002 A 
ENDBRANCH   6  14
BRANCH   3  20
ATOM     20  C   UNL     1      -9.408  17.830  68.729  0.00  0.00    +0.260 C 
BRANCH  20  21
ATOM     21  O   UNL     1      -8.740  17.980  67.530  0.00  0.00    -0.248 OA
BRANCH  21  22
ATOM     22  P   UNL     1      -9.818  18.734  66.452  0.00  0.00    +0.534 P 
ATOM     23  O   UNL     1     -11.054  19.472  67.355  0.00  0.00    -0.115 OA
ATOM     24  O   UNL     1     -10.539  17.582  65.431  0.00  0.00    -0.115 OA
ATOM     25  O   UNL     1      -9.056  19.776  65.661  0.00  0.00    -0.222 OA
ENDBRANCH  21  22
ENDBRANCH  20  21
ENDBRANCH   3  20
TORSDOF 5
ENDMDL
MODEL 6
REMARK VINA RESULT:      -6.6      4.102      6.463
REMARK  Name = 
REMARK  5 active torsions:
REMARK  status: ('A' for Active; 'I' for Inactive)
REMARK    1  A    between atoms: C_4  and  C_5
REMARK    2  A    between atoms: C_4  and  C_11
REMARK    3  A    between atoms: N_19  and  C_20
REMARK    4  A    between atoms: C_20  and  O_21
REMARK    5  A    between atoms: O_21  and  P_22
REMARK                            x       y       z     vdW  Elec       q    Type
REMARK                         _______ _______ _______ _____ _____    ______ ____
ROOT
ATOM      1  O   UNL     1     -12.311  12.582  70.876  0.00  0.00    -0.250 OA
ATOM      2  C   UNL     1     -11.882  13.308  69.930  0.00  0.00    +0.332 C 
ATOM      3  N   UNL     1     -11.731  14.714  69.862  0.00  0.00    -0.183 N 
ATOM      4  C   UNL     1     -10.575  14.929  69.043  0.00  0.00    +0.260 C 
ATOM      5  O   UNL     1     -10.177  16.095  68.744  0.00  0.00    -0.272 OA
ATOM      6  C   UNL     1     -10.535  13.787  68.101  0.00  0.00    +0.186 C 
ATOM      7  N   UNL     1     -11.435  12.790  68.674  0.00  0.00    -0.174 NA
ENDROOT
BRANCH   6   8
ATOM      8  C   UNL     1     -11.080  14.211  66.798  0.00  0.00    +0.008 A 
ATOM      9  C   UNL     1     -10.328  14.921  65.879  0.00  0.00    -0.002 A 
ATOM     10  C   UNL     1     -10.941  15.371  64.718  0.00  0.00    -0.000 A 
ATOM     11  C   UNL     1     -12.212  14.916  64.392  0.00  0.00    -0.000 A 
ATOM     12  C   UNL     1     -12.632  13.769  65.044  0.00  0.00    -0.000 A 
ATOM     13  C   UNL     1     -12.222  13.575  66.339  0.00  0.00    -0.002 A 
ENDBRANCH   6   8
BRANCH   6  14
ATOM     14  C   UNL     1      -9.153  13.240  67.939  0.00  0.00    +0.008 A 
ATOM     15  C   UNL     1      -8.988  11.878  67.719  0.00  0.00    -0.002 A 
ATOM     16  C   UNL     1      -7.853  11.201  68.150  0.00  0.00    -0.000 A 
ATOM     17  C   UNL     1      -7.002  11.818  69.059  0.00  0.00    -0.000 A 
ATOM     18  C   UNL     1      -6.962  13.206  68.988  0.00  0.00    -0.000 A 
ATOM     19  C   UNL     1      -8.048  13.895  68.464  0.00  0.00    -0.002 A 
ENDBRANCH   6  14
BRANCH   3  20
ATOM     20  C   UNL     1     -12.422  15.625  70.736  0.00  0.00    +0.260 C 
BRANCH  20  21
ATOM     21  O   UNL     1     -11.768  15.859  71.929  0.00  0.00    -0.248 OA
BRANCH  21  22
ATOM     22  P   UNL     1     -12.911  15.648  73.171  0.00  0.00    +0.534 P 
ATOM     23  O   UNL     1     -14.434  16.125  72.587  0.00  0.00    -0.115 OA
ATOM     24  O   UNL     1     -12.533  16.638  74.501  0.00  0.00    -0.115 OA
ATOM     25  O   UNL     1     -12.936  14.185  73.558  0.00  0.00    -0.222 OA
ENDBRANCH  21  22
ENDBRANCH  20  21
ENDBRANCH   3  20
TORSDOF 5
ENDMDL
MODEL 7
REMARK VINA RESULT:      -6.5      3.200      6.407
REMARK  Name = 
REMARK  5 active torsions:
REMARK  status: ('A' for Active; 'I' for Inactive)
REMARK    1  A    between atoms: C_4  and  C_5
REMARK    2  A    between atoms: C_4  and  C_11
REMARK    3  A    between atoms: N_19  and  C_20
REMARK    4  A    between atoms: C_20  and  O_21
REMARK    5  A    between atoms: O_21  and  P_22
REMARK                            x       y       z     vdW  Elec       q    Type
REMARK                         _______ _______ _______ _____ _____    ______ ____
ROOT
ATOM      1  O   UNL     1     -11.818  16.487  68.763  0.00  0.00    -0.250 OA
ATOM      2  C   UNL     1     -11.284  15.587  68.049  0.00  0.00    +0.332 C 
ATOM      3  N   UNL     1     -10.071  15.608  67.320  0.00  0.00    -0.183 N 
ATOM      4  C   UNL     1      -9.568  14.268  67.388  0.00  0.00    +0.260 C 
ATOM      5  O   UNL     1      -8.499  13.926  66.799  0.00  0.00    -0.272 OA
ATOM      6  C   UNL     1     -10.762  13.397  67.480  0.00  0.00    +0.186 C 
ATOM      7  N   UNL     1     -11.857  14.292  67.847  0.00  0.00    -0.174 NA
ENDROOT
BRANCH   6   8
ATOM      8  C   UNL     1     -11.055  12.828  66.151  0.00  0.00    +0.008 A 
ATOM      9  C   UNL     1     -10.396  11.711  65.667  0.00  0.00    -0.002 A 
ATOM     10  C   UNL     1     -10.654  11.294  64.369  0.00  0.00    -0.000 A 
ATOM     11  C   UNL     1     -11.715  11.851  63.666  0.00  0.00    -0.000 A 
ATOM     12  C   UNL     1     -12.667  12.509  64.426  0.00  0.00    -0.000 A 
ATOM     13  C   UNL     1     -12.247  13.184  65.544  0.00  0.00    -0.002 A 
ENDBRANCH   6   8
BRANCH   6  14
ATOM     14  C   UNL     1     -10.590  12.310  68.491  0.00  0.00    +0.008 A 
ATOM     15  C   UNL     1      -9.398  11.597  68.520  0.00  0.00    -0.002 A 
ATOM     16  C   UNL     1      -9.349  10.271  68.934  0.00  0.00    -0.000 A 
ATOM     17  C   UNL     1     -10.535   9.555  69.049  0.00  0.00    -0.000 A 
ATOM     18  C   UNL     1     -11.657  10.311  69.368  0.00  0.00    -0.000 A 
ATOM     19  C   UNL     1     -11.682  11.664  69.053  0.00  0.00    -0.002 A 
ENDBRANCH   6  14
BRANCH   3  20
ATOM     20  C   UNL     1      -9.402  16.823  66.936  0.00  0.00    +0.260 C 
BRANCH  20  21
ATOM     21  O   UNL     1     -10.048  17.525  65.936  0.00  0.00    -0.248 OA
BRANCH  21  22
ATOM     22  P   UNL     1     -10.024  19.165  66.386  0.00  0.00    +0.534 P 
ATOM     23  O   UNL     1      -8.411  19.702  66.378  0.00  0.00    -0.115 OA
ATOM     24  O   UNL     1     -10.626  19.357  67.964  0.00  0.00    -0.115 OA
ATOM     25  O   UNL     1     -10.840  19.950  65.381  0.00  0.00    -0.222 OA
ENDBRANCH  21  22
ENDBRANCH  20  21
ENDBRANCH   3  20
TORSDOF 5
ENDMDL
MODEL 8
REMARK VINA RESULT:      -6.5      3.173      6.328
REMARK  Name = 
REMARK  5 active torsions:
REMARK  status: ('A' for Active; 'I' for Inactive)
REMARK    1  A    between atoms: C_4  and  C_5
REMARK    2  A    between atoms: C_4  and  C_11
REMARK    3  A    between atoms: N_19  and  C_20
REMARK    4  A    between atoms: C_20  and  O_21
REMARK    5  A    between atoms: O_21  and  P_22
REMARK                            x       y       z     vdW  Elec       q    Type
REMARK                         _______ _______ _______ _____ _____    ______ ____
ROOT
ATOM      1  O   UNL     1     -11.984  15.346  69.844  0.00  0.00    -0.250 OA
ATOM      2  C   UNL     1     -11.415  14.636  68.961  0.00  0.00    +0.332 C 
ATOM      3  N   UNL     1     -10.113  14.736  68.416  0.00  0.00    -0.183 N 
ATOM      4  C   UNL     1      -9.716  13.388  68.141  0.00  0.00    +0.260 C 
ATOM      5  O   UNL     1      -8.600  13.117  67.603  0.00  0.00    -0.272 OA
ATOM      6  C   UNL     1     -10.966  12.657  67.834  0.00  0.00    +0.186 C 
ATOM      7  N   UNL     1     -12.039  13.519  68.321  0.00  0.00    -0.174 NA
ENDROOT
BRANCH   6   8
ATOM      8  C   UNL     1     -11.107  12.522  66.372  0.00  0.00    +0.008 A 
ATOM      9  C   UNL     1     -10.741  11.370  65.699  0.00  0.00    -0.002 A 
ATOM     10  C   UNL     1     -10.809  11.356  64.313  0.00  0.00    -0.000 A 
ATOM     11  C   UNL     1     -11.445  12.394  63.645  0.00  0.00    -0.000 A 
ATOM     12  C   UNL     1     -12.290  13.179  64.411  0.00  0.00    -0.000 A 
ATOM     13  C   UNL     1     -11.951  13.407  65.721  0.00  0.00    -0.002 A 
ENDBRANCH   6   8
BRANCH   6  14
ATOM     14  C   UNL     1     -11.010  11.314  68.491  0.00  0.00    +0.008 A 
ATOM     15  C   UNL     1     -12.122  10.969  69.250  0.00  0.00    -0.002 A 
ATOM     16  C   UNL     1     -12.027  10.104  70.334  0.00  0.00    -0.000 A 
ATOM     17  C   UNL     1     -10.772   9.802  70.849  0.00  0.00    -0.000 A 
ATOM     18  C   UNL     1      -9.729   9.834  69.930  0.00  0.00    -0.000 A 
ATOM     19  C   UNL     1      -9.848  10.616  68.788  0.00  0.00    -0.002 A 
ENDBRANCH   6  14
BRANCH   3  20
ATOM     20  C   UNL     1      -9.319  15.934  68.487  0.00  0.00    +0.260 C 
BRANCH  20  21
ATOM     21  O   UNL     1      -8.770  16.314  67.279  0.00  0.00    -0.248 OA
BRANCH  21  22
ATOM     22  P   UNL     1      -9.832  17.449  66.587  0.00  0.00    +0.534 P 
ATOM     23  O   UNL     1      -8.918  18.767  66.024  0.00  0.00    -0.115 OA
ATOM     24  O   UNL     1     -10.919  18.034  67.755  0.00  0.00    -0.115 OA
ATOM     25  O   UNL     1     -10.558  16.788  65.435  0.00  0.00    -0.222 OA
ENDBRANCH  21  22
ENDBRANCH  20  21
ENDBRANCH   3  20
TORSDOF 5
ENDMDL
MODEL 9
REMARK VINA RESULT:      -6.3      3.705      5.932
REMARK  Name = 
REMARK  5 active torsions:
REMARK  status: ('A' for Active; 'I' for Inactive)
REMARK    1  A    between atoms: C_4  and  C_5
REMARK    2  A    between atoms: C_4  and  C_11
REMARK    3  A    between atoms: N_19  and  C_20
REMARK    4  A    between atoms: C_20  and  O_21
REMARK    5  A    between atoms: O_21  and  P_22
REMARK                            x       y       z     vdW  Elec       q    Type
REMARK                         _______ _______ _______ _____ _____    ______ ____
ROOT
ATOM      1  O   UNL     1      -7.559  12.039  68.774  0.00  0.00    -0.250 OA
ATOM      2  C   UNL     1      -8.694  11.971  68.214  0.00  0.00    +0.332 C 
ATOM      3  N   UNL     1      -9.727  11.017  68.373  0.00  0.00    -0.183 N 
ATOM      4  C   UNL     1     -10.946  11.752  68.205  0.00  0.00    +0.260 C 
ATOM      5  O   UNL     1     -12.079  11.184  68.249  0.00  0.00    -0.272 OA
ATOM      6  C   UNL     1     -10.623  12.855  67.272  0.00  0.00    +0.186 C 
ATOM      7  N   UNL     1      -9.164  12.924  67.258  0.00  0.00    -0.174 NA
ENDROOT
BRANCH   6   8
ATOM      8  C   UNL     1     -11.083  12.499  65.917  0.00  0.00    +0.008 A 
ATOM      9  C   UNL     1     -12.324  12.881  65.436  0.00  0.00    -0.002 A 
ATOM     10  C   UNL     1     -12.727  12.423  64.190  0.00  0.00    -0.000 A 
ATOM     11  C   UNL     1     -11.810  11.791  63.360  0.00  0.00    -0.000 A 
ATOM     12  C   UNL     1     -10.475  11.987  63.671  0.00  0.00    -0.000 A 
ATOM     13  C   UNL     1     -10.130  12.105  64.994  0.00  0.00    -0.002 A 
ENDBRANCH   6   8
BRANCH   6  14
ATOM     14  C   UNL     1     -11.222  14.154  67.706  0.00  0.00    +0.008 A 
ATOM     15  C   UNL     1     -10.668  15.342  67.244  0.00  0.00    -0.002 A 
ATOM     16  C   UNL     1     -10.711  16.509  67.997  0.00  0.00    -0.000 A 
ATOM     17  C   UNL     1     -11.051  16.433  69.342  0.00  0.00    -0.000 A 
ATOM     18  C   UNL     1     -11.907  15.392  69.682  0.00  0.00    -0.000 A 
ATOM     19  C   UNL     1     -11.952  14.257  68.882  0.00  0.00    -0.002 A 
ENDBRANCH   6  14
BRANCH   3  20
ATOM     20  C   UNL     1      -9.512   9.704  68.923  0.00  0.00    +0.260 C 
BRANCH  20  21
ATOM     21  O   UNL     1      -9.279   9.700  70.283  0.00  0.00    -0.248 OA
BRANCH  21  22
ATOM     22  P   UNL     1     -10.617   8.944  71.013  0.00  0.00    +0.534 P 
ATOM     23  O   UNL     1     -11.813  10.120  71.292  0.00  0.00    -0.115 OA
ATOM     24  O   UNL     1     -10.179   8.283  72.517  0.00  0.00    -0.115 OA
ATOM     25  O   UNL     1     -11.141   7.881  70.071  0.00  0.00    -0.222 OA
ENDBRANCH  21  22
ENDBRANCH  20  21
ENDBRANCH   3  20
TORSDOF 5
ENDMDL
