MODEL 1
REMARK VINA RESULT:      -5.2      0.000      0.000
REMARK  Name = 
REMARK  3 active torsions:
REMARK  status: ('A' for Active; 'I' for Inactive)
REMARK    1  A    between atoms: C_2  and  C_3
REMARK    2  A    between atoms: C_8  and  C_9
REMARK    3  A    between atoms: C_9  and  C_10
REMARK                            x       y       z     vdW  Elec       q    Type
REMARK                         _______ _______ _______ _____ _____    ______ ____
ROOT
ATOM      1  C   UNL     1     -11.956  12.415  65.312  0.00  0.00    +0.103 C 
ATOM      2  C   UNL     1     -12.312  13.962  65.991  0.00  0.00    +0.060 C 
ATOM      3  C   UNL     1     -11.823  14.746  64.645  0.00  0.00    +0.209 C 
ATOM      4  O   UNL     1     -12.544  14.045  63.693  0.00  0.00    -0.448 OA
ATOM      5  C   UNL     1     -12.818  12.755  63.993  0.00  0.00    +0.317 C 
ATOM      6  O   UNL     1     -12.975  11.764  63.238  0.00  0.00    -0.250 OA
ENDROOT
BRANCH   1   8
ATOM      7  C   UNL     1      -9.871  11.742  64.312  0.00  0.00    +0.001 C 
ATOM      8  C   UNL     1     -10.545  12.883  64.601  0.00  0.00    +0.011 C 
ENDBRANCH   1   8
BRANCH   2   9
ATOM      9  C   UNL     1     -10.845  14.090  66.705  0.00  0.00    +0.050 C 
BRANCH   9  10
ATOM     10  C   UNL     1     -10.876  15.469  67.286  0.00  0.00    +0.058 A 
ATOM     11  N   UNL     1      -9.883  16.371  67.092  0.00  0.00    -0.310 N 
ATOM     12  C   UNL     1      -8.723  16.218  66.241  0.00  0.00    +0.132 C 
ATOM     13  C   UNL     1     -10.217  17.461  67.809  0.00  0.00    +0.178 A 
ATOM     14  N   UNL     1     -11.034  17.059  68.779  0.00  0.00    -0.223 NA
ATOM     15  C   UNL     1     -11.428  15.792  68.521  0.00  0.00    +0.113 A 
ENDBRANCH   9  10
ENDBRANCH   2   9
TORSDOF 3
ENDMDL
MODEL 2
REMARK VINA RESULT:      -5.0      1.539      2.222
REMARK  Name = 
REMARK  3 active torsions:
REMARK  status: ('A' for Active; 'I' for Inactive)
REMARK    1  A    between atoms: C_2  and  C_3
REMARK    2  A    between atoms: C_8  and  C_9
REMARK    3  A    between atoms: C_9  and  C_10
REMARK                            x       y       z     vdW  Elec       q    Type
REMARK                         _______ _______ _______ _____ _____    ______ ____
ROOT
ATOM      1  C   UNL     1     -12.014  12.463  65.650  0.00  0.00    +0.103 C 
ATOM      2  C   UNL     1     -12.234  14.038  66.320  0.00  0.00    +0.060 C 
ATOM      3  C   UNL     1     -11.572  14.764  65.016  0.00  0.00    +0.209 C 
ATOM      4  O   UNL     1     -12.308  14.154  64.013  0.00  0.00    -0.448 OA
ATOM      5  C   UNL     1     -12.746  12.903  64.283  0.00  0.00    +0.317 C 
ATOM      6  O   UNL     1     -12.967  11.939  63.509  0.00  0.00    -0.250 OA
ENDROOT
BRANCH   1   8
ATOM      7  C   UNL     1      -9.939  11.556  64.832  0.00  0.00    +0.001 C 
ATOM      8  C   UNL     1     -10.517  12.766  65.034  0.00  0.00    +0.011 C 
ENDBRANCH   1   8
BRANCH   2   9
ATOM      9  C   UNL     1     -10.810  13.995  67.127  0.00  0.00    +0.050 C 
BRANCH   9  10
ATOM     10  C   UNL     1     -11.155  14.610  68.447  0.00  0.00    +0.058 A 
ATOM     11  N   UNL     1     -11.637  13.890  69.489  0.00  0.00    -0.310 N 
ATOM     12  C   UNL     1     -11.795  12.453  69.556  0.00  0.00    +0.132 C 
ATOM     13  C   UNL     1     -11.892  14.774  70.473  0.00  0.00    +0.178 A 
ATOM     14  N   UNL     1     -12.079  15.960  69.898  0.00  0.00    -0.223 NA
ATOM     15  C   UNL     1     -11.682  15.886  68.608  0.00  0.00    +0.113 A 
ENDBRANCH   9  10
ENDBRANCH   2   9
TORSDOF 3
ENDMDL
MODEL 3
REMARK VINA RESULT:      -4.9      4.750      6.747
REMARK  Name = 
REMARK  3 active torsions:
REMARK  status: ('A' for Active; 'I' for Inactive)
REMARK    1  A    between atoms: C_2  and  C_3
REMARK    2  A    between atoms: C_8  and  C_9
REMARK    3  A    between atoms: C_9  and  C_10
REMARK                            x       y       z     vdW  Elec       q    Type
REMARK                         _______ _______ _______ _____ _____    ______ ____
ROOT
ATOM      1  C   UNL     1     -12.705  14.174  71.824  0.00  0.00    +0.103 C 
ATOM      2  C   UNL     1     -11.445  14.444  70.675  0.00  0.00    +0.060 C 
ATOM      3  C   UNL     1     -11.647  16.063  70.726  0.00  0.00    +0.209 C 
ATOM      4  O   UNL     1     -11.608  16.258  72.097  0.00  0.00    -0.448 OA
ATOM      5  C   UNL     1     -12.041  15.224  72.852  0.00  0.00    +0.317 C 
ATOM      6  O   UNL     1     -12.589  15.220  73.982  0.00  0.00    -0.250 OA
ENDROOT
BRANCH   1   8
ATOM      7  C   UNL     1     -14.970  14.962  71.609  0.00  0.00    +0.001 C 
ATOM      8  C   UNL     1     -13.723  15.310  71.204  0.00  0.00    +0.011 C 
ENDBRANCH   1   8
BRANCH   2   9
ATOM      9  C   UNL     1     -12.450  14.272  69.395  0.00  0.00    +0.050 C 
BRANCH   9  10
ATOM     10  C   UNL     1     -11.866  13.101  68.668  0.00  0.00    +0.058 A 
ATOM     11  N   UNL     1     -11.794  13.037  67.316  0.00  0.00    -0.310 N 
ATOM     12  C   UNL     1     -12.147  14.078  66.375  0.00  0.00    +0.132 C 
ATOM     13  C   UNL     1     -11.279  11.828  67.021  0.00  0.00    +0.178 A 
ATOM     14  N   UNL     1     -11.537  11.028  68.054  0.00  0.00    -0.223 NA
ATOM     15  C   UNL     1     -11.964  11.781  69.093  0.00  0.00    +0.113 A 
ENDBRANCH   9  10
ENDBRANCH   2   9
TORSDOF 3
ENDMDL
MODEL 4
REMARK VINA RESULT:      -4.9      3.362      4.409
REMARK  Name = 
REMARK  3 active torsions:
REMARK  status: ('A' for Active; 'I' for Inactive)
REMARK    1  A    between atoms: C_2  and  C_3
REMARK    2  A    between atoms: C_8  and  C_9
REMARK    3  A    between atoms: C_9  and  C_10
REMARK                            x       y       z     vdW  Elec       q    Type
REMARK                         _______ _______ _______ _____ _____    ______ ____
ROOT
ATOM      1  C   UNL     1     -12.544  13.172  65.308  0.00  0.00    +0.103 C 
ATOM      2  C   UNL     1     -11.414  13.127  66.612  0.00  0.00    +0.060 C 
ATOM      3  C   UNL     1     -10.147  13.403  65.621  0.00  0.00    +0.209 C 
ATOM      4  O   UNL     1     -10.622  14.513  64.942  0.00  0.00    -0.448 OA
ATOM      5  C   UNL     1     -11.965  14.593  64.809  0.00  0.00    +0.317 C 
ATOM      6  O   UNL     1     -12.660  15.117  63.904  0.00  0.00    -0.250 OA
ENDROOT
BRANCH   1   8
ATOM      7  C   UNL     1     -12.424  11.862  63.291  0.00  0.00    +0.001 C 
ATOM      8  C   UNL     1     -11.595  12.332  64.256  0.00  0.00    +0.011 C 
ENDBRANCH   1   8
BRANCH   2   9
ATOM      9  C   UNL     1     -11.239  11.502  66.527  0.00  0.00    +0.050 C 
BRANCH   9  10
ATOM     10  C   UNL     1     -11.080  11.107  67.962  0.00  0.00    +0.058 A 
ATOM     11  N   UNL     1     -10.787   9.841  68.347  0.00  0.00    -0.310 N 
ATOM     12  C   UNL     1     -10.480   8.719  67.488  0.00  0.00    +0.132 C 
ATOM     13  C   UNL     1     -10.787   9.847  69.694  0.00  0.00    +0.178 A 
ATOM     14  N   UNL     1     -11.550  10.865  70.084  0.00  0.00    -0.223 NA
ATOM     15  C   UNL     1     -11.806  11.652  69.014  0.00  0.00    +0.113 A 
ENDBRANCH   9  10
ENDBRANCH   2   9
TORSDOF 3
ENDMDL
MODEL 5
REMARK VINA RESULT:      -4.9      1.416      2.225
REMARK  Name = 
REMARK  3 active torsions:
REMARK  status: ('A' for Active; 'I' for Inactive)
REMARK    1  A    between atoms: C_2  and  C_3
REMARK    2  A    between atoms: C_8  and  C_9
REMARK    3  A    between atoms: C_9  and  C_10
REMARK                            x       y       z     vdW  Elec       q    Type
REMARK                         _______ _______ _______ _____ _____    ______ ____
ROOT
ATOM      1  C   UNL     1     -12.245  13.936  66.178  0.00  0.00    +0.103 C 
ATOM      2  C   UNL     1     -11.122  15.102  65.580  0.00  0.00    +0.060 C 
ATOM      3  C   UNL     1     -10.176  13.953  64.908  0.00  0.00    +0.209 C 
ATOM      4  O   UNL     1     -11.135  13.250  64.198  0.00  0.00    -0.448 OA
ATOM      5  C   UNL     1     -12.383  13.267  64.718  0.00  0.00    +0.317 C 
ATOM      6  O   UNL     1     -13.299  12.409  64.653  0.00  0.00    -0.250 OA
ENDROOT
BRANCH   1   8
ATOM      7  C   UNL     1     -11.683  12.073  67.597  0.00  0.00    +0.001 C 
ATOM      8  C   UNL     1     -11.100  12.849  66.650  0.00  0.00    +0.011 C 
ENDBRANCH   1   8
BRANCH   2   9
ATOM      9  C   UNL     1     -10.260  15.122  66.971  0.00  0.00    +0.050 C 
BRANCH   9  10
ATOM     10  C   UNL     1     -10.073  16.584  67.227  0.00  0.00    +0.058 A 
ATOM     11  N   UNL     1     -10.390  17.170  68.408  0.00  0.00    -0.310 N 
ATOM     12  C   UNL     1     -10.840  16.509  69.614  0.00  0.00    +0.132 C 
ATOM     13  C   UNL     1     -10.154  18.487  68.253  0.00  0.00    +0.178 A 
ATOM     14  N   UNL     1     -10.225  18.748  66.949  0.00  0.00    -0.223 NA
ATOM     15  C   UNL     1     -10.234  17.579  66.270  0.00  0.00    +0.113 A 
ENDBRANCH   9  10
ENDBRANCH   2   9
TORSDOF 3
ENDMDL
MODEL 6
REMARK VINA RESULT:      -4.8      4.803      6.733
REMARK  Name = 
REMARK  3 active torsions:
REMARK  status: ('A' for Active; 'I' for Inactive)
REMARK    1  A    between atoms: C_2  and  C_3
REMARK    2  A    between atoms: C_8  and  C_9
REMARK    3  A    between atoms: C_9  and  C_10
REMARK                            x       y       z     vdW  Elec       q    Type
REMARK                         _______ _______ _______ _____ _____    ______ ____
ROOT
ATOM      1  C   UNL     1     -13.251  15.241  70.894  0.00  0.00    +0.103 C 
ATOM      2  C   UNL     1     -13.287  13.568  70.472  0.00  0.00    +0.060 C 
ATOM      3  C   UNL     1     -13.242  13.098  72.034  0.00  0.00    +0.209 C 
ATOM      4  O   UNL     1     -14.273  13.873  72.539  0.00  0.00    -0.448 OA
ATOM      5  C   UNL     1     -14.490  15.049  71.908  0.00  0.00    +0.317 C 
ATOM      6  O   UNL     1     -14.936  16.136  72.352  0.00  0.00    -0.250 OA
ENDROOT
BRANCH   1   8
ATOM      7  C   UNL     1     -11.806  16.326  72.486  0.00  0.00    +0.001 C 
ATOM      8  C   UNL     1     -12.141  15.070  72.099  0.00  0.00    +0.011 C 
ENDBRANCH   1   8
BRANCH   2   9
ATOM      9  C   UNL     1     -11.661  13.479  70.307  0.00  0.00    +0.050 C 
BRANCH   9  10
ATOM     10  C   UNL     1     -11.495  12.612  69.098  0.00  0.00    +0.058 A 
ATOM     11  N   UNL     1     -11.595  13.088  67.833  0.00  0.00    -0.310 N 
ATOM     12  C   UNL     1     -11.761  14.468  67.433  0.00  0.00    +0.132 C 
ATOM     13  C   UNL     1     -11.457  12.025  67.017  0.00  0.00    +0.178 A 
ATOM     14  N   UNL     1     -11.801  10.945  67.715  0.00  0.00    -0.223 NA
ATOM     15  C   UNL     1     -11.892  11.282  69.022  0.00  0.00    +0.113 A 
ENDBRANCH   9  10
ENDBRANCH   2   9
TORSDOF 3
ENDMDL
MODEL 7
REMARK VINA RESULT:      -4.8      3.088      4.988
REMARK  Name = 
REMARK  3 active torsions:
REMARK  status: ('A' for Active; 'I' for Inactive)
REMARK    1  A    between atoms: C_2  and  C_3
REMARK    2  A    between atoms: C_8  and  C_9
REMARK    3  A    between atoms: C_9  and  C_10
REMARK                            x       y       z     vdW  Elec       q    Type
REMARK                         _______ _______ _______ _____ _____    ______ ____
ROOT
ATOM      1  C   UNL     1     -10.438  14.702  65.086  0.00  0.00    +0.103 C 
ATOM      2  C   UNL     1     -10.937  13.065  64.859  0.00  0.00    +0.060 C 
ATOM      3  C   UNL     1     -12.445  13.374  65.403  0.00  0.00    +0.209 C 
ATOM      4  O   UNL     1     -12.753  14.475  64.622  0.00  0.00    -0.448 OA
ATOM      5  C   UNL     1     -11.704  15.242  64.246  0.00  0.00    +0.317 C 
ATOM      6  O   UNL     1     -11.647  16.474  64.006  0.00  0.00    -0.250 OA
ENDROOT
BRANCH   1   8
ATOM      7  C   UNL     1     -10.598  15.936  67.148  0.00  0.00    +0.001 C 
ATOM      8  C   UNL     1     -11.213  14.900  66.525  0.00  0.00    +0.011 C 
ENDBRANCH   1   8
BRANCH   2   9
ATOM      9  C   UNL     1     -10.405  12.601  66.335  0.00  0.00    +0.050 C 
BRANCH   9  10
ATOM     10  C   UNL     1     -10.408  11.108  66.237  0.00  0.00    +0.058 A 
ATOM     11  N   UNL     1     -10.812  10.306  67.253  0.00  0.00    -0.310 N 
ATOM     12  C   UNL     1     -11.389  10.721  68.513  0.00  0.00    +0.132 C 
ATOM     13  C   UNL     1     -10.618   9.040  66.835  0.00  0.00    +0.178 A 
ATOM     14  N   UNL     1      -9.676   9.076  65.896  0.00  0.00    -0.223 NA
ATOM     15  C   UNL     1      -9.471  10.362  65.532  0.00  0.00    +0.113 A 
ENDBRANCH   9  10
ENDBRANCH   2   9
TORSDOF 3
ENDMDL
MODEL 8
REMARK VINA RESULT:      -4.6      3.409      5.364
REMARK  Name = 
REMARK  3 active torsions:
REMARK  status: ('A' for Active; 'I' for Inactive)
REMARK    1  A    between atoms: C_2  and  C_3
REMARK    2  A    between atoms: C_8  and  C_9
REMARK    3  A    between atoms: C_9  and  C_10
REMARK                            x       y       z     vdW  Elec       q    Type
REMARK                         _______ _______ _______ _____ _____    ______ ____
ROOT
ATOM      1  C   UNL     1     -11.264  15.716  68.471  0.00  0.00    +0.103 C 
ATOM      2  C   UNL     1     -12.100  14.363  67.802  0.00  0.00    +0.060 C 
ATOM      3  C   UNL     1     -11.480  13.338  68.911  0.00  0.00    +0.209 C 
ATOM      4  O   UNL     1     -11.780  14.040  70.067  0.00  0.00    -0.448 OA
ATOM      5  C   UNL     1     -11.833  15.385  69.943  0.00  0.00    +0.317 C 
ATOM      6  O   UNL     1     -11.583  16.286  70.782  0.00  0.00    -0.250 OA
ENDROOT
BRANCH   1   8
ATOM      7  C   UNL     1      -8.901  15.850  68.916  0.00  0.00    +0.001 C 
ATOM      8  C   UNL     1      -9.858  14.904  68.750  0.00  0.00    +0.011 C 
ENDBRANCH   1   8
BRANCH   2   9
ATOM      9  C   UNL     1     -10.914  14.047  66.719  0.00  0.00    +0.050 C 
BRANCH   9  10
ATOM     10  C   UNL     1     -11.676  13.630  65.500  0.00  0.00    +0.058 A 
ATOM     11  N   UNL     1     -11.431  12.471  64.841  0.00  0.00    -0.310 N 
ATOM     12  C   UNL     1     -10.512  11.425  65.233  0.00  0.00    +0.132 C 
ATOM     13  C   UNL     1     -12.251  12.463  63.773  0.00  0.00    +0.178 A 
ATOM     14  N   UNL     1     -12.556  13.730  63.500  0.00  0.00    -0.223 NA
ATOM     15  C   UNL     1     -12.160  14.506  64.535  0.00  0.00    +0.113 A 
ENDBRANCH   9  10
ENDBRANCH   2   9
TORSDOF 3
ENDMDL
MODEL 9
REMARK VINA RESULT:      -4.6      3.222      4.556
REMARK  Name = 
REMARK  3 active torsions:
REMARK  status: ('A' for Active; 'I' for Inactive)
REMARK    1  A    between atoms: C_2  and  C_3
REMARK    2  A    between atoms: C_8  and  C_9
REMARK    3  A    between atoms: C_9  and  C_10
REMARK                            x       y       z     vdW  Elec       q    Type
REMARK                         _______ _______ _______ _____ _____    ______ ____
ROOT
ATOM      1  C   UNL     1     -11.841  14.447  67.079  0.00  0.00    +0.103 C 
ATOM      2  C   UNL     1     -11.430  15.067  68.637  0.00  0.00    +0.060 C 
ATOM      3  C   UNL     1      -9.909  14.480  68.550  0.00  0.00    +0.209 C 
ATOM      4  O   UNL     1      -9.541  14.975  67.310  0.00  0.00    -0.448 OA
ATOM      5  C   UNL     1     -10.545  15.144  66.421  0.00  0.00    +0.317 C 
ATOM      6  O   UNL     1     -10.536  15.080  65.166  0.00  0.00    -0.250 OA
ENDROOT
BRANCH   1   8
ATOM      7  C   UNL     1     -11.589  12.163  66.359  0.00  0.00    +0.001 C 
ATOM      8  C   UNL     1     -11.060  13.010  67.276  0.00  0.00    +0.011 C 
ENDBRANCH   1   8
BRANCH   2   9
ATOM      9  C   UNL     1     -11.991  13.740  69.415  0.00  0.00    +0.050 C 
BRANCH   9  10
ATOM     10  C   UNL     1     -12.437  14.290  70.734  0.00  0.00    +0.058 A 
ATOM     11  N   UNL     1     -12.969  13.516  71.711  0.00  0.00    -0.310 N 
ATOM     12  C   UNL     1     -13.098  12.074  71.706  0.00  0.00    +0.132 C 
ATOM     13  C   UNL     1     -13.309  14.350  72.711  0.00  0.00    +0.178 A 
ATOM     14  N   UNL     1     -13.485  15.556  72.176  0.00  0.00    -0.223 NA
ATOM     15  C   UNL     1     -13.003  15.547  70.913  0.00  0.00    +0.113 A 
ENDBRANCH   9  10
ENDBRANCH   2   9
TORSDOF 3
ENDMDL
