MODEL 1
REMARK VINA RESULT:      -7.2      0.000      0.000
REMARK  Name = 
REMARK  7 active torsions:
REMARK  status: ('A' for Active; 'I' for Inactive)
REMARK    1  A    between atoms: C_2  and  N_3
REMARK    2  A    between atoms: N_3  and  C_4
REMARK    3  A    between atoms: N_3  and  C_6
REMARK    4  A    between atoms: C_6  and  C_7
REMARK    5  A    between atoms: C_7  and  S_8
REMARK    6  A    between atoms: S_8  and  C_11
REMARK    7  A    between atoms: C_41  and  C_42
REMARK                            x       y       z     vdW  Elec       q    Type
REMARK                         _______ _______ _______ _____ _____    ______ ____
ROOT
ATOM      1  C   UNL     1     -11.162  13.166  66.820  0.00  0.00    +0.160 C 
ATOM      2  C   UNL     1     -10.817  11.824  67.806  0.00  0.00    +0.197 C 
ATOM      3  N   UNL     1     -10.828  12.656  69.135  0.00  0.00    -0.265 N 
ATOM      4  C   UNL     1     -11.765  12.185  70.143  0.00  0.00    +0.270 C 
ATOM      5  C   UNL     1     -12.259  10.852  70.242  0.00  0.00    +0.175 A 
ATOM      6  N   UNL     1     -11.526   9.988  69.581  0.00  0.00    -0.207 NA
ATOM      7  C   UNL     1     -11.304   9.101  70.602  0.00  0.00    +0.213 A 
ATOM      8  C   UNL     1     -10.082   9.218  71.475  0.00  0.00    +0.150 C 
ATOM      9  C   UNL     1     -10.068   8.197  72.527  0.00  0.00    +0.163 C 
ATOM     10  C   UNL     1      -8.952   7.625  73.279  0.00  0.00    +0.102 C 
ATOM     11  C   UNL     1      -7.891   6.972  72.200  0.00  0.00    +0.181 C 
ATOM     12  C   UNL     1      -9.104   6.393  71.270  0.00  0.00    +0.002 C 
ATOM     13  C   UNL     1      -9.062   5.070  71.485  0.00  0.00    -0.024 C 
ATOM     14  C   UNL     1      -7.722   4.536  71.166  0.00  0.00    -0.007 C 
ATOM     15  C   UNL     1      -7.043   5.394  70.372  0.00  0.00    -0.003 C 
ATOM     16  C   UNL     1      -7.775   5.672  69.238  0.00  0.00    +0.142 C 
ATOM     17  N   UNL     1      -7.613   5.894  67.906  0.00  0.00    -0.197 NA
ATOM     18  C   UNL     1      -6.382   6.242  67.299  0.00  0.00    +0.265 C 
ATOM     19  C   UNL     1      -6.025   7.537  67.905  0.00  0.00    +0.055 C 
ATOM     20  C   UNL     1      -7.150   8.049  68.442  0.00  0.00    -0.018 C 
ATOM     21  C   UNL     1      -8.108   8.425  67.233  0.00  0.00    +0.062 C 
ATOM     22  C   UNL     1      -8.463   9.879  68.106  0.00  0.00    +0.173 C 
ATOM     23  O   UNL     1      -9.016  10.564  66.880  0.00  0.00    -0.451 OA
ATOM     24  C   UNL     1      -9.576   7.906  67.699  0.00  0.00    +0.008 C 
ATOM     25  O   UNL     1      -5.682   5.559  66.547  0.00  0.00    -0.268 OA
ATOM     26  C   UNL     1     -10.198   4.228  71.947  0.00  0.00    +0.031 C 
ATOM     27  O   UNL     1      -7.773   8.339  71.548  0.00  0.00    -0.218 OA
ATOM     28  O   UNL     1     -11.182   7.814  72.889  0.00  0.00    -0.295 OA
ATOM     29  O   UNL     1     -12.544   8.939  71.062  0.00  0.00    -0.435 OA
ATOM     30  C   UNL     1     -13.226  10.068  70.871  0.00  0.00    +0.205 A 
ATOM     31  O   UNL     1     -12.389  12.986  70.917  0.00  0.00    -0.268 OA
ATOM     32  C   UNL     1     -11.487  13.936  68.800  0.00  0.00    +0.096 C 
ATOM     33  C   UNL     1      -9.276  11.895  67.337  0.00  0.00    +0.337 C 
ATOM     34  O   UNL     1      -9.092  12.411  66.166  0.00  0.00    -0.248 OA
ATOM     35  C   UNL     1     -12.411  13.595  67.676  0.00  0.00    +0.047 C 
ENDROOT
BRANCH   1  36
ATOM     36  S   UNL     1      -9.982  14.474  67.357  0.00  0.00    -0.008 S 
ATOM     37  O   UNL     1      -9.020  14.099  68.375  0.00  0.00    -0.173 OA
ATOM     38  O   UNL     1     -10.739  15.722  67.814  0.00  0.00    -0.173 OA
BRANCH  36  39
ATOM     39  C   UNL     1      -9.174  15.336  66.048  0.00  0.00    +0.168 C 
BRANCH  39  40
ATOM     40  C   UNL     1      -9.604  16.780  66.137  0.00  0.00    +0.098 C 
BRANCH  40  41
ATOM     41  N   UNL     1      -8.543  17.730  65.998  0.00  0.00    -0.271 NA
BRANCH  41  43
ATOM     42  C   UNL     1     -10.454  19.288  66.092  0.00  0.00    +0.019 C 
ATOM     43  C   UNL     1      -9.027  19.029  66.465  0.00  0.00    +0.072 C 
ENDBRANCH  41  43
BRANCH  41  44
ATOM     44  C   UNL     1      -7.515  17.371  66.975  0.00  0.00    +0.072 C 
ATOM     45  C   UNL     1      -7.794  18.013  68.306  0.00  0.00    +0.019 C 
ENDBRANCH  41  44
ENDBRANCH  40  41
ENDBRANCH  39  40
ENDBRANCH  36  39
ENDBRANCH   1  36
BRANCH  22  46
ATOM     46  C   UNL     1      -6.919  10.407  67.928  0.00  0.00    +0.041 C 
ATOM     47  C   UNL     1      -6.730  11.434  68.997  0.00  0.00    +0.004 C 
ATOM     48  C   UNL     1      -6.792  10.932  66.546  0.00  0.00    +0.004 C 
ENDBRANCH  22  46
TORSDOF 7
ENDMDL
MODEL 2
REMARK VINA RESULT:      -7.2      3.383      9.395
REMARK  Name = 
REMARK  7 active torsions:
REMARK  status: ('A' for Active; 'I' for Inactive)
REMARK    1  A    between atoms: C_2  and  N_3
REMARK    2  A    between atoms: N_3  and  C_4
REMARK    3  A    between atoms: N_3  and  C_6
REMARK    4  A    between atoms: C_6  and  C_7
REMARK    5  A    between atoms: C_7  and  S_8
REMARK    6  A    between atoms: S_8  and  C_11
REMARK    7  A    between atoms: C_41  and  C_42
REMARK                            x       y       z     vdW  Elec       q    Type
REMARK                         _______ _______ _______ _____ _____    ______ ____
ROOT
ATOM      1  C   UNL     1     -11.002  13.681  68.251  0.00  0.00    +0.160 C 
ATOM      2  C   UNL     1      -9.684  14.721  67.979  0.00  0.00    +0.197 C 
ATOM      3  N   UNL     1      -9.854  14.710  66.419  0.00  0.00    -0.265 N 
ATOM      4  C   UNL     1     -10.027  16.022  65.815  0.00  0.00    +0.270 C 
ATOM      5  C   UNL     1      -9.576  17.250  66.381  0.00  0.00    +0.175 A 
ATOM      6  N   UNL     1      -8.670  17.077  67.313  0.00  0.00    -0.207 NA
ATOM      7  C   UNL     1      -7.710  17.915  66.808  0.00  0.00    +0.213 A 
ATOM      8  C   UNL     1      -6.631  17.392  65.895  0.00  0.00    +0.150 C 
ATOM      9  C   UNL     1      -5.741  18.463  65.439  0.00  0.00    +0.163 C 
ATOM     10  C   UNL     1      -4.360  18.410  64.960  0.00  0.00    +0.102 C 
ATOM     11  C   UNL     1      -3.437  17.723  66.141  0.00  0.00    +0.181 C 
ATOM     12  C   UNL     1      -4.247  18.519  67.316  0.00  0.00    +0.002 C 
ATOM     13  C   UNL     1      -3.366  19.438  67.737  0.00  0.00    -0.024 C 
ATOM     14  C   UNL     1      -2.111  18.793  68.172  0.00  0.00    -0.007 C 
ATOM     15  C   UNL     1      -2.312  17.481  68.427  0.00  0.00    -0.003 C 
ATOM     16  C   UNL     1      -3.322  17.326  69.351  0.00  0.00    +0.142 C 
ATOM     17  N   UNL     1      -3.670  16.550  70.412  0.00  0.00    -0.197 NA
ATOM     18  C   UNL     1      -3.100  15.287  70.700  0.00  0.00    +0.265 C 
ATOM     19  C   UNL     1      -3.451  14.451  69.538  0.00  0.00    +0.055 C 
ATOM     20  C   UNL     1      -4.476  15.057  68.906  0.00  0.00    -0.018 C 
ATOM     21  C   UNL     1      -5.735  14.956  69.868  0.00  0.00    +0.062 C 
ATOM     22  C   UNL     1      -6.655  14.583  68.447  0.00  0.00    +0.173 C 
ATOM     23  O   UNL     1      -7.797  14.010  69.253  0.00  0.00    -0.451 OA
ATOM     24  C   UNL     1      -6.419  16.429  69.802  0.00  0.00    +0.008 C 
ATOM     25  O   UNL     1      -2.350  14.982  71.630  0.00  0.00    -0.268 OA
ATOM     26  C   UNL     1      -3.606  20.906  67.802  0.00  0.00    +0.031 C 
ATOM     27  O   UNL     1      -4.334  16.498  66.074  0.00  0.00    -0.218 OA
ATOM     28  O   UNL     1      -6.264  19.577  65.376  0.00  0.00    -0.295 OA
ATOM     29  O   UNL     1      -8.437  19.005  66.565  0.00  0.00    -0.435 OA
ATOM     30  C   UNL     1      -9.679  18.635  66.258  0.00  0.00    +0.205 A 
ATOM     31  O   UNL     1     -10.784  16.210  64.804  0.00  0.00    -0.268 OA
ATOM     32  C   UNL     1     -11.207  14.171  66.169  0.00  0.00    +0.096 C 
ATOM     33  C   UNL     1      -8.677  13.492  68.250  0.00  0.00    +0.337 C 
ATOM     34  O   UNL     1      -9.145  12.574  69.032  0.00  0.00    -0.248 OA
ATOM     35  C   UNL     1     -11.989  14.547  67.386  0.00  0.00    +0.047 C 
ENDROOT
BRANCH   1  36
ATOM     36  S   UNL     1     -10.754  12.276  67.086  0.00  0.00    -0.008 S 
ATOM     37  O   UNL     1      -9.645  12.390  66.161  0.00  0.00    -0.173 OA
ATOM     38  O   UNL     1     -12.039  11.999  66.302  0.00  0.00    -0.173 OA
BRANCH  36  39
ATOM     39  C   UNL     1     -10.762  10.677  67.830  0.00  0.00    +0.168 C 
BRANCH  39  40
ATOM     40  C   UNL     1     -11.793  10.705  68.931  0.00  0.00    +0.098 C 
BRANCH  40  41
ATOM     41  N   UNL     1     -11.284  10.412  70.236  0.00  0.00    -0.271 NA
BRANCH  41  43
ATOM     42  C   UNL     1     -13.175  10.843  71.762  0.00  0.00    +0.019 C 
ATOM     43  C   UNL     1     -12.363   9.821  71.027  0.00  0.00    +0.072 C 
ENDBRANCH  41  43
BRANCH  41  44
ATOM     44  C   UNL     1     -10.325   9.319  70.086  0.00  0.00    +0.072 C 
ATOM     45  C   UNL     1      -9.910   8.781  71.428  0.00  0.00    +0.019 C 
ENDBRANCH  41  44
ENDBRANCH  40  41
ENDBRANCH  39  40
ENDBRANCH  36  39
ENDBRANCH   1  36
BRANCH  22  46
ATOM     46  C   UNL     1      -5.845  13.168  68.250  0.00  0.00    +0.041 C 
ATOM     47  C   UNL     1      -6.324  12.623  66.944  0.00  0.00    +0.004 C 
ATOM     48  C   UNL     1      -6.162  12.315  69.423  0.00  0.00    +0.004 C 
ENDBRANCH  22  46
TORSDOF 7
ENDMDL
MODEL 3
REMARK VINA RESULT:      -7.1      3.266      9.218
REMARK  Name = 
REMARK  7 active torsions:
REMARK  status: ('A' for Active; 'I' for Inactive)
REMARK    1  A    between atoms: C_2  and  N_3
REMARK    2  A    between atoms: N_3  and  C_4
REMARK    3  A    between atoms: N_3  and  C_6
REMARK    4  A    between atoms: C_6  and  C_7
REMARK    5  A    between atoms: C_7  and  S_8
REMARK    6  A    between atoms: S_8  and  C_11
REMARK    7  A    between atoms: C_41  and  C_42
REMARK                            x       y       z     vdW  Elec       q    Type
REMARK                         _______ _______ _______ _____ _____    ______ ____
ROOT
ATOM      1  C   UNL     1     -11.243  13.305  67.825  0.00  0.00    +0.160 C 
ATOM      2  C   UNL     1      -9.929  14.382  67.753  0.00  0.00    +0.197 C 
ATOM      3  N   UNL     1      -9.963  14.497  66.190  0.00  0.00    -0.265 N 
ATOM      4  C   UNL     1     -10.110  15.851  65.680  0.00  0.00    +0.270 C 
ATOM      5  C   UNL     1      -9.736  17.035  66.380  0.00  0.00    +0.175 A 
ATOM      6  N   UNL     1      -8.909  16.798  67.371  0.00  0.00    -0.207 NA
ATOM      7  C   UNL     1      -7.927  17.688  67.021  0.00  0.00    +0.213 A 
ATOM      8  C   UNL     1      -6.763  17.255  66.167  0.00  0.00    +0.150 C 
ATOM      9  C   UNL     1      -5.859  18.372  65.878  0.00  0.00    +0.163 C 
ATOM     10  C   UNL     1      -4.442  18.378  65.519  0.00  0.00    +0.102 C 
ATOM     11  C   UNL     1      -3.610  17.609  66.717  0.00  0.00    +0.181 C 
ATOM     12  C   UNL     1      -4.534  18.295  67.877  0.00  0.00    +0.002 C 
ATOM     13  C   UNL     1      -3.712  19.189  68.446  0.00  0.00    -0.024 C 
ATOM     14  C   UNL     1      -2.486  18.527  68.936  0.00  0.00    -0.007 C 
ATOM     15  C   UNL     1      -2.681  17.196  69.066  0.00  0.00    -0.003 C 
ATOM     16  C   UNL     1      -3.764  16.952  69.883  0.00  0.00    +0.142 C 
ATOM     17  N   UNL     1      -4.186  16.088  70.844  0.00  0.00    -0.197 NA
ATOM     18  C   UNL     1      -3.616  14.812  71.078  0.00  0.00    +0.265 C 
ATOM     19  C   UNL     1      -3.849  14.070  69.826  0.00  0.00    +0.055 C 
ATOM     20  C   UNL     1      -4.828  14.712  69.158  0.00  0.00    -0.018 C 
ATOM     21  C   UNL     1      -6.163  14.515  69.994  0.00  0.00    +0.062 C 
ATOM     22  C   UNL     1      -6.949  14.247  68.473  0.00  0.00    +0.173 C 
ATOM     23  O   UNL     1      -8.144  13.595  69.127  0.00  0.00    -0.451 OA
ATOM     24  C   UNL     1      -6.869  15.979  69.987  0.00  0.00    +0.008 C 
ATOM     25  O   UNL     1      -2.943  14.443  72.043  0.00  0.00    -0.268 OA
ATOM     26  C   UNL     1      -3.986  20.643  68.607  0.00  0.00    +0.031 C 
ATOM     27  O   UNL     1      -4.472  16.382  66.474  0.00  0.00    -0.218 OA
ATOM     28  O   UNL     1      -6.398  19.481  65.859  0.00  0.00    -0.295 OA
ATOM     29  O   UNL     1      -8.652  18.783  66.803  0.00  0.00    -0.435 OA
ATOM     30  C   UNL     1      -9.856  18.424  66.360  0.00  0.00    +0.205 A 
ATOM     31  O   UNL     1     -10.781  16.111  64.625  0.00  0.00    -0.268 OA
ATOM     32  C   UNL     1     -11.278  13.961  65.779  0.00  0.00    +0.096 C 
ATOM     33  C   UNL     1      -8.923  13.149  68.013  0.00  0.00    +0.337 C 
ATOM     34  O   UNL     1      -9.438  12.163  68.674  0.00  0.00    -0.248 OA
ATOM     35  C   UNL     1     -12.170  14.226  66.949  0.00  0.00    +0.047 C 
ENDROOT
BRANCH   1  36
ATOM     36  S   UNL     1     -10.867  12.004  66.577  0.00  0.00    -0.008 S 
ATOM     37  O   UNL     1      -9.670  12.195  65.783  0.00  0.00    -0.173 OA
ATOM     38  O   UNL     1     -12.062  11.796  65.645  0.00  0.00    -0.173 OA
BRANCH  36  39
ATOM     39  C   UNL     1     -10.938  10.348  67.179  0.00  0.00    +0.168 C 
BRANCH  39  40
ATOM     40  C   UNL     1     -10.188   9.486  66.193  0.00  0.00    +0.098 C 
BRANCH  40  41
ATOM     41  N   UNL     1      -9.421   8.431  66.783  0.00  0.00    -0.271 NA
BRANCH  41  43
ATOM     42  C   UNL     1      -8.265   8.514  68.962  0.00  0.00    +0.019 C 
ATOM     43  C   UNL     1      -8.336   9.032  67.558  0.00  0.00    +0.072 C 
ENDBRANCH  41  43
BRANCH  41  44
ATOM     44  C   UNL     1     -10.265   7.803  67.798  0.00  0.00    +0.072 C 
ATOM     45  C   UNL     1     -10.937   6.574  67.250  0.00  0.00    +0.019 C 
ENDBRANCH  41  44
ENDBRANCH  40  41
ENDBRANCH  39  40
ENDBRANCH  36  39
ENDBRANCH   1  36
BRANCH  22  46
ATOM     46  C   UNL     1      -6.096  12.865  68.235  0.00  0.00    +0.041 C 
ATOM     47  C   UNL     1      -6.402  12.454  66.831  0.00  0.00    +0.004 C 
ATOM     48  C   UNL     1      -6.538  11.893  69.267  0.00  0.00    +0.004 C 
ENDBRANCH  22  46
TORSDOF 7
ENDMDL
MODEL 4
REMARK VINA RESULT:      -7.0      2.658      8.966
REMARK  Name = 
REMARK  7 active torsions:
REMARK  status: ('A' for Active; 'I' for Inactive)
REMARK    1  A    between atoms: C_2  and  N_3
REMARK    2  A    between atoms: N_3  and  C_4
REMARK    3  A    between atoms: N_3  and  C_6
REMARK    4  A    between atoms: C_6  and  C_7
REMARK    5  A    between atoms: C_7  and  S_8
REMARK    6  A    between atoms: S_8  and  C_11
REMARK    7  A    between atoms: C_41  and  C_42
REMARK                            x       y       z     vdW  Elec       q    Type
REMARK                         _______ _______ _______ _____ _____    ______ ____
ROOT
ATOM      1  C   UNL     1      -8.273   8.084  69.119  0.00  0.00    +0.160 C 
ATOM      2  C   UNL     1      -8.085   9.741  68.782  0.00  0.00    +0.197 C 
ATOM      3  N   UNL     1      -7.636  10.101  70.241  0.00  0.00    -0.265 N 
ATOM      4  C   UNL     1      -6.343  10.759  70.337  0.00  0.00    +0.270 C 
ATOM      5  C   UNL     1      -5.729  11.515  69.295  0.00  0.00    +0.175 A 
ATOM      6  N   UNL     1      -6.579  11.882  68.366  0.00  0.00    -0.207 NA
ATOM      7  C   UNL     1      -6.306  13.225  68.373  0.00  0.00    +0.213 A 
ATOM      8  C   UNL     1      -7.099  14.170  69.237  0.00  0.00    +0.150 C 
ATOM      9  C   UNL     1      -6.611  15.547  69.124  0.00  0.00    +0.163 C 
ATOM     10  C   UNL     1      -7.291  16.818  69.370  0.00  0.00    +0.102 C 
ATOM     11  C   UNL     1      -8.623  16.881  68.402  0.00  0.00    +0.181 C 
ATOM     12  C   UNL     1      -7.818  16.199  67.154  0.00  0.00    +0.002 C 
ATOM     13  C   UNL     1      -7.653  17.215  66.293  0.00  0.00    -0.024 C 
ATOM     14  C   UNL     1      -8.957  17.813  65.942  0.00  0.00    -0.007 C 
ATOM     15  C   UNL     1      -9.966  16.959  66.223  0.00  0.00    -0.003 C 
ATOM     16  C   UNL     1      -9.759  15.753  65.588  0.00  0.00    +0.142 C 
ATOM     17  N   UNL     1     -10.445  14.764  64.956  0.00  0.00    -0.197 NA
ATOM     18  C   UNL     1     -11.841  14.559  65.072  0.00  0.00    +0.265 C 
ATOM     19  C   UNL     1     -12.051  14.259  66.499  0.00  0.00    +0.055 C 
ATOM     20  C   UNL     1     -10.858  13.897  67.011  0.00  0.00    -0.018 C 
ATOM     21  C   UNL     1     -10.482  12.499  66.360  0.00  0.00    +0.062 C 
ATOM     22  C   UNL     1      -9.951  12.027  67.940  0.00  0.00    +0.173 C 
ATOM     23  O   UNL     1      -9.982  10.559  67.589  0.00  0.00    -0.451 OA
ATOM     24  C   UNL     1      -8.908  12.635  65.980  0.00  0.00    +0.008 C 
ATOM     25  O   UNL     1     -12.711  14.736  64.217  0.00  0.00    -0.268 OA
ATOM     26  C   UNL     1      -6.354  17.673  65.729  0.00  0.00    +0.031 C 
ATOM     27  O   UNL     1      -9.108  15.597  69.052  0.00  0.00    -0.218 OA
ATOM     28  O   UNL     1      -5.414  15.650  68.849  0.00  0.00    -0.295 OA
ATOM     29  O   UNL     1      -4.976  13.206  68.304  0.00  0.00    -0.435 OA
ATOM     30  C   UNL     1      -4.527  12.109  68.911  0.00  0.00    +0.205 A 
ATOM     31  O   UNL     1      -5.543  10.548  71.309  0.00  0.00    -0.268 OA
ATOM     32  C   UNL     1      -7.278   8.816  70.877  0.00  0.00    +0.096 C 
ATOM     33  C   UNL     1      -9.687   9.918  68.834  0.00  0.00    +0.337 C 
ATOM     34  O   UNL     1     -10.357   8.855  68.528  0.00  0.00    -0.248 OA
ATOM     35  C   UNL     1      -6.835   7.949  69.743  0.00  0.00    +0.047 C 
ENDROOT
BRANCH   1  36
ATOM     36  S   UNL     1      -9.267   8.018  70.668  0.00  0.00    -0.008 S 
ATOM     37  O   UNL     1      -9.590   9.289  71.284  0.00  0.00    -0.173 OA
ATOM     38  O   UNL     1      -8.589   7.114  71.699  0.00  0.00    -0.173 OA
BRANCH  36  39
ATOM     39  C   UNL     1     -10.705   6.999  70.591  0.00  0.00    +0.168 C 
BRANCH  39  40
ATOM     40  C   UNL     1     -11.604   7.415  71.729  0.00  0.00    +0.098 C 
BRANCH  40  41
ATOM     41  N   UNL     1     -12.829   8.036  71.327  0.00  0.00    -0.271 NA
BRANCH  41  43
ATOM     42  C   UNL     1     -15.152   7.514  71.976  0.00  0.00    +0.019 C 
ATOM     43  C   UNL     1     -13.883   7.023  71.347  0.00  0.00    +0.072 C 
ENDBRANCH  41  43
BRANCH  41  44
ATOM     44  C   UNL     1     -13.214   8.958  72.395  0.00  0.00    +0.072 C 
ATOM     45  C   UNL     1     -13.163  10.383  71.917  0.00  0.00    +0.019 C 
ENDBRANCH  41  44
ENDBRANCH  40  41
ENDBRANCH  39  40
ENDBRANCH  36  39
ENDBRANCH   1  36
BRANCH  22  46
ATOM     46  C   UNL     1     -11.484  12.107  68.520  0.00  0.00    +0.041 C 
ATOM     47  C   UNL     1     -11.357  12.710  69.881  0.00  0.00    +0.004 C 
ATOM     48  C   UNL     1     -12.029  10.727  68.511  0.00  0.00    +0.004 C 
ENDBRANCH  22  46
TORSDOF 7
ENDMDL
MODEL 5
REMARK VINA RESULT:      -6.9      2.690      4.445
REMARK  Name = 
REMARK  7 active torsions:
REMARK  status: ('A' for Active; 'I' for Inactive)
REMARK    1  A    between atoms: C_2  and  N_3
REMARK    2  A    between atoms: N_3  and  C_4
REMARK    3  A    between atoms: N_3  and  C_6
REMARK    4  A    between atoms: C_6  and  C_7
REMARK    5  A    between atoms: C_7  and  S_8
REMARK    6  A    between atoms: S_8  and  C_11
REMARK    7  A    between atoms: C_41  and  C_42
REMARK                            x       y       z     vdW  Elec       q    Type
REMARK                         _______ _______ _______ _____ _____    ______ ____
ROOT
ATOM      1  C   UNL     1      -7.583  16.914  66.606  0.00  0.00    +0.160 C 
ATOM      2  C   UNL     1      -8.105  15.330  66.937  0.00  0.00    +0.197 C 
ATOM      3  N   UNL     1      -9.047  15.765  68.113  0.00  0.00    -0.265 N 
ATOM      4  C   UNL     1     -10.438  15.371  67.960  0.00  0.00    +0.270 C 
ATOM      5  C   UNL     1     -10.897  14.273  67.173  0.00  0.00    +0.175 A 
ATOM      6  N   UNL     1      -9.942  13.419  66.889  0.00  0.00    -0.207 NA
ATOM      7  C   UNL     1     -10.559  12.282  67.340  0.00  0.00    +0.213 A 
ATOM      8  C   UNL     1     -10.345  11.795  68.750  0.00  0.00    +0.150 C 
ATOM      9  C   UNL     1     -11.133  10.592  69.033  0.00  0.00    +0.163 C 
ATOM     10  C   UNL     1     -10.929   9.536  70.024  0.00  0.00    +0.102 C 
ATOM     11  C   UNL     1      -9.439   8.878  69.769  0.00  0.00    +0.181 C 
ATOM     12  C   UNL     1      -9.621   8.952  68.146  0.00  0.00    +0.002 C 
ATOM     13  C   UNL     1      -9.793   7.671  67.790  0.00  0.00    -0.024 C 
ATOM     14  C   UNL     1      -8.657   6.848  68.253  0.00  0.00    -0.007 C 
ATOM     15  C   UNL     1      -7.585   7.624  68.527  0.00  0.00    -0.003 C 
ATOM     16  C   UNL     1      -7.258   8.388  67.427  0.00  0.00    +0.142 C 
ATOM     17  N   UNL     1      -6.174   8.873  66.765  0.00  0.00    -0.197 NA
ATOM     18  C   UNL     1      -4.875   8.966  67.320  0.00  0.00    +0.265 C 
ATOM     19  C   UNL     1      -5.024   9.893  68.455  0.00  0.00    +0.055 C 
ATOM     20  C   UNL     1      -6.170  10.576  68.264  0.00  0.00    -0.018 C 
ATOM     21  C   UNL     1      -5.941  11.517  67.006  0.00  0.00    +0.062 C 
ATOM     22  C   UNL     1      -6.768  12.744  67.908  0.00  0.00    +0.173 C 
ATOM     23  O   UNL     1      -6.237  13.849  67.027  0.00  0.00    -0.451 OA
ATOM     24  C   UNL     1      -7.307  11.377  66.137  0.00  0.00    +0.008 C 
ATOM     25  O   UNL     1      -3.872   8.310  67.026  0.00  0.00    -0.268 OA
ATOM     26  C   UNL     1     -10.939   7.132  67.008  0.00  0.00    +0.031 C 
ATOM     27  O   UNL     1      -8.838  10.260  69.966  0.00  0.00    -0.218 OA
ATOM     28  O   UNL     1     -12.176  10.493  68.384  0.00  0.00    -0.295 OA
ATOM     29  O   UNL     1     -11.751  12.401  66.759  0.00  0.00    -0.435 OA
ATOM     30  C   UNL     1     -12.044  13.694  66.634  0.00  0.00    +0.205 A 
ATOM     31  O   UNL     1     -11.402  16.105  68.364  0.00  0.00    -0.268 OA
ATOM     32  C   UNL     1      -9.214  17.227  67.970  0.00  0.00    +0.096 C 
ATOM     33  C   UNL     1      -6.702  15.037  67.675  0.00  0.00    +0.337 C 
ATOM     34  O   UNL     1      -5.709  15.747  67.246  0.00  0.00    -0.248 OA
ATOM     35  C   UNL     1      -9.048  17.479  66.506  0.00  0.00    +0.047 C 
ENDROOT
BRANCH   1  36
ATOM     36  S   UNL     1      -7.114  17.617  68.242  0.00  0.00    -0.008 S 
ATOM     37  O   UNL     1      -7.148  16.709  69.371  0.00  0.00    -0.173 OA
ATOM     38  O   UNL     1      -7.966  18.848  68.559  0.00  0.00    -0.173 OA
BRANCH  36  39
ATOM     39  C   UNL     1      -5.614  18.545  68.256  0.00  0.00    +0.168 C 
BRANCH  39  40
ATOM     40  C   UNL     1      -5.986  19.984  68.518  0.00  0.00    +0.098 C 
BRANCH  40  41
ATOM     41  N   UNL     1      -5.119  20.669  69.427  0.00  0.00    -0.271 NA
BRANCH  41  43
ATOM     42  C   UNL     1      -5.687  20.062  71.750  0.00  0.00    +0.019 C 
ATOM     43  C   UNL     1      -4.835  19.778  70.551  0.00  0.00    +0.072 C 
ENDBRANCH  41  43
BRANCH  41  44
ATOM     44  C   UNL     1      -3.825  20.810  68.761  0.00  0.00    +0.072 C 
ATOM     45  C   UNL     1      -2.746  21.150  69.752  0.00  0.00    +0.019 C 
ENDBRANCH  41  44
ENDBRANCH  40  41
ENDBRANCH  39  40
ENDBRANCH  36  39
ENDBRANCH   1  36
BRANCH  22  46
ATOM     46  C   UNL     1      -5.557  12.798  69.015  0.00  0.00    +0.041 C 
ATOM     47  C   UNL     1      -6.150  13.473  70.210  0.00  0.00    +0.004 C 
ATOM     48  C   UNL     1      -4.428  13.533  68.394  0.00  0.00    +0.004 C 
ENDBRANCH  22  46
TORSDOF 7
ENDMDL
MODEL 6
REMARK VINA RESULT:      -6.9      3.035      9.106
REMARK  Name = 
REMARK  7 active torsions:
REMARK  status: ('A' for Active; 'I' for Inactive)
REMARK    1  A    between atoms: C_2  and  N_3
REMARK    2  A    between atoms: N_3  and  C_4
REMARK    3  A    between atoms: N_3  and  C_6
REMARK    4  A    between atoms: C_6  and  C_7
REMARK    5  A    between atoms: C_7  and  S_8
REMARK    6  A    between atoms: S_8  and  C_11
REMARK    7  A    between atoms: C_41  and  C_42
REMARK                            x       y       z     vdW  Elec       q    Type
REMARK                         _______ _______ _______ _____ _____    ______ ____
ROOT
ATOM      1  C   UNL     1     -10.077  10.923  68.517  0.00  0.00    +0.160 C 
ATOM      2  C   UNL     1      -9.260  12.403  68.332  0.00  0.00    +0.197 C 
ATOM      3  N   UNL     1      -9.541  12.494  66.792  0.00  0.00    -0.265 N 
ATOM      4  C   UNL     1     -10.232  13.701  66.367  0.00  0.00    +0.270 C 
ATOM      5  C   UNL     1     -10.220  14.942  67.069  0.00  0.00    +0.175 A 
ATOM      6  N   UNL     1      -9.240  15.024  67.938  0.00  0.00    -0.207 NA
ATOM      7  C   UNL     1      -8.700  16.209  67.510  0.00  0.00    +0.213 A 
ATOM      8  C   UNL     1      -7.583  16.227  66.499  0.00  0.00    +0.150 C 
ATOM      9  C   UNL     1      -7.189  17.595  66.151  0.00  0.00    +0.163 C 
ATOM     10  C   UNL     1      -5.929  18.114  65.620  0.00  0.00    +0.102 C 
ATOM     11  C   UNL     1      -4.726  17.703  66.668  0.00  0.00    +0.181 C 
ATOM     12  C   UNL     1      -5.672  18.009  67.965  0.00  0.00    +0.002 C 
ATOM     13  C   UNL     1      -5.160  19.141  68.468  0.00  0.00    -0.024 C 
ATOM     14  C   UNL     1      -3.724  18.971  68.770  0.00  0.00    -0.007 C 
ATOM     15  C   UNL     1      -3.407  17.660  68.862  0.00  0.00    -0.003 C 
ATOM     16  C   UNL     1      -4.212  17.042  69.795  0.00  0.00    +0.142 C 
ATOM     17  N   UNL     1      -4.163  16.085  70.760  0.00  0.00    -0.197 NA
ATOM     18  C   UNL     1      -3.146  15.105  70.863  0.00  0.00    +0.265 C 
ATOM     19  C   UNL     1      -3.260  14.326  69.617  0.00  0.00    +0.055 C 
ATOM     20  C   UNL     1      -4.483  14.567  69.106  0.00  0.00    -0.018 C 
ATOM     21  C   UNL     1      -5.534  13.900  70.092  0.00  0.00    +0.062 C 
ATOM     22  C   UNL     1      -6.365  13.361  68.670  0.00  0.00    +0.173 C 
ATOM     23  O   UNL     1      -7.147  12.322  69.436  0.00  0.00    -0.451 OA
ATOM     24  C   UNL     1      -6.714  15.008  70.240  0.00  0.00    +0.008 C 
ATOM     25  O   UNL     1      -2.264  15.008  71.719  0.00  0.00    -0.268 OA
ATOM     26  C   UNL     1      -5.916  20.397  68.728  0.00  0.00    +0.031 C 
ATOM     27  O   UNL     1      -5.112  16.246  66.478  0.00  0.00    -0.218 OA
ATOM     28  O   UNL     1      -8.088  18.432  66.251  0.00  0.00    -0.295 OA
ATOM     29  O   UNL     1      -9.794  16.966  67.435  0.00  0.00    -0.435 OA
ATOM     30  C   UNL     1     -10.834  16.192  67.129  0.00  0.00    +0.205 A 
ATOM     31  O   UNL     1     -11.085  13.697  65.417  0.00  0.00    -0.268 OA
ATOM     32  C   UNL     1     -10.617  11.517  66.524  0.00  0.00    +0.096 C 
ATOM     33  C   UNL     1      -7.854  11.620  68.408  0.00  0.00    +0.337 C 
ATOM     34  O   UNL     1      -7.886  10.517  69.082  0.00  0.00    -0.248 OA
ATOM     35  C   UNL     1     -11.380  11.442  67.806  0.00  0.00    +0.047 C 
ENDROOT
BRANCH   1  36
ATOM     36  S   UNL     1      -9.426   9.844  67.174  0.00  0.00    -0.008 S 
ATOM     37  O   UNL     1      -8.429  10.429  66.300  0.00  0.00    -0.173 OA
ATOM     38  O   UNL     1     -10.575   9.291  66.329  0.00  0.00    -0.173 OA
BRANCH  36  39
ATOM     39  C   UNL     1      -8.914   8.236  67.687  0.00  0.00    +0.168 C 
BRANCH  39  40
ATOM     40  C   UNL     1     -10.166   7.432  67.936  0.00  0.00    +0.098 C 
BRANCH  40  41
ATOM     41  N   UNL     1     -10.656   7.487  69.280  0.00  0.00    -0.271 NA
BRANCH  41  43
ATOM     42  C   UNL     1     -10.289   5.088  69.724  0.00  0.00    +0.019 C 
ATOM     43  C   UNL     1     -11.281   6.203  69.593  0.00  0.00    +0.072 C 
ENDBRANCH  41  43
BRANCH  41  44
ATOM     44  C   UNL     1      -9.489   7.530  70.160  0.00  0.00    +0.072 C 
ATOM     45  C   UNL     1      -9.726   8.455  71.321  0.00  0.00    +0.019 C 
ENDBRANCH  41  44
ENDBRANCH  40  41
ENDBRANCH  39  40
ENDBRANCH  36  39
ENDBRANCH   1  36
BRANCH  22  46
ATOM     46  C   UNL     1      -5.111  12.383  68.264  0.00  0.00    +0.041 C 
ATOM     47  C   UNL     1      -5.364  11.992  66.843  0.00  0.00    +0.004 C 
ATOM     48  C   UNL     1      -5.113  11.248  69.220  0.00  0.00    +0.004 C 
ENDBRANCH  22  46
TORSDOF 7
ENDMDL
MODEL 7
REMARK VINA RESULT:      -6.8      2.781      4.165
REMARK  Name = 
REMARK  7 active torsions:
REMARK  status: ('A' for Active; 'I' for Inactive)
REMARK    1  A    between atoms: C_2  and  N_3
REMARK    2  A    between atoms: N_3  and  C_4
REMARK    3  A    between atoms: N_3  and  C_6
REMARK    4  A    between atoms: C_6  and  C_7
REMARK    5  A    between atoms: C_7  and  S_8
REMARK    6  A    between atoms: S_8  and  C_11
REMARK    7  A    between atoms: C_41  and  C_42
REMARK                            x       y       z     vdW  Elec       q    Type
REMARK                         _______ _______ _______ _____ _____    ______ ____
ROOT
ATOM      1  C   UNL     1     -11.095  10.474  67.382  0.00  0.00    +0.160 C 
ATOM      2  C   UNL     1     -10.677   8.915  67.916  0.00  0.00    +0.197 C 
ATOM      3  N   UNL     1      -9.969   9.427  69.218  0.00  0.00    -0.265 N 
ATOM      4  C   UNL     1     -10.495   8.876  70.456  0.00  0.00    +0.270 C 
ATOM      5  C   UNL     1     -11.180   7.631  70.573  0.00  0.00    +0.175 A 
ATOM      6  N   UNL     1     -10.982   6.844  69.542  0.00  0.00    -0.207 NA
ATOM      7  C   UNL     1     -10.562   5.733  70.225  0.00  0.00    +0.213 A 
ATOM      8  C   UNL     1      -9.096   5.491  70.480  0.00  0.00    +0.150 C 
ATOM      9  C   UNL     1      -8.877   4.272  71.263  0.00  0.00    +0.163 C 
ATOM     10  C   UNL     1      -7.704   3.405  71.360  0.00  0.00    +0.102 C 
ATOM     11  C   UNL     1      -7.338   2.869  69.845  0.00  0.00    +0.181 C 
ATOM     12  C   UNL     1      -8.918   2.676  69.471  0.00  0.00    +0.002 C 
ATOM     13  C   UNL     1      -9.077   1.345  69.456  0.00  0.00    -0.024 C 
ATOM     14  C   UNL     1      -8.131   0.720  68.509  0.00  0.00    -0.007 C 
ATOM     15  C   UNL     1      -7.665   1.633  67.627  0.00  0.00    -0.003 C 
ATOM     16  C   UNL     1      -8.715   2.249  66.982  0.00  0.00    +0.142 C 
ATOM     17  N   UNL     1      -9.063   2.735  65.760  0.00  0.00    -0.197 NA
ATOM     18  C   UNL     1      -8.140   3.041  64.730  0.00  0.00    +0.265 C 
ATOM     19  C   UNL     1      -7.299   4.111  65.295  0.00  0.00    +0.055 C 
ATOM     20  C   UNL     1      -7.971   4.638  66.337  0.00  0.00    -0.018 C 
ATOM     21  C   UNL     1      -9.232   5.395  65.738  0.00  0.00    +0.062 C 
ATOM     22  C   UNL     1      -8.881   6.655  66.874  0.00  0.00    +0.173 C 
ATOM     23  O   UNL     1      -9.722   7.660  66.125  0.00  0.00    -0.451 OA
ATOM     24  C   UNL     1     -10.459   4.986  66.722  0.00  0.00    +0.008 C 
ATOM     25  O   UNL     1      -7.970   2.452  63.660  0.00  0.00    -0.268 OA
ATOM     26  C   UNL     1     -10.081   0.581  70.245  0.00  0.00    +0.031 C 
ATOM     27  O   UNL     1      -7.204   4.318  69.408  0.00  0.00    -0.218 OA
ATOM     28  O   UNL     1      -9.803   3.970  72.020  0.00  0.00    -0.295 OA
ATOM     29  O   UNL     1     -11.512   5.641  71.155  0.00  0.00    -0.435 OA
ATOM     30  C   UNL     1     -11.952   6.864  71.444  0.00  0.00    +0.205 A 
ATOM     31  O   UNL     1     -10.563   9.562  71.531  0.00  0.00    -0.268 OA
ATOM     32  C   UNL     1     -10.416  10.826  69.390  0.00  0.00    +0.096 C 
ATOM     33  C   UNL     1      -9.482   8.881  66.833  0.00  0.00    +0.337 C 
ATOM     34  O   UNL     1      -9.682   9.613  65.786  0.00  0.00    -0.248 OA
ATOM     35  C   UNL     1     -11.765  10.867  68.750  0.00  0.00    +0.047 C 
ENDROOT
BRANCH   1  36
ATOM     36  S   UNL     1      -9.547  11.462  67.525  0.00  0.00    -0.008 S 
ATOM     37  O   UNL     1      -8.377  10.764  68.021  0.00  0.00    -0.173 OA
ATOM     38  O   UNL     1      -9.788  12.712  68.375  0.00  0.00    -0.173 OA
BRANCH  36  39
ATOM     39  C   UNL     1      -9.128  12.409  66.097  0.00  0.00    +0.168 C 
BRANCH  39  40
ATOM     40  C   UNL     1     -10.083  13.576  66.045  0.00  0.00    +0.098 C 
BRANCH  40  41
ATOM     41  N   UNL     1     -10.722  13.770  64.779  0.00  0.00    -0.271 NA
BRANCH  41  43
ATOM     42  C   UNL     1     -11.878  12.004  63.500  0.00  0.00    +0.019 C 
ATOM     43  C   UNL     1     -10.572  12.543  63.998  0.00  0.00    +0.072 C 
ENDBRANCH  41  43
BRANCH  41  44
ATOM     44  C   UNL     1     -12.160  13.846  65.032  0.00  0.00    +0.072 C 
ATOM     45  C   UNL     1     -12.437  14.062  66.494  0.00  0.00    +0.019 C 
ENDBRANCH  41  44
ENDBRANCH  40  41
ENDBRANCH  39  40
ENDBRANCH  36  39
ENDBRANCH   1  36
BRANCH  22  46
ATOM     46  C   UNL     1      -7.467   6.998  66.113  0.00  0.00    +0.041 C 
ATOM     47  C   UNL     1      -6.663   7.767  67.110  0.00  0.00    +0.004 C 
ATOM     48  C   UNL     1      -7.805   7.757  64.883  0.00  0.00    +0.004 C 
ENDBRANCH  22  46
TORSDOF 7
ENDMDL
MODEL 8
REMARK VINA RESULT:      -6.7      2.811     10.025
REMARK  Name = 
REMARK  7 active torsions:
REMARK  status: ('A' for Active; 'I' for Inactive)
REMARK    1  A    between atoms: C_2  and  N_3
REMARK    2  A    between atoms: N_3  and  C_4
REMARK    3  A    between atoms: N_3  and  C_6
REMARK    4  A    between atoms: C_6  and  C_7
REMARK    5  A    between atoms: C_7  and  S_8
REMARK    6  A    between atoms: S_8  and  C_11
REMARK    7  A    between atoms: C_41  and  C_42
REMARK                            x       y       z     vdW  Elec       q    Type
REMARK                         _______ _______ _______ _____ _____    ______ ____
ROOT
ATOM      1  C   UNL     1      -8.878  11.062  67.096  0.00  0.00    +0.160 C 
ATOM      2  C   UNL     1      -8.126  12.569  67.334  0.00  0.00    +0.197 C 
ATOM      3  N   UNL     1      -7.528  12.176  68.730  0.00  0.00    -0.265 N 
ATOM      4  C   UNL     1      -6.083  12.302  68.832  0.00  0.00    +0.270 C 
ATOM      5  C   UNL     1      -5.277  13.165  68.034  0.00  0.00    +0.175 A 
ATOM      6  N   UNL     1      -5.973  14.111  67.448  0.00  0.00    -0.207 NA
ATOM      7  C   UNL     1      -5.240  15.186  67.878  0.00  0.00    +0.213 A 
ATOM      8  C   UNL     1      -5.616  15.922  69.139  0.00  0.00    +0.150 C 
ATOM      9  C   UNL     1      -4.674  17.005  69.434  0.00  0.00    +0.163 C 
ATOM     10  C   UNL     1      -4.849  18.226  70.220  0.00  0.00    +0.102 C 
ATOM     11  C   UNL     1      -6.105  19.075  69.571  0.00  0.00    +0.181 C 
ATOM     12  C   UNL     1      -5.638  18.711  68.048  0.00  0.00    +0.002 C 
ATOM     13  C   UNL     1      -5.153  19.872  67.582  0.00  0.00    -0.024 C 
ATOM     14  C   UNL     1      -6.170  20.937  67.685  0.00  0.00    -0.007 C 
ATOM     15  C   UNL     1      -7.407  20.406  67.815  0.00  0.00    -0.003 C 
ATOM     16  C   UNL     1      -7.664  19.542  66.773  0.00  0.00    +0.142 C 
ATOM     17  N   UNL     1      -8.677  19.145  65.958  0.00  0.00    -0.197 NA
ATOM     18  C   UNL     1     -10.051  19.363  66.227  0.00  0.00    +0.265 C 
ATOM     19  C   UNL     1     -10.304  18.618  67.473  0.00  0.00    +0.055 C 
ATOM     20  C   UNL     1      -9.301  17.730  67.619  0.00  0.00    -0.018 C 
ATOM     21  C   UNL     1      -9.469  16.651  66.466  0.00  0.00    +0.062 C 
ATOM     22  C   UNL     1      -9.085  15.464  67.669  0.00  0.00    +0.173 C 
ATOM     23  O   UNL     1      -9.648  14.337  66.837  0.00  0.00    -0.451 OA
ATOM     24  C   UNL     1      -7.963  16.419  65.901  0.00  0.00    +0.008 C 
ATOM     25  O   UNL     1     -10.830  20.121  65.647  0.00  0.00    -0.268 OA
ATOM     26  C   UNL     1      -3.796  20.078  67.005  0.00  0.00    +0.031 C 
ATOM     27  O   UNL     1      -6.992  17.864  69.803  0.00  0.00    -0.218 OA
ATOM     28  O   UNL     1      -3.529  16.822  69.017  0.00  0.00    -0.295 OA
ATOM     29  O   UNL     1      -4.007  14.777  67.586  0.00  0.00    -0.435 OA
ATOM     30  C   UNL     1      -3.957  13.449  67.687  0.00  0.00    +0.205 A 
ATOM     31  O   UNL     1      -5.377  11.491  69.521  0.00  0.00    -0.268 OA
ATOM     32  C   UNL     1      -7.628  10.703  68.806  0.00  0.00    +0.096 C 
ATOM     33  C   UNL     1      -9.557  13.208  67.711  0.00  0.00    +0.337 C 
ATOM     34  O   UNL     1     -10.572  12.615  67.169  0.00  0.00    -0.248 OA
ATOM     35  C   UNL     1      -7.562  10.251  67.384  0.00  0.00    +0.047 C 
ENDROOT
BRANCH   1  36
ATOM     36  S   UNL     1      -9.777  10.720  68.667  0.00  0.00    -0.008 S 
ATOM     37  O   UNL     1     -10.315  11.869  69.368  0.00  0.00    -0.173 OA
ATOM     38  O   UNL     1      -8.895   9.913  69.621  0.00  0.00    -0.173 OA
BRANCH  36  39
ATOM     39  C   UNL     1     -10.991   9.445  68.571  0.00  0.00    +0.168 C 
BRANCH  39  40
ATOM     40  C   UNL     1     -10.759   8.524  69.745  0.00  0.00    +0.098 C 
BRANCH  40  41
ATOM     41  N   UNL     1     -11.904   8.319  70.578  0.00  0.00    -0.271 NA
BRANCH  41  43
ATOM     42  C   UNL     1     -10.989   6.038  70.355  0.00  0.00    +0.019 C 
ATOM     43  C   UNL     1     -11.800   6.990  71.180  0.00  0.00    +0.072 C 
ENDBRANCH  41  43
BRANCH  41  44
ATOM     44  C   UNL     1     -11.774   9.226  71.718  0.00  0.00    +0.072 C 
ATOM     45  C   UNL     1     -12.862  10.265  71.703  0.00  0.00    +0.019 C 
ENDBRANCH  41  44
ENDBRANCH  40  41
ENDBRANCH  39  40
ENDBRANCH  36  39
ENDBRANCH   1  36
BRANCH  22  46
ATOM     46  C   UNL     1     -10.470  15.793  68.488  0.00  0.00    +0.041 C 
ATOM     47  C   UNL     1     -10.207  15.355  69.892  0.00  0.00    +0.004 C 
ATOM     48  C   UNL     1     -11.565  15.056  67.811  0.00  0.00    +0.004 C 
ENDBRANCH  22  46
TORSDOF 7
ENDMDL
MODEL 9
REMARK VINA RESULT:      -6.7      2.590      3.623
REMARK  Name = 
REMARK  7 active torsions:
REMARK  status: ('A' for Active; 'I' for Inactive)
REMARK    1  A    between atoms: C_2  and  N_3
REMARK    2  A    between atoms: N_3  and  C_4
REMARK    3  A    between atoms: N_3  and  C_6
REMARK    4  A    between atoms: C_6  and  C_7
REMARK    5  A    between atoms: C_7  and  S_8
REMARK    6  A    between atoms: S_8  and  C_11
REMARK    7  A    between atoms: C_41  and  C_42
REMARK                            x       y       z     vdW  Elec       q    Type
REMARK                         _______ _______ _______ _____ _____    ______ ____
ROOT
ATOM      1  C   UNL     1     -10.950  10.401  67.488  0.00  0.00    +0.160 C 
ATOM      2  C   UNL     1     -10.695   9.018  68.444  0.00  0.00    +0.197 C 
ATOM      3  N   UNL     1     -10.513   9.832  69.773  0.00  0.00    -0.265 N 
ATOM      4  C   UNL     1     -11.425   9.464  70.844  0.00  0.00    +0.270 C 
ATOM      5  C   UNL     1     -12.065   8.197  70.977  0.00  0.00    +0.175 A 
ATOM      6  N   UNL     1     -11.487   7.260  70.263  0.00  0.00    -0.207 NA
ATOM      7  C   UNL     1     -11.299   6.342  71.264  0.00  0.00    +0.213 A 
ATOM      8  C   UNL     1     -10.012   6.306  72.047  0.00  0.00    +0.150 C 
ATOM      9  C   UNL     1     -10.043   5.281  73.093  0.00  0.00    +0.163 C 
ATOM     10  C   UNL     1      -8.951   4.575  73.762  0.00  0.00    +0.102 C 
ATOM     11  C   UNL     1      -8.054   3.812  72.609  0.00  0.00    +0.181 C 
ATOM     12  C   UNL     1      -9.390   3.389  71.768  0.00  0.00    +0.002 C 
ATOM     13  C   UNL     1      -9.488   2.068  71.977  0.00  0.00    -0.024 C 
ATOM     14  C   UNL     1      -8.247   1.384  71.561  0.00  0.00    -0.007 C 
ATOM     15  C   UNL     1      -7.530   2.164  70.721  0.00  0.00    -0.003 C 
ATOM     16  C   UNL     1      -8.304   2.538  69.643  0.00  0.00    +0.142 C 
ATOM     17  N   UNL     1      -8.212   2.753  68.304  0.00  0.00    -0.197 NA
ATOM     18  C   UNL     1      -6.995   2.960  67.610  0.00  0.00    +0.265 C 
ATOM     19  C   UNL     1      -6.446   4.198  68.191  0.00  0.00    +0.055 C 
ATOM     20  C   UNL     1      -7.461   4.833  68.809  0.00  0.00    -0.018 C 
ATOM     21  C   UNL     1      -8.453   5.331  67.672  0.00  0.00    +0.062 C 
ATOM     22  C   UNL     1      -8.571   6.808  68.571  0.00  0.00    +0.173 C 
ATOM     23  O   UNL     1      -9.126   7.565  67.389  0.00  0.00    -0.451 OA
ATOM     24  C   UNL     1      -9.934   4.983  68.242  0.00  0.00    +0.008 C 
ATOM     25  O   UNL     1      -6.436   2.207  66.809  0.00  0.00    -0.268 OA
ATOM     26  C   UNL     1     -10.680   1.360  72.518  0.00  0.00    +0.031 C 
ATOM     27  O   UNL     1      -7.823   5.162  71.952  0.00  0.00    -0.218 OA
ATOM     28  O   UNL     1     -11.166   5.027  73.535  0.00  0.00    -0.295 OA
ATOM     29  O   UNL     1     -12.513   6.322  71.812  0.00  0.00    -0.435 OA
ATOM     30  C   UNL     1     -13.069   7.525  71.673  0.00  0.00    +0.205 A 
ATOM     31  O   UNL     1     -11.894  10.324  71.663  0.00  0.00    -0.268 OA
ATOM     32  C   UNL     1     -11.040  11.183  69.488  0.00  0.00    +0.096 C 
ATOM     33  C   UNL     1      -9.195   8.912  67.866  0.00  0.00    +0.337 C 
ATOM     34  O   UNL     1      -9.035   9.415  66.685  0.00  0.00    -0.248 OA
ATOM     35  C   UNL     1     -12.075  10.965  68.432  0.00  0.00    +0.047 C 
ENDROOT
BRANCH   1  36
ATOM     36  S   UNL     1      -9.589  11.556  67.941  0.00  0.00    -0.008 S 
ATOM     37  O   UNL     1      -8.559  11.031  68.815  0.00  0.00    -0.173 OA
ATOM     38  O   UNL     1     -10.157  12.841  68.546  0.00  0.00    -0.173 OA
BRANCH  36  39
ATOM     39  C   UNL     1      -8.855  12.415  66.587  0.00  0.00    +0.168 C 
BRANCH  39  40
ATOM     40  C   UNL     1      -9.809  13.515  66.191  0.00  0.00    +0.098 C 
BRANCH  40  41
ATOM     41  N   UNL     1     -10.419  13.344  64.907  0.00  0.00    -0.271 NA
BRANCH  41  43
ATOM     42  C   UNL     1     -11.017  11.340  63.597  0.00  0.00    +0.019 C 
ATOM     43  C   UNL     1      -9.948  12.081  64.340  0.00  0.00    +0.072 C 
ENDBRANCH  41  43
BRANCH  41  44
ATOM     44  C   UNL     1     -11.845  13.110  65.137  0.00  0.00    +0.072 C 
ATOM     45  C   UNL     1     -12.385  14.064  66.167  0.00  0.00    +0.019 C 
ENDBRANCH  41  44
ENDBRANCH  40  41
ENDBRANCH  39  40
ENDBRANCH  36  39
ENDBRANCH   1  36
BRANCH  22  46
ATOM     46  C   UNL     1      -6.992   7.152  68.283  0.00  0.00    +0.041 C 
ATOM     47  C   UNL     1      -6.612   8.148  69.331  0.00  0.00    +0.004 C 
ATOM     48  C   UNL     1      -6.902   7.662  66.892  0.00  0.00    +0.004 C 
ENDBRANCH  22  46
TORSDOF 7
ENDMDL
