MODEL 1
REMARK VINA RESULT:      -5.6      0.000      0.000
REMARK  Name = 
REMARK  3 active torsions:
REMARK  status: ('A' for Active; 'I' for Inactive)
REMARK    1  A    between atoms: CA_2  and  C_3
REMARK    2  A    between atoms: CA_2  and  C_12
REMARK    3  A    between atoms: C_3  and  C_4
REMARK                            x       y       z     vdW  Elec       q    Type
REMARK                         _______ _______ _______ _____ _____    ______ ____
ROOT
ATOM      1  C   UNL     1     -11.673  13.915  67.064  0.00  0.00    -0.017 A 
ATOM      2  C   UNL     1     -11.256  15.234  67.195  0.00  0.00    +0.041 A 
ATOM      3  C   UNL     1     -11.280  15.891  68.421  0.00  0.00    +0.234 A 
ATOM      4  O   UNL     1     -11.017  17.251  68.541  0.00  0.00    -0.283 OA
ATOM      5  C   UNL     1     -11.797  15.258  69.546  0.00  0.00    +0.234 A 
ATOM      6  O   UNL     1     -12.661  15.952  70.400  0.00  0.00    -0.283 OA
ATOM      7  C   UNL     1     -11.883  13.871  69.482  0.00  0.00    +0.045 A 
ATOM      8  C   UNL     1     -11.769  13.213  68.261  0.00  0.00    -0.001 A 
ENDROOT
BRANCH   1   9
ATOM      9  C   UNL     1     -12.530  13.507  65.904  0.00  0.00    +0.057 C 
BRANCH   9  11
ATOM     10  N   UNL     1     -12.548  14.819  63.962  0.00  0.00    -0.120 NA
ATOM     11  CA  UNL     1     -11.506  13.786  64.610  0.00  0.00    +0.199 C 
BRANCH  11  12
ATOM     12  C   UNL     1     -12.161  12.528  63.781  0.00  0.00    +0.382 C 
ATOM     13  OXT UNL     1     -11.223  11.546  63.486  0.00  0.00    -0.244 OA
ATOM     14  O   UNL     1     -13.286  12.243  64.294  0.00  0.00    -0.244 OA
ENDBRANCH  11  12
ENDBRANCH   9  11
ENDBRANCH   1   9
TORSDOF 3
ENDMDL
MODEL 2
REMARK VINA RESULT:      -5.6      3.201      5.992
REMARK  Name = 
REMARK  3 active torsions:
REMARK  status: ('A' for Active; 'I' for Inactive)
REMARK    1  A    between atoms: CA_2  and  C_3
REMARK    2  A    between atoms: CA_2  and  C_12
REMARK    3  A    between atoms: C_3  and  C_4
REMARK                            x       y       z     vdW  Elec       q    Type
REMARK                         _______ _______ _______ _____ _____    ______ ____
ROOT
ATOM      1  C   UNL     1     -11.718  13.751  69.769  0.00  0.00    -0.017 A 
ATOM      2  C   UNL     1     -11.659  12.616  68.969  0.00  0.00    +0.041 A 
ATOM      3  C   UNL     1     -11.708  12.696  67.581  0.00  0.00    +0.234 A 
ATOM      4  O   UNL     1     -11.808  11.567  66.776  0.00  0.00    -0.283 OA
ATOM      5  C   UNL     1     -11.894  13.923  66.955  0.00  0.00    +0.234 A 
ATOM      6  O   UNL     1     -12.801  14.034  65.896  0.00  0.00    -0.283 OA
ATOM      7  C   UNL     1     -11.610  15.049  67.721  0.00  0.00    +0.045 A 
ATOM      8  C   UNL     1     -11.475  14.947  69.102  0.00  0.00    -0.001 A 
ENDROOT
BRANCH   1   9
ATOM      9  C   UNL     1     -12.570  13.761  71.003  0.00  0.00    +0.057 C 
BRANCH   9  11
ATOM     10  N   UNL     1     -11.920  15.362  72.587  0.00  0.00    -0.120 NA
ATOM     11  CA  UNL     1     -12.799  15.401  71.245  0.00  0.00    +0.199 C 
BRANCH  11  12
ATOM     12  C   UNL     1     -14.182  15.114  72.084  0.00  0.00    +0.382 C 
ATOM     13  OXT UNL     1     -15.311  15.558  71.406  0.00  0.00    -0.244 OA
ATOM     14  O   UNL     1     -14.121  13.951  72.587  0.00  0.00    -0.244 OA
ENDBRANCH  11  12
ENDBRANCH   9  11
ENDBRANCH   1   9
TORSDOF 3
ENDMDL
MODEL 3
REMARK VINA RESULT:      -5.5      1.767      2.403
REMARK  Name = 
REMARK  3 active torsions:
REMARK  status: ('A' for Active; 'I' for Inactive)
REMARK    1  A    between atoms: CA_2  and  C_3
REMARK    2  A    between atoms: CA_2  and  C_12
REMARK    3  A    between atoms: C_3  and  C_4
REMARK                            x       y       z     vdW  Elec       q    Type
REMARK                         _______ _______ _______ _____ _____    ______ ____
ROOT
ATOM      1  C   UNL     1     -10.992  15.093  66.972  0.00  0.00    -0.017 A 
ATOM      2  C   UNL     1     -10.142  15.895  66.220  0.00  0.00    +0.041 A 
ATOM      3  C   UNL     1      -9.787  17.175  66.634  0.00  0.00    +0.234 A 
ATOM      4  O   UNL     1      -9.069  18.046  65.822  0.00  0.00    -0.283 OA
ATOM      5  C   UNL     1     -10.339  17.717  67.789  0.00  0.00    +0.234 A 
ATOM      6  O   UNL     1     -10.802  19.037  67.787  0.00  0.00    -0.283 OA
ATOM      7  C   UNL     1     -10.893  16.809  68.686  0.00  0.00    +0.045 A 
ATOM      8  C   UNL     1     -11.165  15.503  68.290  0.00  0.00    -0.001 A 
ENDROOT
BRANCH   1   9
ATOM      9  C   UNL     1     -12.077  14.306  66.301  0.00  0.00    +0.057 C 
BRANCH   9  11
ATOM     10  N   UNL     1     -12.593  14.496  64.023  0.00  0.00    -0.120 NA
ATOM     11  CA  UNL     1     -11.353  13.901  64.848  0.00  0.00    +0.199 C 
BRANCH  11  12
ATOM     12  C   UNL     1     -12.036  12.407  64.890  0.00  0.00    +0.382 C 
ATOM     13  OXT UNL     1     -12.058  11.874  66.173  0.00  0.00    -0.244 OA
ATOM     14  O   UNL     1     -13.067  12.408  64.151  0.00  0.00    -0.244 OA
ENDBRANCH  11  12
ENDBRANCH   9  11
ENDBRANCH   1   9
TORSDOF 3
ENDMDL
MODEL 4
REMARK VINA RESULT:      -5.4      2.511      5.666
REMARK  Name = 
REMARK  3 active torsions:
REMARK  status: ('A' for Active; 'I' for Inactive)
REMARK    1  A    between atoms: CA_2  and  C_3
REMARK    2  A    between atoms: CA_2  and  C_12
REMARK    3  A    between atoms: C_3  and  C_4
REMARK                            x       y       z     vdW  Elec       q    Type
REMARK                         _______ _______ _______ _____ _____    ______ ____
ROOT
ATOM      1  C   UNL     1     -11.336  15.035  67.600  0.00  0.00    -0.017 A 
ATOM      2  C   UNL     1     -11.996  14.310  66.615  0.00  0.00    +0.041 A 
ATOM      3  C   UNL     1     -11.845  14.605  65.264  0.00  0.00    +0.234 A 
ATOM      4  O   UNL     1     -12.615  13.996  64.279  0.00  0.00    -0.283 OA
ATOM      5  C   UNL     1     -11.078  15.694  64.865  0.00  0.00    +0.234 A 
ATOM      6  O   UNL     1     -11.556  16.557  63.873  0.00  0.00    -0.283 OA
ATOM      7  C   UNL     1     -10.174  16.181  65.803  0.00  0.00    +0.045 A 
ATOM      8  C   UNL     1     -10.277  15.811  67.140  0.00  0.00    -0.001 A 
ENDROOT
BRANCH   1   9
ATOM      9  C   UNL     1     -12.061  15.448  68.845  0.00  0.00    +0.057 C 
BRANCH   9  11
ATOM     10  N   UNL     1     -11.995  13.577  70.256  0.00  0.00    -0.120 NA
ATOM     11  CA  UNL     1     -11.049  14.854  70.039  0.00  0.00    +0.199 C 
BRANCH  11  12
ATOM     12  C   UNL     1     -11.855  15.708  71.188  0.00  0.00    +0.382 C 
ATOM     13  OXT UNL     1     -13.180  15.938  70.841  0.00  0.00    -0.244 OA
ATOM     14  O   UNL     1     -11.533  15.259  72.331  0.00  0.00    -0.244 OA
ENDBRANCH  11  12
ENDBRANCH   9  11
ENDBRANCH   1   9
TORSDOF 3
ENDMDL
MODEL 5
REMARK VINA RESULT:      -5.4      2.199      2.941
REMARK  Name = 
REMARK  3 active torsions:
REMARK  status: ('A' for Active; 'I' for Inactive)
REMARK    1  A    between atoms: CA_2  and  C_3
REMARK    2  A    between atoms: CA_2  and  C_12
REMARK    3  A    between atoms: C_3  and  C_4
REMARK                            x       y       z     vdW  Elec       q    Type
REMARK                         _______ _______ _______ _____ _____    ______ ____
ROOT
ATOM      1  C   UNL     1     -10.053  15.139  66.587  0.00  0.00    -0.017 A 
ATOM      2  C   UNL     1      -9.278  16.168  66.064  0.00  0.00    +0.041 A 
ATOM      3  C   UNL     1      -9.356  17.466  66.559  0.00  0.00    +0.234 A 
ATOM      4  O   UNL     1      -8.708  18.533  65.947  0.00  0.00    -0.283 OA
ATOM      5  C   UNL     1     -10.275  17.785  67.551  0.00  0.00    +0.234 A 
ATOM      6  O   UNL     1     -11.037  18.953  67.445  0.00  0.00    -0.283 OA
ATOM      7  C   UNL     1     -10.780  16.715  68.283  0.00  0.00    +0.045 A 
ATOM      8  C   UNL     1     -10.622  15.410  67.827  0.00  0.00    -0.001 A 
ENDROOT
BRANCH   1   9
ATOM      9  C   UNL     1     -10.725  14.161  65.671  0.00  0.00    +0.057 C 
BRANCH   9  11
ATOM     10  N   UNL     1     -11.886  12.290  66.474  0.00  0.00    -0.120 NA
ATOM     11  CA  UNL     1     -12.161  13.871  66.479  0.00  0.00    +0.199 C 
BRANCH  11  12
ATOM     12  C   UNL     1     -12.979  13.783  65.057  0.00  0.00    +0.382 C 
ATOM     13  OXT UNL     1     -12.534  14.722  64.135  0.00  0.00    -0.244 OA
ATOM     14  O   UNL     1     -13.127  12.561  64.746  0.00  0.00    -0.244 OA
ENDBRANCH  11  12
ENDBRANCH   9  11
ENDBRANCH   1   9
TORSDOF 3
ENDMDL
MODEL 6
REMARK VINA RESULT:      -5.3      2.580      5.119
REMARK  Name = 
REMARK  3 active torsions:
REMARK  status: ('A' for Active; 'I' for Inactive)
REMARK    1  A    between atoms: CA_2  and  C_3
REMARK    2  A    between atoms: CA_2  and  C_12
REMARK    3  A    between atoms: C_3  and  C_4
REMARK                            x       y       z     vdW  Elec       q    Type
REMARK                         _______ _______ _______ _____ _____    ______ ____
ROOT
ATOM      1  C   UNL     1     -11.462  13.467  66.392  0.00  0.00    -0.017 A 
ATOM      2  C   UNL     1     -12.399  13.261  65.386  0.00  0.00    +0.041 A 
ATOM      3  C   UNL     1     -12.261  12.233  64.458  0.00  0.00    +0.234 A 
ATOM      4  O   UNL     1     -13.100  12.110  63.356  0.00  0.00    -0.283 OA
ATOM      5  C   UNL     1     -11.130  11.424  64.470  0.00  0.00    +0.234 A 
ATOM      6  O   UNL     1     -10.484  11.113  63.269  0.00  0.00    -0.283 OA
ATOM      7  C   UNL     1     -10.397  11.415  65.652  0.00  0.00    +0.045 A 
ATOM      8  C   UNL     1     -10.603  12.397  66.617  0.00  0.00    -0.001 A 
ENDROOT
BRANCH   1   9
ATOM      9  C   UNL     1     -11.005  14.856  66.722  0.00  0.00    +0.057 C 
BRANCH   9  11
ATOM     10  N   UNL     1      -8.861  15.720  66.335  0.00  0.00    -0.120 NA
ATOM     11  CA  UNL     1     -10.062  15.228  65.391  0.00  0.00    +0.199 C 
BRANCH  11  12
ATOM     12  C   UNL     1     -10.697  16.742  65.328  0.00  0.00    +0.382 C 
ATOM     13  OXT UNL     1      -9.803  17.707  65.776  0.00  0.00    -0.244 OA
ATOM     14  O   UNL     1     -11.328  16.875  64.235  0.00  0.00    -0.244 OA
ENDBRANCH  11  12
ENDBRANCH   9  11
ENDBRANCH   1   9
TORSDOF 3
ENDMDL
MODEL 7
REMARK VINA RESULT:      -5.2      4.675      7.137
REMARK  Name = 
REMARK  3 active torsions:
REMARK  status: ('A' for Active; 'I' for Inactive)
REMARK    1  A    between atoms: CA_2  and  C_3
REMARK    2  A    between atoms: CA_2  and  C_12
REMARK    3  A    between atoms: C_3  and  C_4
REMARK                            x       y       z     vdW  Elec       q    Type
REMARK                         _______ _______ _______ _____ _____    ______ ____
ROOT
ATOM      1  C   UNL     1     -12.613  12.415  70.743  0.00  0.00    -0.017 A 
ATOM      2  C   UNL     1     -11.773  11.980  69.724  0.00  0.00    +0.041 A 
ATOM      3  C   UNL     1     -11.192  10.716  69.744  0.00  0.00    +0.234 A 
ATOM      4  O   UNL     1     -10.231  10.326  68.819  0.00  0.00    -0.283 OA
ATOM      5  C   UNL     1     -11.381   9.875  70.835  0.00  0.00    +0.234 A 
ATOM      6  O   UNL     1     -10.295   9.178  71.373  0.00  0.00    -0.283 OA
ATOM      7  C   UNL     1     -12.465  10.171  71.654  0.00  0.00    +0.045 A 
ATOM      8  C   UNL     1     -13.099  11.406  71.568  0.00  0.00    -0.001 A 
ENDROOT
BRANCH   1   9
ATOM      9  C   UNL     1     -12.481  13.806  71.286  0.00  0.00    +0.057 C 
BRANCH   9  11
ATOM     10  N   UNL     1     -14.603  14.749  71.606  0.00  0.00    -0.120 NA
ATOM     11  CA  UNL     1     -13.645  13.813  72.488  0.00  0.00    +0.199 C 
BRANCH  11  12
ATOM     12  C   UNL     1     -12.944  15.117  73.201  0.00  0.00    +0.382 C 
ATOM     13  OXT UNL     1     -13.812  16.198  73.288  0.00  0.00    -0.244 OA
ATOM     14  O   UNL     1     -12.268  14.722  74.200  0.00  0.00    -0.244 OA
ENDBRANCH  11  12
ENDBRANCH   9  11
ENDBRANCH   1   9
TORSDOF 3
ENDMDL
MODEL 8
REMARK VINA RESULT:      -5.1      2.550      5.276
REMARK  Name = 
REMARK  3 active torsions:
REMARK  status: ('A' for Active; 'I' for Inactive)
REMARK    1  A    between atoms: CA_2  and  C_3
REMARK    2  A    between atoms: CA_2  and  C_12
REMARK    3  A    between atoms: C_3  and  C_4
REMARK                            x       y       z     vdW  Elec       q    Type
REMARK                         _______ _______ _______ _____ _____    ______ ____
ROOT
ATOM      1  C   UNL     1     -10.442  14.862  66.688  0.00  0.00    -0.017 A 
ATOM      2  C   UNL     1     -10.833  13.671  67.287  0.00  0.00    +0.041 A 
ATOM      3  C   UNL     1     -11.504  12.681  66.576  0.00  0.00    +0.234 A 
ATOM      4  O   UNL     1     -12.039  11.556  67.193  0.00  0.00    -0.283 OA
ATOM      5  C   UNL     1     -11.868  12.893  65.251  0.00  0.00    +0.234 A 
ATOM      6  O   UNL     1     -13.148  12.535  64.815  0.00  0.00    -0.283 OA
ATOM      7  C   UNL     1     -11.189  13.908  64.585  0.00  0.00    +0.045 A 
ATOM      8  C   UNL     1     -10.446  14.845  65.297  0.00  0.00    -0.001 A 
ENDROOT
BRANCH   1   9
ATOM      9  C   UNL     1     -10.634  16.165  67.405  0.00  0.00    +0.057 C 
BRANCH   9  11
ATOM     10  N   UNL     1      -8.962  17.402  68.486  0.00  0.00    -0.120 NA
ATOM     11  CA  UNL     1      -9.257  17.004  66.960  0.00  0.00    +0.199 C 
BRANCH  11  12
ATOM     12  C   UNL     1     -10.132  18.374  66.721  0.00  0.00    +0.382 C 
ATOM     13  OXT UNL     1     -10.663  18.442  65.439  0.00  0.00    -0.244 OA
ATOM     14  O   UNL     1     -10.843  18.588  67.749  0.00  0.00    -0.244 OA
ENDBRANCH  11  12
ENDBRANCH   9  11
ENDBRANCH   1   9
TORSDOF 3
ENDMDL
MODEL 9
REMARK VINA RESULT:      -5.1      2.875      4.840
REMARK  Name = 
REMARK  3 active torsions:
REMARK  status: ('A' for Active; 'I' for Inactive)
REMARK    1  A    between atoms: CA_2  and  C_3
REMARK    2  A    between atoms: CA_2  and  C_12
REMARK    3  A    between atoms: C_3  and  C_4
REMARK                            x       y       z     vdW  Elec       q    Type
REMARK                         _______ _______ _______ _____ _____    ______ ____
ROOT
ATOM      1  C   UNL     1     -11.277  13.353  66.895  0.00  0.00    -0.017 A 
ATOM      2  C   UNL     1     -12.124  13.619  65.826  0.00  0.00    +0.041 A 
ATOM      3  C   UNL     1     -11.826  14.595  64.881  0.00  0.00    +0.234 A 
ATOM      4  O   UNL     1     -12.732  14.981  63.900  0.00  0.00    -0.283 OA
ATOM      5  C   UNL     1     -10.695  15.390  65.027  0.00  0.00    +0.234 A 
ATOM      6  O   UNL     1     -10.780  16.770  64.814  0.00  0.00    -0.283 OA
ATOM      7  C   UNL     1      -9.708  14.899  65.876  0.00  0.00    +0.045 A 
ATOM      8  C   UNL     1      -9.989  13.860  66.758  0.00  0.00    -0.001 A 
ENDROOT
BRANCH   1   9
ATOM      9  C   UNL     1     -11.839  13.143  68.269  0.00  0.00    +0.057 C 
BRANCH   9  11
ATOM     10  N   UNL     1     -11.804  10.832  67.879  0.00  0.00    -0.120 NA
ATOM     11  CA  UNL     1     -10.951  11.829  68.802  0.00  0.00    +0.199 C 
BRANCH  11  12
ATOM     12  C   UNL     1     -11.976  11.612  70.068  0.00  0.00    +0.382 C 
ATOM     13  OXT UNL     1     -11.630  10.511  70.842  0.00  0.00    -0.244 OA
ATOM     14  O   UNL     1     -12.226  12.742  70.589  0.00  0.00    -0.244 OA
ENDBRANCH  11  12
ENDBRANCH   9  11
ENDBRANCH   1   9
TORSDOF 3
ENDMDL
