MODEL 1
REMARK VINA RESULT:      -7.0      0.000      0.000
REMARK  Name = 
REMARK  7 active torsions:
REMARK  status: ('A' for Active; 'I' for Inactive)
REMARK    1  A    between atoms: O_2  and  C_3
REMARK    2  A    between atoms: N_8  and  C_10
REMARK    3  A    between atoms: C_10  and  C_11
REMARK    4  A    between atoms: C_11  and  C_12
REMARK    5  A    between atoms: C_12  and  N_13
REMARK    6  A    between atoms: C_14  and  C_16
REMARK    7  A    between atoms: C_26  and  O_27
REMARK                            x       y       z     vdW  Elec       q    Type
REMARK                         _______ _______ _______ _____ _____    ______ ____
ROOT
ATOM      1  C   UNL     1     -11.807   9.129  71.010  0.00  0.00    +0.174 A 
ATOM      2  C   UNL     1     -12.831   9.837  71.628  0.00  0.00    +0.173 A 
ATOM      3  C   UNL     1     -12.872  11.225  71.595  0.00  0.00    +0.044 A 
ATOM      4  C   UNL     1     -12.105  11.833  70.608  0.00  0.00    +0.056 A 
ATOM      5  C   UNL     1     -11.305  11.098  69.742  0.00  0.00    +0.090 A 
ATOM      6  N   UNL     1     -11.099  11.624  68.516  0.00  0.00    -0.213 NA
ATOM      7  C   UNL     1     -11.823  12.689  68.088  0.00  0.00    +0.221 A 
ATOM      8  N   UNL     1     -12.098  13.603  69.054  0.00  0.00    -0.195 NA
ATOM      9  N   UNL     1     -11.327  13.234  66.856  0.00  0.00    -0.276 N 
ATOM     10  C   UNL     1     -11.514  12.436  65.648  0.00  0.00    +0.115 C 
ATOM     11  C   UNL     1     -12.325  13.176  70.321  0.00  0.00    +0.174 A 
ATOM     12  N   UNL     1     -12.739  14.042  71.360  0.00  0.00    -0.107 NA
ATOM     13  C   UNL     1     -11.099   9.745  69.987  0.00  0.00    +0.059 A 
ENDROOT
BRANCH   1  15
ATOM     14  C   UNL     1     -11.405   6.770  70.694  0.00  0.00    +0.253 C 
ATOM     15  O   UNL     1     -11.405   7.914  71.520  0.00  0.00    -0.468 OA
ENDBRANCH   1  15
BRANCH   2  16
ATOM     16  O   UNL     1     -13.872   9.130  72.187  0.00  0.00    -0.468 OA
ATOM     17  C   UNL     1     -14.680   8.307  71.377  0.00  0.00    +0.253 C 
ENDBRANCH   2  16
BRANCH   9  18
ATOM     18  C   UNL     1     -10.128  14.039  67.084  0.00  0.00    +0.095 C 
BRANCH  18  19
ATOM     19  C   UNL     1      -9.746  14.761  65.816  0.00  0.00    +0.045 C 
BRANCH  19  20
ATOM     20  C   UNL     1     -10.685  15.954  65.666  0.00  0.00    +0.117 C 
BRANCH  20  21
ATOM     21  N   UNL     1      -9.864  17.124  65.975  0.00  0.00    -0.203 NA
ATOM     22  C   UNL     1     -10.487  18.031  66.879  0.00  0.00    +0.269 C 
ATOM     23  O   UNL     1     -10.909  17.622  67.964  0.00  0.00    -0.271 OA
BRANCH  22  24
ATOM     24  C   UNL     1      -9.879  19.534  66.852  0.00  0.00    +0.193 C 
ATOM     25  O   UNL     1      -8.550  19.063  66.277  0.00  0.00    -0.347 OA
ATOM     26  C   UNL     1      -7.658  19.833  66.985  0.00  0.00    +0.143 C 
ATOM     27  C   UNL     1      -7.951  19.195  68.340  0.00  0.00    +0.035 C 
ATOM     28  C   UNL     1      -9.397  19.423  68.428  0.00  0.00    +0.042 C 
ENDBRANCH  22  24
ENDBRANCH  20  21
ENDBRANCH  19  20
ENDBRANCH  18  19
ENDBRANCH   9  18
TORSDOF 7
ENDMDL
MODEL 2
REMARK VINA RESULT:      -6.9      3.224      5.460
REMARK  Name = 
REMARK  7 active torsions:
REMARK  status: ('A' for Active; 'I' for Inactive)
REMARK    1  A    between atoms: O_2  and  C_3
REMARK    2  A    between atoms: N_8  and  C_10
REMARK    3  A    between atoms: C_10  and  C_11
REMARK    4  A    between atoms: C_11  and  C_12
REMARK    5  A    between atoms: C_12  and  N_13
REMARK    6  A    between atoms: C_14  and  C_16
REMARK    7  A    between atoms: C_26  and  O_27
REMARK                            x       y       z     vdW  Elec       q    Type
REMARK                         _______ _______ _______ _____ _____    ______ ____
ROOT
ATOM      1  C   UNL     1     -11.213  12.042  66.599  0.00  0.00    +0.174 A 
ATOM      2  C   UNL     1     -11.111  12.314  65.240  0.00  0.00    +0.173 A 
ATOM      3  C   UNL     1     -11.239  13.608  64.749  0.00  0.00    +0.044 A 
ATOM      4  C   UNL     1     -11.069  14.630  65.676  0.00  0.00    +0.056 A 
ATOM      5  C   UNL     1     -10.835  14.370  67.021  0.00  0.00    +0.090 A 
ATOM      6  N   UNL     1     -10.111  15.288  67.697  0.00  0.00    -0.213 NA
ATOM      7  C   UNL     1      -9.460  16.280  67.038  0.00  0.00    +0.221 A 
ATOM      8  N   UNL     1     -10.130  16.771  65.964  0.00  0.00    -0.195 NA
ATOM      9  N   UNL     1      -8.921  17.271  67.927  0.00  0.00    -0.276 N 
ATOM     10  C   UNL     1      -7.787  16.878  68.757  0.00  0.00    +0.115 C 
ATOM     11  C   UNL     1     -10.884  15.928  65.215  0.00  0.00    +0.174 A 
ATOM     12  N   UNL     1     -11.513  16.326  64.011  0.00  0.00    -0.107 NA
ATOM     13  C   UNL     1     -10.977  13.073  67.500  0.00  0.00    +0.059 A 
ENDROOT
BRANCH   1  15
ATOM     14  C   UNL     1     -10.824   9.883  67.604  0.00  0.00    +0.253 C 
ATOM     15  O   UNL     1     -11.699  10.826  67.024  0.00  0.00    -0.468 OA
ENDBRANCH   1  15
BRANCH   2  16
ATOM     16  O   UNL     1     -10.771  11.286  64.390  0.00  0.00    -0.468 OA
ATOM     17  C   UNL     1     -10.015  11.551  63.230  0.00  0.00    +0.253 C 
ENDBRANCH   2  16
BRANCH   9  18
ATOM     18  C   UNL     1      -9.969  18.169  68.407  0.00  0.00    +0.095 C 
BRANCH  18  19
ATOM     19  C   UNL     1      -9.447  19.582  68.465  0.00  0.00    +0.045 C 
BRANCH  19  20
ATOM     20  C   UNL     1      -9.368  20.101  67.033  0.00  0.00    +0.117 C 
BRANCH  20  21
ATOM     21  N   UNL     1      -8.026  20.669  66.908  0.00  0.00    -0.203 NA
ATOM     22  C   UNL     1      -7.057  19.735  66.442  0.00  0.00    +0.269 C 
ATOM     23  O   UNL     1      -7.258  19.116  65.393  0.00  0.00    -0.271 OA
BRANCH  22  24
ATOM     24  C   UNL     1      -5.521  20.139  66.768  0.00  0.00    +0.193 C 
ATOM     25  O   UNL     1      -5.220  18.780  67.387  0.00  0.00    -0.347 OA
ATOM     26  C   UNL     1      -4.450  19.136  68.468  0.00  0.00    +0.143 C 
ATOM     27  C   UNL     1      -5.563  19.867  69.212  0.00  0.00    +0.035 C 
ATOM     28  C   UNL     1      -5.955  20.848  68.195  0.00  0.00    +0.042 C 
ENDBRANCH  22  24
ENDBRANCH  20  21
ENDBRANCH  19  20
ENDBRANCH  18  19
ENDBRANCH   9  18
TORSDOF 7
ENDMDL
MODEL 3
REMARK VINA RESULT:      -6.8      3.758      8.588
REMARK  Name = 
REMARK  7 active torsions:
REMARK  status: ('A' for Active; 'I' for Inactive)
REMARK    1  A    between atoms: O_2  and  C_3
REMARK    2  A    between atoms: N_8  and  C_10
REMARK    3  A    between atoms: C_10  and  C_11
REMARK    4  A    between atoms: C_11  and  C_12
REMARK    5  A    between atoms: C_12  and  N_13
REMARK    6  A    between atoms: C_14  and  C_16
REMARK    7  A    between atoms: C_26  and  O_27
REMARK                            x       y       z     vdW  Elec       q    Type
REMARK                         _______ _______ _______ _____ _____    ______ ____
ROOT
ATOM      1  C   UNL     1      -5.161  17.398  70.440  0.00  0.00    +0.174 A 
ATOM      2  C   UNL     1      -5.195  18.773  70.636  0.00  0.00    +0.173 A 
ATOM      3  C   UNL     1      -5.805  19.620  69.720  0.00  0.00    +0.044 A 
ATOM      4  C   UNL     1      -6.703  19.022  68.842  0.00  0.00    +0.056 A 
ATOM      5  C   UNL     1      -6.934  17.652  68.850  0.00  0.00    +0.090 A 
ATOM      6  N   UNL     1      -8.161  17.244  68.458  0.00  0.00    -0.213 NA
ATOM      7  C   UNL     1      -9.168  18.138  68.293  0.00  0.00    +0.221 A 
ATOM      8  N   UNL     1      -8.780  19.330  67.775  0.00  0.00    -0.195 NA
ATOM      9  N   UNL     1     -10.328  17.554  67.679  0.00  0.00    -0.276 N 
ATOM     10  C   UNL     1     -11.102  16.607  68.476  0.00  0.00    +0.115 C 
ATOM     11  C   UNL     1      -7.564  19.831  68.110  0.00  0.00    +0.174 A 
ATOM     12  N   UNL     1      -7.130  21.119  67.718  0.00  0.00    -0.107 NA
ATOM     13  C   UNL     1      -6.110  16.824  69.603  0.00  0.00    +0.059 A 
ENDROOT
BRANCH   1  15
ATOM     14  C   UNL     1      -3.333  15.869  70.056  0.00  0.00    +0.253 C 
ATOM     15  O   UNL     1      -4.109  16.658  70.932  0.00  0.00    -0.468 OA
ENDBRANCH   1  15
BRANCH   2  16
ATOM     16  O   UNL     1      -4.704  19.278  71.819  0.00  0.00    -0.468 OA
ATOM     17  C   UNL     1      -4.307  20.628  71.898  0.00  0.00    +0.253 C 
ENDBRANCH   2  16
BRANCH   9  18
ATOM     18  C   UNL     1     -10.132  17.390  66.240  0.00  0.00    +0.095 C 
BRANCH  18  19
ATOM     19  C   UNL     1      -9.947  15.929  65.912  0.00  0.00    +0.045 C 
BRANCH  19  20
ATOM     20  C   UNL     1     -10.969  15.568  64.839  0.00  0.00    +0.117 C 
BRANCH  20  21
ATOM     21  N   UNL     1     -10.853  14.119  64.676  0.00  0.00    -0.203 NA
ATOM     22  C   UNL     1     -11.858  13.389  65.373  0.00  0.00    +0.269 C 
ATOM     23  O   UNL     1     -13.049  13.653  65.185  0.00  0.00    -0.271 OA
BRANCH  22  24
ATOM     24  C   UNL     1     -11.490  11.834  65.651  0.00  0.00    +0.193 C 
ATOM     25  O   UNL     1     -12.028  11.887  67.074  0.00  0.00    -0.347 OA
ATOM     26  C   UNL     1     -11.084  11.150  67.750  0.00  0.00    +0.143 C 
ATOM     27  C   UNL     1      -9.941  12.137  67.537  0.00  0.00    +0.035 C 
ATOM     28  C   UNL     1      -9.941  12.222  66.072  0.00  0.00    +0.042 C 
ENDBRANCH  22  24
ENDBRANCH  20  21
ENDBRANCH  19  20
ENDBRANCH  18  19
ENDBRANCH   9  18
TORSDOF 7
ENDMDL
MODEL 4
REMARK VINA RESULT:      -6.7      2.891      4.161
REMARK  Name = 
REMARK  7 active torsions:
REMARK  status: ('A' for Active; 'I' for Inactive)
REMARK    1  A    between atoms: O_2  and  C_3
REMARK    2  A    between atoms: N_8  and  C_10
REMARK    3  A    between atoms: C_10  and  C_11
REMARK    4  A    between atoms: C_11  and  C_12
REMARK    5  A    between atoms: C_12  and  N_13
REMARK    6  A    between atoms: C_14  and  C_16
REMARK    7  A    between atoms: C_26  and  O_27
REMARK                            x       y       z     vdW  Elec       q    Type
REMARK                         _______ _______ _______ _____ _____    ______ ____
ROOT
ATOM      1  C   UNL     1     -11.441   7.660  71.851  0.00  0.00    +0.174 A 
ATOM      2  C   UNL     1     -12.689   8.270  71.881  0.00  0.00    +0.173 A 
ATOM      3  C   UNL     1     -12.839   9.625  71.611  0.00  0.00    +0.044 A 
ATOM      4  C   UNL     1     -11.787  10.230  70.935  0.00  0.00    +0.056 A 
ATOM      5  C   UNL     1     -10.634   9.533  70.595  0.00  0.00    +0.090 A 
ATOM      6  N   UNL     1      -9.979   9.948  69.489  0.00  0.00    -0.213 NA
ATOM      7  C   UNL     1     -10.551  10.840  68.640  0.00  0.00    +0.221 A 
ATOM      8  N   UNL     1     -11.288  11.802  69.252  0.00  0.00    -0.195 NA
ATOM      9  N   UNL     1      -9.634  11.317  67.643  0.00  0.00    -0.276 N 
ATOM     10  C   UNL     1      -9.223  10.373  66.608  0.00  0.00    +0.115 C 
ATOM     11  C   UNL     1     -11.987  11.485  70.372  0.00  0.00    +0.174 A 
ATOM     12  N   UNL     1     -12.877  12.388  71.001  0.00  0.00    -0.107 NA
ATOM     13  C   UNL     1     -10.427   8.261  71.116  0.00  0.00    +0.059 A 
ENDROOT
BRANCH   1  15
ATOM     14  C   UNL     1     -10.277   6.714  73.742  0.00  0.00    +0.253 C 
ATOM     15  O   UNL     1     -11.182   6.582  72.667  0.00  0.00    -0.468 OA
ENDBRANCH   1  15
BRANCH   2  16
ATOM     16  O   UNL     1     -13.800   7.480  72.078  0.00  0.00    -0.468 OA
ATOM     17  C   UNL     1     -15.074   7.947  71.696  0.00  0.00    +0.253 C 
ENDBRANCH   2  16
BRANCH   9  18
ATOM     18  C   UNL     1      -8.721  12.311  68.202  0.00  0.00    +0.095 C 
BRANCH  18  19
ATOM     19  C   UNL     1      -8.578  13.470  67.248  0.00  0.00    +0.045 C 
BRANCH  19  20
ATOM     20  C   UNL     1      -9.689  14.466  67.565  0.00  0.00    +0.117 C 
BRANCH  20  21
ATOM     21  N   UNL     1     -10.294  14.783  66.272  0.00  0.00    -0.203 NA
ATOM     22  C   UNL     1     -11.410  13.958  65.952  0.00  0.00    +0.269 C 
ATOM     23  O   UNL     1     -12.349  13.861  66.747  0.00  0.00    -0.271 OA
BRANCH  22  24
ATOM     24  C   UNL     1     -11.782  13.910  64.374  0.00  0.00    +0.193 C 
ATOM     25  O   UNL     1     -12.848  12.843  64.584  0.00  0.00    -0.347 OA
ATOM     26  C   UNL     1     -12.640  12.032  63.494  0.00  0.00    +0.143 C 
ATOM     27  C   UNL     1     -11.259  11.549  63.927  0.00  0.00    +0.035 C 
ATOM     28  C   UNL     1     -10.566  12.835  64.066  0.00  0.00    +0.042 C 
ENDBRANCH  22  24
ENDBRANCH  20  21
ENDBRANCH  19  20
ENDBRANCH  18  19
ENDBRANCH   9  18
TORSDOF 7
ENDMDL
MODEL 5
REMARK VINA RESULT:      -6.7      3.119      7.822
REMARK  Name = 
REMARK  7 active torsions:
REMARK  status: ('A' for Active; 'I' for Inactive)
REMARK    1  A    between atoms: O_2  and  C_3
REMARK    2  A    between atoms: N_8  and  C_10
REMARK    3  A    between atoms: C_10  and  C_11
REMARK    4  A    between atoms: C_11  and  C_12
REMARK    5  A    between atoms: C_12  and  N_13
REMARK    6  A    between atoms: C_14  and  C_16
REMARK    7  A    between atoms: C_26  and  O_27
REMARK                            x       y       z     vdW  Elec       q    Type
REMARK                         _______ _______ _______ _____ _____    ______ ____
ROOT
ATOM      1  C   UNL     1      -6.222  17.300  68.784  0.00  0.00    +0.174 A 
ATOM      2  C   UNL     1      -6.700  18.512  68.301  0.00  0.00    +0.173 A 
ATOM      3  C   UNL     1      -7.961  18.615  67.726  0.00  0.00    +0.044 A 
ATOM      4  C   UNL     1      -8.848  17.586  68.017  0.00  0.00    +0.056 A 
ATOM      5  C   UNL     1      -8.478  16.495  68.794  0.00  0.00    +0.090 A 
ATOM      6  N   UNL     1      -9.459  15.903  69.510  0.00  0.00    -0.213 NA
ATOM      7  C   UNL     1     -10.676  16.489  69.636  0.00  0.00    +0.221 A 
ATOM      8  N   UNL     1     -11.105  17.134  68.521  0.00  0.00    -0.195 NA
ATOM      9  N   UNL     1     -11.644  15.625  70.251  0.00  0.00    -0.276 N 
ATOM     10  C   UNL     1     -11.474  15.334  71.671  0.00  0.00    +0.115 C 
ATOM     11  C   UNL     1     -10.197  17.765  67.734  0.00  0.00    +0.174 A 
ATOM     12  N   UNL     1     -10.567  18.564  66.625  0.00  0.00    -0.107 NA
ATOM     13  C   UNL     1      -7.140  16.313  69.122  0.00  0.00    +0.059 A 
ENDROOT
BRANCH   1  15
ATOM     14  C   UNL     1      -4.234  16.546  69.925  0.00  0.00    +0.253 C 
ATOM     15  O   UNL     1      -4.871  17.035  68.765  0.00  0.00    -0.468 OA
ENDBRANCH   1  15
BRANCH   2  16
ATOM     16  O   UNL     1      -5.939  19.642  68.500  0.00  0.00    -0.468 OA
ATOM     17  C   UNL     1      -5.960  20.294  69.750  0.00  0.00    +0.253 C 
ENDBRANCH   2  16
BRANCH   9  18
ATOM     18  C   UNL     1     -12.134  14.628  69.301  0.00  0.00    +0.095 C 
BRANCH  18  19
ATOM     19  C   UNL     1     -11.992  13.246  69.889  0.00  0.00    +0.045 C 
BRANCH  19  20
ATOM     20  C   UNL     1     -11.505  12.322  68.778  0.00  0.00    +0.117 C 
BRANCH  20  21
ATOM     21  N   UNL     1     -11.245  13.202  67.640  0.00  0.00    -0.203 NA
ATOM     22  C   UNL     1     -11.129  12.507  66.401  0.00  0.00    +0.269 C 
ATOM     23  O   UNL     1     -12.031  11.747  66.039  0.00  0.00    -0.271 OA
BRANCH  22  24
ATOM     24  C   UNL     1     -10.354  13.329  65.238  0.00  0.00    +0.193 C 
ATOM     25  O   UNL     1     -10.611  14.669  65.913  0.00  0.00    -0.347 OA
ATOM     26  C   UNL     1     -10.909  15.466  64.834  0.00  0.00    +0.143 C 
ATOM     27  C   UNL     1     -12.208  14.753  64.473  0.00  0.00    +0.035 C 
ATOM     28  C   UNL     1     -11.713  13.383  64.299  0.00  0.00    +0.042 C 
ENDBRANCH  22  24
ENDBRANCH  20  21
ENDBRANCH  19  20
ENDBRANCH  18  19
ENDBRANCH   9  18
TORSDOF 7
ENDMDL
MODEL 6
REMARK VINA RESULT:      -6.7      3.575      6.313
REMARK  Name = 
REMARK  7 active torsions:
REMARK  status: ('A' for Active; 'I' for Inactive)
REMARK    1  A    between atoms: O_2  and  C_3
REMARK    2  A    between atoms: N_8  and  C_10
REMARK    3  A    between atoms: C_10  and  C_11
REMARK    4  A    between atoms: C_11  and  C_12
REMARK    5  A    between atoms: C_12  and  N_13
REMARK    6  A    between atoms: C_14  and  C_16
REMARK    7  A    between atoms: C_26  and  O_27
REMARK                            x       y       z     vdW  Elec       q    Type
REMARK                         _______ _______ _______ _____ _____    ______ ____
ROOT
ATOM      1  C   UNL     1      -9.551  10.974  65.961  0.00  0.00    +0.174 A 
ATOM      2  C   UNL     1     -10.072  11.049  64.675  0.00  0.00    +0.173 A 
ATOM      3  C   UNL     1     -10.906  12.092  64.291  0.00  0.00    +0.044 A 
ATOM      4  C   UNL     1     -10.865  13.228  65.091  0.00  0.00    +0.056 A 
ATOM      5  C   UNL     1     -10.077  13.295  66.233  0.00  0.00    +0.090 A 
ATOM      6  N   UNL     1      -9.623  14.518  66.584  0.00  0.00    -0.213 NA
ATOM      7  C   UNL     1      -9.743  15.571  65.736  0.00  0.00    +0.221 A 
ATOM      8  N   UNL     1     -10.894  15.583  65.018  0.00  0.00    -0.195 NA
ATOM      9  N   UNL     1      -9.397  16.820  66.356  0.00  0.00    -0.276 N 
ATOM     10  C   UNL     1      -7.989  17.043  66.670  0.00  0.00    +0.115 C 
ATOM     11  C   UNL     1     -11.431  14.404  64.613  0.00  0.00    +0.174 A 
ATOM     12  N   UNL     1     -12.556  14.328  63.757  0.00  0.00    -0.107 NA
ATOM     13  C   UNL     1      -9.470  12.140  66.712  0.00  0.00    +0.059 A 
ENDROOT
BRANCH   1  15
ATOM     14  C   UNL     1      -9.168   9.627  67.927  0.00  0.00    +0.253 C 
ATOM     15  O   UNL     1      -9.284   9.747  66.526  0.00  0.00    -0.468 OA
ENDBRANCH   1  15
BRANCH   2  16
ATOM     16  O   UNL     1      -9.658  10.122  63.746  0.00  0.00    -0.468 OA
ATOM     17  C   UNL     1      -9.347  10.530  62.433  0.00  0.00    +0.253 C 
ENDBRANCH   2  16
BRANCH   9  18
ATOM     18  C   UNL     1     -10.476  17.291  67.221  0.00  0.00    +0.095 C 
BRANCH  18  19
ATOM     19  C   UNL     1     -10.398  16.602  68.561  0.00  0.00    +0.045 C 
BRANCH  19  20
ATOM     20  C   UNL     1     -11.694  15.821  68.751  0.00  0.00    +0.117 C 
BRANCH  20  21
ATOM     21  N   UNL     1     -12.058  16.026  70.153  0.00  0.00    -0.203 NA
ATOM     22  C   UNL     1     -12.949  15.036  70.657  0.00  0.00    +0.269 C 
ATOM     23  O   UNL     1     -12.657  13.841  70.558  0.00  0.00    -0.271 OA
BRANCH  22  24
ATOM     24  C   UNL     1     -13.767  15.479  71.985  0.00  0.00    +0.193 C 
ATOM     25  O   UNL     1     -12.679  16.451  72.419  0.00  0.00    -0.347 OA
ATOM     26  C   UNL     1     -12.646  16.237  73.776  0.00  0.00    +0.143 C 
ATOM     27  C   UNL     1     -12.128  14.805  73.690  0.00  0.00    +0.035 C 
ATOM     28  C   UNL     1     -13.166  14.203  72.845  0.00  0.00    +0.042 C 
ENDBRANCH  22  24
ENDBRANCH  20  21
ENDBRANCH  19  20
ENDBRANCH  18  19
ENDBRANCH   9  18
TORSDOF 7
ENDMDL
MODEL 7
REMARK VINA RESULT:      -6.5      3.323      5.851
REMARK  Name = 
REMARK  7 active torsions:
REMARK  status: ('A' for Active; 'I' for Inactive)
REMARK    1  A    between atoms: O_2  and  C_3
REMARK    2  A    between atoms: N_8  and  C_10
REMARK    3  A    between atoms: C_10  and  C_11
REMARK    4  A    between atoms: C_11  and  C_12
REMARK    5  A    between atoms: C_12  and  N_13
REMARK    6  A    between atoms: C_14  and  C_16
REMARK    7  A    between atoms: C_26  and  O_27
REMARK                            x       y       z     vdW  Elec       q    Type
REMARK                         _______ _______ _______ _____ _____    ______ ____
ROOT
ATOM      1  C   UNL     1     -11.413  12.555  66.940  0.00  0.00    +0.174 A 
ATOM      2  C   UNL     1     -11.549  12.828  65.584  0.00  0.00    +0.173 A 
ATOM      3  C   UNL     1     -11.473  14.126  65.096  0.00  0.00    +0.044 A 
ATOM      4  C   UNL     1     -10.868  15.056  65.934  0.00  0.00    +0.056 A 
ATOM      5  C   UNL     1     -10.415  14.717  67.203  0.00  0.00    +0.090 A 
ATOM      6  N   UNL     1      -9.366  15.422  67.679  0.00  0.00    -0.213 NA
ATOM      7  C   UNL     1      -8.659  16.247  66.865  0.00  0.00    +0.221 A 
ATOM      8  N   UNL     1      -9.411  16.908  65.949  0.00  0.00    -0.195 NA
ATOM      9  N   UNL     1      -7.721  17.061  67.586  0.00  0.00    -0.276 N 
ATOM     10  C   UNL     1      -6.558  16.392  68.161  0.00  0.00    +0.115 C 
ATOM     11  C   UNL     1     -10.488  16.285  65.406  0.00  0.00    +0.174 A 
ATOM     12  N   UNL     1     -11.252  16.849  64.357  0.00  0.00    -0.107 NA
ATOM     13  C   UNL     1     -10.751  13.479  67.739  0.00  0.00    +0.059 A 
ENDROOT
BRANCH   1  15
ATOM     14  C   UNL     1     -11.342  10.514  68.226  0.00  0.00    +0.253 C 
ATOM     15  O   UNL     1     -12.068  11.479  67.496  0.00  0.00    -0.468 OA
ENDBRANCH   1  15
BRANCH   2  16
ATOM     16  O   UNL     1     -11.655  11.769  64.711  0.00  0.00    -0.468 OA
ATOM     17  C   UNL     1     -10.539  10.943  64.467  0.00  0.00    +0.253 C 
ENDBRANCH   2  16
BRANCH   9  18
ATOM     18  C   UNL     1      -8.397  18.169  68.257  0.00  0.00    +0.095 C 
BRANCH  18  19
ATOM     19  C   UNL     1      -7.871  19.483  67.734  0.00  0.00    +0.045 C 
BRANCH  19  20
ATOM     20  C   UNL     1      -6.833  19.990  68.729  0.00  0.00    +0.117 C 
BRANCH  20  21
ATOM     21  N   UNL     1      -5.549  19.847  68.044  0.00  0.00    -0.203 NA
ATOM     22  C   UNL     1      -5.430  20.669  66.887  0.00  0.00    +0.269 C 
ATOM     23  O   UNL     1      -5.629  21.884  66.976  0.00  0.00    -0.271 OA
BRANCH  22  24
ATOM     24  C   UNL     1      -4.292  20.191  65.835  0.00  0.00    +0.193 C 
ATOM     25  O   UNL     1      -4.742  21.195  64.783  0.00  0.00    -0.347 OA
ATOM     26  C   UNL     1      -4.642  20.449  63.632  0.00  0.00    +0.143 C 
ATOM     27  C   UNL     1      -5.752  19.468  63.993  0.00  0.00    +0.035 C 
ATOM     28  C   UNL     1      -5.250  18.966  65.277  0.00  0.00    +0.042 C 
ENDBRANCH  22  24
ENDBRANCH  20  21
ENDBRANCH  19  20
ENDBRANCH  18  19
ENDBRANCH   9  18
TORSDOF 7
ENDMDL
MODEL 8
REMARK VINA RESULT:      -6.4      3.563      5.998
REMARK  Name = 
REMARK  7 active torsions:
REMARK  status: ('A' for Active; 'I' for Inactive)
REMARK    1  A    between atoms: O_2  and  C_3
REMARK    2  A    between atoms: N_8  and  C_10
REMARK    3  A    between atoms: C_10  and  C_11
REMARK    4  A    between atoms: C_11  and  C_12
REMARK    5  A    between atoms: C_12  and  N_13
REMARK    6  A    between atoms: C_14  and  C_16
REMARK    7  A    between atoms: C_26  and  O_27
REMARK                            x       y       z     vdW  Elec       q    Type
REMARK                         _______ _______ _______ _____ _____    ______ ____
ROOT
ATOM      1  C   UNL     1     -12.439  11.324  70.461  0.00  0.00    +0.174 A 
ATOM      2  C   UNL     1     -12.636  12.639  70.865  0.00  0.00    +0.173 A 
ATOM      3  C   UNL     1     -12.038  13.699  70.194  0.00  0.00    +0.044 A 
ATOM      4  C   UNL     1     -11.588  13.428  68.907  0.00  0.00    +0.056 A 
ATOM      5  C   UNL     1     -11.685  12.160  68.347  0.00  0.00    +0.090 A 
ATOM      6  N   UNL     1     -11.811  12.101  67.004  0.00  0.00    -0.213 NA
ATOM      7  C   UNL     1     -12.062  13.222  66.281  0.00  0.00    +0.221 A 
ATOM      8  N   UNL     1     -11.434  14.335  66.738  0.00  0.00    -0.195 NA
ATOM      9  N   UNL     1     -11.959  13.001  64.866  0.00  0.00    -0.276 N 
ATOM     10  C   UNL     1     -12.995  12.187  64.238  0.00  0.00    +0.115 C 
ATOM     11  C   UNL     1     -11.260  14.492  68.075  0.00  0.00    +0.174 A 
ATOM     12  N   UNL     1     -10.730  15.674  68.646  0.00  0.00    -0.107 NA
ATOM     13  C   UNL     1     -12.047  11.085  69.150  0.00  0.00    +0.059 A 
ENDROOT
BRANCH   1  15
ATOM     14  C   UNL     1     -11.461   9.322  71.388  0.00  0.00    +0.253 C 
ATOM     15  O   UNL     1     -12.471  10.307  71.388  0.00  0.00    -0.468 OA
ENDBRANCH   1  15
BRANCH   2  16
ATOM     16  O   UNL     1     -13.527  12.885  71.885  0.00  0.00    -0.468 OA
ATOM     17  C   UNL     1     -13.562  14.153  72.500  0.00  0.00    +0.253 C 
ENDBRANCH   2  16
BRANCH   9  18
ATOM     18  C   UNL     1     -10.560  12.946  64.446  0.00  0.00    +0.095 C 
BRANCH  18  19
ATOM     19  C   UNL     1     -10.395  11.932  63.342  0.00  0.00    +0.045 C 
BRANCH  19  20
ATOM     20  C   UNL     1      -9.344  10.925  63.797  0.00  0.00    +0.117 C 
BRANCH  20  21
ATOM     21  N   UNL     1      -9.536  10.803  65.241  0.00  0.00    -0.203 NA
ATOM     22  C   UNL     1      -8.450  10.164  65.905  0.00  0.00    +0.269 C 
ATOM     23  O   UNL     1      -7.302  10.592  65.754  0.00  0.00    -0.271 OA
BRANCH  22  24
ATOM     24  C   UNL     1      -8.816   9.554  67.363  0.00  0.00    +0.193 C 
ATOM     25  O   UNL     1      -7.933   8.332  67.152  0.00  0.00    -0.347 OA
ATOM     26  C   UNL     1      -8.711   7.336  67.693  0.00  0.00    +0.143 C 
ATOM     27  C   UNL     1      -9.818   7.425  66.647  0.00  0.00    +0.035 C 
ATOM     28  C   UNL     1     -10.185   8.839  66.777  0.00  0.00    +0.042 C 
ENDBRANCH  22  24
ENDBRANCH  20  21
ENDBRANCH  19  20
ENDBRANCH  18  19
ENDBRANCH   9  18
TORSDOF 7
ENDMDL
MODEL 9
REMARK VINA RESULT:      -6.4      3.465      6.144
REMARK  Name = 
REMARK  7 active torsions:
REMARK  status: ('A' for Active; 'I' for Inactive)
REMARK    1  A    between atoms: O_2  and  C_3
REMARK    2  A    between atoms: N_8  and  C_10
REMARK    3  A    between atoms: C_10  and  C_11
REMARK    4  A    between atoms: C_11  and  C_12
REMARK    5  A    between atoms: C_12  and  N_13
REMARK    6  A    between atoms: C_14  and  C_16
REMARK    7  A    between atoms: C_26  and  O_27
REMARK                            x       y       z     vdW  Elec       q    Type
REMARK                         _______ _______ _______ _____ _____    ______ ____
ROOT
ATOM      1  C   UNL     1     -10.803  13.350  65.260  0.00  0.00    +0.174 A 
ATOM      2  C   UNL     1     -10.925  13.038  66.608  0.00  0.00    +0.173 A 
ATOM      3  C   UNL     1     -10.193  13.713  67.576  0.00  0.00    +0.044 A 
ATOM      4  C   UNL     1      -9.664  14.940  67.193  0.00  0.00    +0.056 A 
ATOM      5  C   UNL     1      -9.817  15.435  65.904  0.00  0.00    +0.090 A 
ATOM      6  N   UNL     1      -9.839  16.779  65.771  0.00  0.00    -0.213 NA
ATOM      7  C   UNL     1      -9.941  17.581  66.861  0.00  0.00    +0.221 A 
ATOM      8  N   UNL     1      -9.264  17.135  67.950  0.00  0.00    -0.195 NA
ATOM      9  N   UNL     1      -9.742  18.968  66.545  0.00  0.00    -0.276 N 
ATOM     10  C   UNL     1     -10.787  19.636  65.775  0.00  0.00    +0.115 C 
ATOM     11  C   UNL     1      -9.186  15.799  68.176  0.00  0.00    +0.174 A 
ATOM     12  N   UNL     1      -8.610  15.252  69.347  0.00  0.00    -0.107 NA
ATOM     13  C   UNL     1     -10.328  14.608  64.911  0.00  0.00    +0.059 A 
ENDROOT
BRANCH   1  15
ATOM     14  C   UNL     1     -12.138  12.404  63.485  0.00  0.00    +0.253 C 
ATOM     15  O   UNL     1     -10.991  12.374  64.307  0.00  0.00    -0.468 OA
ENDBRANCH   1  15
BRANCH   2  16
ATOM     16  O   UNL     1     -11.873  12.112  66.983  0.00  0.00    -0.468 OA
ATOM     17  C   UNL     1     -11.831  11.544  68.272  0.00  0.00    +0.253 C 
ENDBRANCH   2  16
BRANCH   9  18
ATOM     18  C   UNL     1      -8.323  19.264  66.360  0.00  0.00    +0.095 C 
BRANCH  18  19
ATOM     19  C   UNL     1      -7.917  20.412  67.251  0.00  0.00    +0.045 C 
BRANCH  19  20
ATOM     20  C   UNL     1      -6.460  20.739  66.943  0.00  0.00    +0.117 C 
BRANCH  20  21
ATOM     21  N   UNL     1      -5.821  20.888  68.250  0.00  0.00    -0.203 NA
ATOM     22  C   UNL     1      -5.606  19.649  68.920  0.00  0.00    +0.269 C 
ATOM     23  O   UNL     1      -4.995  18.741  68.349  0.00  0.00    -0.271 OA
BRANCH  22  24
ATOM     24  C   UNL     1      -5.392  19.778  70.522  0.00  0.00    +0.193 C 
ATOM     25  O   UNL     1      -5.160  21.280  70.443  0.00  0.00    -0.347 OA
ATOM     26  C   UNL     1      -4.133  21.446  71.341  0.00  0.00    +0.143 C 
ATOM     27  C   UNL     1      -3.099  20.667  70.533  0.00  0.00    +0.035 C 
ATOM     28  C   UNL     1      -3.793  19.382  70.393  0.00  0.00    +0.042 C 
ENDBRANCH  22  24
ENDBRANCH  20  21
ENDBRANCH  19  20
ENDBRANCH  18  19
ENDBRANCH   9  18
TORSDOF 7
ENDMDL
