MODEL 1
REMARK VINA RESULT:      -9.7      0.000      0.000
REMARK  Name = 
REMARK  4 active torsions:
REMARK  status: ('A' for Active; 'I' for Inactive)
REMARK    1  A    between atoms: C_4  and  C_5
REMARK    2  A    between atoms: N_7  and  C_8
REMARK    3  A    between atoms: C_20  and  C_21
REMARK    4  A    between atoms: C_21  and  C_22
REMARK                            x       y       z     vdW  Elec       q    Type
REMARK                         _______ _______ _______ _____ _____    ______ ____
ROOT
ATOM      1  C   UNL     1      -9.784  12.247  67.689  0.00  0.00    +0.243 C 
ATOM      2  C   UNL     1     -11.066  12.860  68.096  0.00  0.00    +0.274 C 
ATOM      3  O   UNL     1     -12.135  12.679  67.435  0.00  0.00    -0.270 OA
ATOM      4  N   UNL     1     -10.645  14.146  68.506  0.00  0.00    -0.225 N 
ATOM      5  C   UNL     1      -9.252  14.316  68.389  0.00  0.00    +0.307 C 
ATOM      6  C   UNL     1      -8.965  14.822  66.839  0.00  0.00    +0.149 C 
ATOM      7  N   UNL     1      -9.927  16.078  66.924  0.00  0.00    -0.273 N 
ATOM      8  C   UNL     1     -10.444  16.460  68.153  0.00  0.00    +0.244 C 
ATOM      9  O   UNL     1     -10.952  17.621  68.224  0.00  0.00    -0.273 OA
ATOM     10  C   UNL     1      -9.293  16.872  65.873  0.00  0.00    +0.094 C 
ATOM     11  C   UNL     1      -7.801  16.822  66.184  0.00  0.00    +0.023 C 
ATOM     12  C   UNL     1      -7.644  15.747  67.228  0.00  0.00    +0.029 C 
ATOM     13  O   UNL     1      -8.620  15.105  69.260  0.00  0.00    -0.172 OA
ATOM     14  C   UNL     1     -11.540  15.421  68.783  0.00  0.00    +0.160 C 
ATOM     15  O   UNL     1      -8.796  13.044  68.299  0.00  0.00    -0.294 OA
ATOM     16  C   UNL     1      -9.620  12.246  66.172  0.00  0.00    +0.063 C 
ENDROOT
BRANCH   1  18
ATOM     17  C   UNL     1      -9.917  10.167  69.173  0.00  0.00    +0.245 C 
ATOM     18  N   UNL     1      -9.490  10.967  68.127  0.00  0.00    -0.173 NA
ATOM     19  O   UNL     1     -10.999  10.594  69.683  0.00  0.00    -0.273 OA
BRANCH  17  34
ATOM     20  C   UNL     1      -7.345   9.280  70.473  0.00  0.00    +0.090 C 
ATOM     21  N   UNL     1      -8.048   9.080  70.251  0.00  0.00    -0.272 NA
ATOM     22  C   UNL     1      -8.874   8.780  71.553  0.00  0.00    +0.066 C 
ATOM     23  C   UNL     1      -9.537   7.325  70.912  0.00  0.00    +0.038 C 
ATOM     24  C   UNL     1     -10.403   7.055  72.233  0.00  0.00    -0.020 A 
ATOM     25  C   UNL     1      -9.614   6.983  73.370  0.00  0.00    +0.011 A 
ATOM     26  C   UNL     1      -9.760   6.062  74.362  0.00  0.00    +0.081 A 
ATOM     27  N   UNL     1      -8.870   6.431  75.315  0.00  0.00    -0.244 NA
ATOM     28  C   UNL     1      -7.967   7.294  74.785  0.00  0.00    +0.095 A 
ATOM     29  C   UNL     1     -10.692   5.045  74.226  0.00  0.00    +0.019 A 
ATOM     30  C   UNL     1     -11.408   4.987  73.035  0.00  0.00    +0.001 A 
ATOM     31  C   UNL     1      -8.332   7.474  73.455  0.00  0.00    -0.001 A 
ATOM     32  C   UNL     1     -11.245   5.959  72.052  0.00  0.00    -0.004 A 
ATOM     33  C   UNL     1     -10.716   8.190  70.195  0.00  0.00    +0.016 C 
ATOM     34  C   UNL     1     -10.003   8.598  68.763  0.00  0.00    +0.095 C 
ATOM     35  C   UNL     1      -7.617   7.972  72.235  0.00  0.00    +0.044 C 
ATOM     36  C   UNL     1      -8.452   8.263  69.213  0.00  0.00    +0.081 C 
ENDBRANCH  17  34
ENDBRANCH   1  18
BRANCH  14  37
ATOM     37  C   UNL     1     -10.905  15.593  70.312  0.00  0.00    +0.056 C 
BRANCH  37  38
ATOM     38  C   UNL     1     -12.078  15.616  71.206  0.00  0.00    -0.020 A 
ATOM     39  C   UNL     1     -13.282  14.997  70.889  0.00  0.00    -0.004 A 
ATOM     40  C   UNL     1     -14.331  15.115  71.793  0.00  0.00    -0.000 A 
ATOM     41  C   UNL     1     -14.168  15.850  72.951  0.00  0.00    -0.000 A 
ATOM     42  C   UNL     1     -12.885  15.857  73.486  0.00  0.00    -0.000 A 
ATOM     43  C   UNL     1     -11.850  15.805  72.563  0.00  0.00    -0.004 A 
ENDBRANCH  37  38
ENDBRANCH  14  37
TORSDOF 4
ENDMDL
MODEL 2
REMARK VINA RESULT:      -9.3      2.060      2.515
REMARK  Name = 
REMARK  4 active torsions:
REMARK  status: ('A' for Active; 'I' for Inactive)
REMARK    1  A    between atoms: C_4  and  C_5
REMARK    2  A    between atoms: N_7  and  C_8
REMARK    3  A    between atoms: C_20  and  C_21
REMARK    4  A    between atoms: C_21  and  C_22
REMARK                            x       y       z     vdW  Elec       q    Type
REMARK                         _______ _______ _______ _____ _____    ______ ____
ROOT
ATOM      1  C   UNL     1     -10.241  13.340  66.322  0.00  0.00    +0.243 C 
ATOM      2  C   UNL     1     -11.377  13.923  67.066  0.00  0.00    +0.274 C 
ATOM      3  O   UNL     1     -12.502  14.134  66.515  0.00  0.00    -0.270 OA
ATOM      4  N   UNL     1     -10.727  14.907  67.846  0.00  0.00    -0.225 N 
ATOM      5  C   UNL     1      -9.335  14.925  67.632  0.00  0.00    +0.307 C 
ATOM      6  C   UNL     1      -9.070  15.918  66.334  0.00  0.00    +0.149 C 
ATOM      7  N   UNL     1      -9.806  17.170  66.965  0.00  0.00    -0.273 N 
ATOM      8  C   UNL     1     -10.174  17.143  68.302  0.00  0.00    +0.244 C 
ATOM      9  O   UNL     1     -10.479  18.254  68.834  0.00  0.00    -0.273 OA
ATOM     10  C   UNL     1      -9.119  18.203  66.190  0.00  0.00    +0.094 C 
ATOM     11  C   UNL     1      -7.639  17.850  66.285  0.00  0.00    +0.023 C 
ATOM     12  C   UNL     1      -7.592  16.459  66.861  0.00  0.00    +0.029 C 
ATOM     13  O   UNL     1      -8.528  15.255  68.642  0.00  0.00    -0.172 OA
ATOM     14  C   UNL     1     -11.382  16.098  68.654  0.00  0.00    +0.160 C 
ATOM     15  O   UNL     1      -9.100  13.726  67.051  0.00  0.00    -0.294 OA
ATOM     16  C   UNL     1     -10.178  13.868  64.892  0.00  0.00    +0.063 C 
ENDROOT
BRANCH   1  18
ATOM     17  C   UNL     1      -9.952  10.941  67.165  0.00  0.00    +0.245 C 
ATOM     18  N   UNL     1     -10.133  11.961  66.248  0.00  0.00    -0.173 NA
ATOM     19  O   UNL     1     -10.204  11.322  68.351  0.00  0.00    -0.273 OA
BRANCH  17  34
ATOM     20  C   UNL     1      -7.561   9.252  66.443  0.00  0.00    +0.090 C 
ATOM     21  N   UNL     1      -8.280   9.260  66.703  0.00  0.00    -0.272 NA
ATOM     22  C   UNL     1      -8.234   8.783  68.199  0.00  0.00    +0.066 C 
ATOM     23  C   UNL     1      -9.570   7.715  67.999  0.00  0.00    +0.038 C 
ATOM     24  C   UNL     1      -9.534   7.269  69.537  0.00  0.00    -0.020 A 
ATOM     25  C   UNL     1      -8.306   6.739  69.899  0.00  0.00    +0.011 A 
ATOM     26  C   UNL     1      -8.133   5.629  70.668  0.00  0.00    +0.081 A 
ATOM     27  N   UNL     1      -6.794   5.544  70.864  0.00  0.00    -0.244 NA
ATOM     28  C   UNL     1      -6.152   6.326  69.960  0.00  0.00    +0.095 A 
ATOM     29  C   UNL     1      -9.235   4.888  71.066  0.00  0.00    +0.019 A 
ATOM     30  C   UNL     1     -10.482   5.297  70.605  0.00  0.00    +0.001 A 
ATOM     31  C   UNL     1      -7.141   6.929  69.191  0.00  0.00    -0.001 A 
ATOM     32  C   UNL     1     -10.620   6.448  69.836  0.00  0.00    -0.004 A 
ATOM     33  C   UNL     1     -10.590   8.955  68.279  0.00  0.00    +0.016 C 
ATOM     34  C   UNL     1     -10.761   9.591  66.765  0.00  0.00    +0.095 C 
ATOM     35  C   UNL     1      -7.159   7.592  67.847  0.00  0.00    +0.044 C 
ATOM     36  C   UNL     1      -9.449   8.851  66.092  0.00  0.00    +0.081 C 
ENDBRANCH  17  34
ENDBRANCH   1  18
BRANCH  14  37
ATOM     37  C   UNL     1     -10.631  15.620  70.061  0.00  0.00    +0.056 C 
BRANCH  37  38
ATOM     38  C   UNL     1     -11.729  15.192  70.948  0.00  0.00    -0.020 A 
ATOM     39  C   UNL     1     -12.228  13.895  70.960  0.00  0.00    -0.004 A 
ATOM     40  C   UNL     1     -13.290  13.615  71.812  0.00  0.00    -0.000 A 
ATOM     41  C   UNL     1     -13.831  14.615  72.595  0.00  0.00    -0.000 A 
ATOM     42  C   UNL     1     -12.947  15.602  73.011  0.00  0.00    -0.000 A 
ATOM     43  C   UNL     1     -11.932  15.914  72.116  0.00  0.00    -0.004 A 
ENDBRANCH  37  38
ENDBRANCH  14  37
TORSDOF 4
ENDMDL
MODEL 3
REMARK VINA RESULT:      -9.0      4.209      8.647
REMARK  Name = 
REMARK  4 active torsions:
REMARK  status: ('A' for Active; 'I' for Inactive)
REMARK    1  A    between atoms: C_4  and  C_5
REMARK    2  A    between atoms: N_7  and  C_8
REMARK    3  A    between atoms: C_20  and  C_21
REMARK    4  A    between atoms: C_21  and  C_22
REMARK                            x       y       z     vdW  Elec       q    Type
REMARK                         _______ _______ _______ _____ _____    ______ ____
ROOT
ATOM      1  C   UNL     1      -6.900  17.716  67.596  0.00  0.00    +0.243 C 
ATOM      2  C   UNL     1      -5.960  17.694  66.456  0.00  0.00    +0.274 C 
ATOM      3  O   UNL     1      -5.241  16.679  66.198  0.00  0.00    -0.270 OA
ATOM      4  N   UNL     1      -5.422  19.001  66.509  0.00  0.00    -0.225 N 
ATOM      5  C   UNL     1      -5.978  19.765  67.554  0.00  0.00    +0.307 C 
ATOM      6  C   UNL     1      -5.077  19.444  68.905  0.00  0.00    +0.149 C 
ATOM      7  N   UNL     1      -3.695  19.855  68.250  0.00  0.00    -0.273 N 
ATOM      8  C   UNL     1      -3.685  20.497  67.021  0.00  0.00    +0.244 C 
ATOM      9  O   UNL     1      -2.604  21.067  66.682  0.00  0.00    -0.273 OA
ATOM     10  C   UNL     1      -2.986  20.168  69.491  0.00  0.00    +0.094 C 
ATOM     11  C   UNL     1      -3.941  21.057  70.279  0.00  0.00    +0.023 C 
ATOM     12  C   UNL     1      -5.266  20.952  69.571  0.00  0.00    +0.029 C 
ATOM     13  O   UNL     1      -6.116  21.083  67.390  0.00  0.00    -0.172 OA
ATOM     14  C   UNL     1      -4.145  19.560  65.761  0.00  0.00    +0.160 C 
ATOM     15  O   UNL     1      -7.104  19.083  67.865  0.00  0.00    -0.294 OA
ATOM     16  C   UNL     1      -6.320  17.003  68.813  0.00  0.00    +0.063 C 
ENDROOT
BRANCH   1  18
ATOM     17  C   UNL     1      -9.046  16.441  68.156  0.00  0.00    +0.245 C 
ATOM     18  N   UNL     1      -8.180  17.222  67.412  0.00  0.00    -0.173 NA
ATOM     19  O   UNL     1      -8.700  16.384  69.378  0.00  0.00    -0.273 OA
BRANCH  17  34
ATOM     20  C   UNL     1     -10.094  13.789  67.176  0.00  0.00    +0.090 C 
ATOM     21  N   UNL     1     -10.253  14.439  67.544  0.00  0.00    -0.272 NA
ATOM     22  C   UNL     1     -10.542  14.062  69.041  0.00  0.00    +0.066 C 
ATOM     23  C   UNL     1     -11.945  15.057  69.121  0.00  0.00    +0.038 C 
ATOM     24  C   UNL     1     -12.203  14.692  70.659  0.00  0.00    -0.020 A 
ATOM     25  C   UNL     1     -12.342  13.328  70.857  0.00  0.00    +0.011 A 
ATOM     26  C   UNL     1     -13.278  12.748  71.657  0.00  0.00    +0.081 A 
ATOM     27  N   UNL     1     -12.978  11.426  71.647  0.00  0.00    -0.244 NA
ATOM     28  C   UNL     1     -12.150  11.157  70.606  0.00  0.00    +0.095 A 
ATOM     29  C   UNL     1     -14.243  13.533  72.269  0.00  0.00    +0.019 A 
ATOM     30  C   UNL     1     -14.235  14.895  71.984  0.00  0.00    +0.001 A 
ATOM     31  C   UNL     1     -11.919  12.369  69.965  0.00  0.00    -0.001 A 
ATOM     32  C   UNL     1     -13.250  15.453  71.176  0.00  0.00    -0.004 A 
ATOM     33  C   UNL     1     -11.004  16.338  69.478  0.00  0.00    +0.016 C 
ATOM     34  C   UNL     1     -10.599  16.881  67.973  0.00  0.00    +0.095 C 
ATOM     35  C   UNL     1     -11.429  12.752  68.601  0.00  0.00    +0.044 C 
ATOM     36  C   UNL     1     -11.023  15.516  67.150  0.00  0.00    +0.081 C 
ENDBRANCH  17  34
ENDBRANCH   1  18
BRANCH  14  37
ATOM     37  C   UNL     1      -5.025  20.802  65.088  0.00  0.00    +0.056 C 
BRANCH  37  38
ATOM     38  C   UNL     1      -5.141  20.451  63.660  0.00  0.00    -0.020 A 
ATOM     39  C   UNL     1      -4.786  19.205  63.157  0.00  0.00    -0.004 A 
ATOM     40  C   UNL     1      -4.904  19.000  61.788  0.00  0.00    -0.000 A 
ATOM     41  C   UNL     1      -5.339  20.022  60.969  0.00  0.00    -0.000 A 
ATOM     42  C   UNL     1      -6.240  20.913  61.541  0.00  0.00    -0.000 A 
ATOM     43  C   UNL     1      -6.063  21.155  62.896  0.00  0.00    -0.004 A 
ENDBRANCH  37  38
ENDBRANCH  14  37
TORSDOF 4
ENDMDL
MODEL 4
REMARK VINA RESULT:      -8.8      1.616      1.947
REMARK  Name = 
REMARK  4 active torsions:
REMARK  status: ('A' for Active; 'I' for Inactive)
REMARK    1  A    between atoms: C_4  and  C_5
REMARK    2  A    between atoms: N_7  and  C_8
REMARK    3  A    between atoms: C_20  and  C_21
REMARK    4  A    between atoms: C_21  and  C_22
REMARK                            x       y       z     vdW  Elec       q    Type
REMARK                         _______ _______ _______ _____ _____    ______ ____
ROOT
ATOM      1  C   UNL     1      -9.602  11.791  67.703  0.00  0.00    +0.243 C 
ATOM      2  C   UNL     1     -10.908  12.188  68.270  0.00  0.00    +0.274 C 
ATOM      3  O   UNL     1     -12.005  11.809  67.754  0.00  0.00    -0.270 OA
ATOM      4  N   UNL     1     -10.667  13.537  68.616  0.00  0.00    -0.225 N 
ATOM      5  C   UNL     1      -9.350  13.938  68.319  0.00  0.00    +0.307 C 
ATOM      6  C   UNL     1      -9.354  14.444  66.743  0.00  0.00    +0.149 C 
ATOM      7  N   UNL     1     -10.499  15.520  66.947  0.00  0.00    -0.273 N 
ATOM      8  C   UNL     1     -10.914  15.841  68.231  0.00  0.00    +0.244 C 
ATOM      9  O   UNL     1     -11.600  16.900  68.362  0.00  0.00    -0.273 OA
ATOM     10  C   UNL     1     -10.150  16.382  65.818  0.00  0.00    +0.094 C 
ATOM     11  C   UNL     1      -8.644  16.595  65.934  0.00  0.00    +0.023 C 
ATOM     12  C   UNL     1      -8.173  15.591  66.953  0.00  0.00    +0.029 C 
ATOM     13  O   UNL     1      -8.758  14.846  69.098  0.00  0.00    -0.172 OA
ATOM     14  C   UNL     1     -11.725  14.648  69.001  0.00  0.00    +0.160 C 
ATOM     15  O   UNL     1      -8.698  12.761  68.177  0.00  0.00    -0.294 OA
ATOM     16  C   UNL     1      -9.635  11.777  66.178  0.00  0.00    +0.063 C 
ENDROOT
BRANCH   1  18
ATOM     17  C   UNL     1      -9.478   9.282  68.187  0.00  0.00    +0.245 C 
ATOM     18  N   UNL     1      -9.039  10.592  68.105  0.00  0.00    -0.173 NA
ATOM     19  O   UNL     1     -10.529   9.092  67.499  0.00  0.00    -0.273 OA
BRANCH  17  34
ATOM     20  C   UNL     1      -8.367   8.991  70.975  0.00  0.00    +0.090 C 
ATOM     21  N   UNL     1      -8.476   8.660  70.295  0.00  0.00    -0.272 NA
ATOM     22  C   UNL     1      -9.487   7.478  70.515  0.00  0.00    +0.066 C 
ATOM     23  C   UNL     1      -8.550   6.375  69.580  0.00  0.00    +0.038 C 
ATOM     24  C   UNL     1      -9.612   5.193  69.782  0.00  0.00    -0.020 A 
ATOM     25  C   UNL     1      -9.831   4.911  71.121  0.00  0.00    +0.011 A 
ATOM     26  C   UNL     1      -9.923   3.659  71.649  0.00  0.00    +0.081 A 
ATOM     27  N   UNL     1     -10.255   3.850  72.949  0.00  0.00    -0.244 NA
ATOM     28  C   UNL     1     -10.008   5.139  73.295  0.00  0.00    +0.095 A 
ATOM     29  C   UNL     1      -9.696   2.554  70.843  0.00  0.00    +0.019 A 
ATOM     30  C   UNL     1      -9.326   2.789  69.523  0.00  0.00    +0.001 A 
ATOM     31  C   UNL     1      -9.522   5.766  72.154  0.00  0.00    -0.001 A 
ATOM     32  C   UNL     1      -9.261   4.083  69.015  0.00  0.00    -0.004 A 
ATOM     33  C   UNL     1      -9.271   6.926  68.227  0.00  0.00    +0.016 C 
ATOM     34  C   UNL     1      -8.308   8.210  67.838  0.00  0.00    +0.095 C 
ATOM     35  C   UNL     1      -8.740   7.020  71.904  0.00  0.00    +0.044 C 
ATOM     36  C   UNL     1      -7.565   8.350  69.304  0.00  0.00    +0.081 C 
ENDBRANCH  17  34
ENDBRANCH   1  18
BRANCH  14  37
ATOM     37  C   UNL     1     -10.941  14.966  70.434  0.00  0.00    +0.056 C 
BRANCH  37  38
ATOM     38  C   UNL     1     -12.019  15.266  71.396  0.00  0.00    -0.020 A 
ATOM     39  C   UNL     1     -13.366  15.105  71.094  0.00  0.00    -0.004 A 
ATOM     40  C   UNL     1     -14.296  15.454  72.066  0.00  0.00    -0.000 A 
ATOM     41  C   UNL     1     -13.873  15.965  73.277  0.00  0.00    -0.000 A 
ATOM     42  C   UNL     1     -12.645  15.501  73.733  0.00  0.00    -0.000 A 
ATOM     43  C   UNL     1     -11.707  15.221  72.748  0.00  0.00    -0.004 A 
ENDBRANCH  37  38
ENDBRANCH  14  37
TORSDOF 4
ENDMDL
MODEL 5
REMARK VINA RESULT:      -8.8      3.591      6.762
REMARK  Name = 
REMARK  4 active torsions:
REMARK  status: ('A' for Active; 'I' for Inactive)
REMARK    1  A    between atoms: C_4  and  C_5
REMARK    2  A    between atoms: N_7  and  C_8
REMARK    3  A    between atoms: C_20  and  C_21
REMARK    4  A    between atoms: C_21  and  C_22
REMARK                            x       y       z     vdW  Elec       q    Type
REMARK                         _______ _______ _______ _____ _____    ______ ____
ROOT
ATOM      1  C   UNL     1      -8.651  17.989  66.705  0.00  0.00    +0.243 C 
ATOM      2  C   UNL     1      -7.869  18.124  67.952  0.00  0.00    +0.274 C 
ATOM      3  O   UNL     1      -8.225  18.909  68.885  0.00  0.00    -0.270 OA
ATOM      4  N   UNL     1      -6.545  18.097  67.458  0.00  0.00    -0.225 N 
ATOM      5  C   UNL     1      -6.499  17.941  66.059  0.00  0.00    +0.307 C 
ATOM      6  C   UNL     1      -6.606  19.461  65.411  0.00  0.00    +0.149 C 
ATOM      7  N   UNL     1      -5.359  20.036  66.201  0.00  0.00    -0.273 N 
ATOM      8  C   UNL     1      -4.531  19.167  66.896  0.00  0.00    +0.244 C 
ATOM      9  O   UNL     1      -3.400  19.618  67.253  0.00  0.00    -0.273 OA
ATOM     10  C   UNL     1      -5.035  21.121  65.275  0.00  0.00    +0.094 C 
ATOM     11  C   UNL     1      -5.042  20.478  63.893  0.00  0.00    +0.023 C 
ATOM     12  C   UNL     1      -5.670  19.121  64.083  0.00  0.00    +0.029 C 
ATOM     13  O   UNL     1      -5.478  17.274  65.515  0.00  0.00    -0.172 OA
ATOM     14  C   UNL     1      -5.214  18.489  68.218  0.00  0.00    +0.160 C 
ATOM     15  O   UNL     1      -7.736  17.481  65.763  0.00  0.00    -0.294 OA
ATOM     16  C   UNL     1      -9.212  19.332  66.248  0.00  0.00    +0.063 C 
ENDROOT
BRANCH   1  18
ATOM     17  C   UNL     1      -9.921  15.825  67.203  0.00  0.00    +0.245 C 
ATOM     18  N   UNL     1      -9.696  17.083  66.670  0.00  0.00    -0.173 NA
ATOM     19  O   UNL     1      -9.107  15.556  68.140  0.00  0.00    -0.273 OA
BRANCH  17  34
ATOM     20  C   UNL     1     -10.524  13.504  65.375  0.00  0.00    +0.090 C 
ATOM     21  N   UNL     1     -10.686  13.853  66.035  0.00  0.00    -0.272 NA
ATOM     22  C   UNL     1     -10.223  12.895  67.190  0.00  0.00    +0.066 C 
ATOM     23  C   UNL     1     -11.681  13.108  68.081  0.00  0.00    +0.038 C 
ATOM     24  C   UNL     1     -11.177  12.159  69.269  0.00  0.00    -0.020 A 
ATOM     25  C   UNL     1     -10.850  10.889  68.820  0.00  0.00    +0.011 A 
ATOM     26  C   UNL     1     -11.182   9.730  69.453  0.00  0.00    +0.081 A 
ATOM     27  N   UNL     1     -10.570   8.754  68.740  0.00  0.00    -0.244 NA
ATOM     28  C   UNL     1     -10.202   9.240  67.528  0.00  0.00    +0.095 A 
ATOM     29  C   UNL     1     -11.983   9.768  70.584  0.00  0.00    +0.019 A 
ATOM     30  C   UNL     1     -12.460  11.010  70.990  0.00  0.00    +0.001 A 
ATOM     31  C   UNL     1     -10.590  10.575  67.506  0.00  0.00    -0.001 A 
ATOM     32  C   UNL     1     -12.083  12.175  70.328  0.00  0.00    -0.004 A 
ATOM     33  C   UNL     1     -11.059  14.453  68.758  0.00  0.00    +0.016 C 
ATOM     34  C   UNL     1     -11.468  15.603  67.646  0.00  0.00    +0.095 C 
ATOM     35  C   UNL     1     -10.824  11.577  66.416  0.00  0.00    +0.044 C 
ATOM     36  C   UNL     1     -11.808  14.567  66.408  0.00  0.00    +0.081 C 
ENDBRANCH  17  34
ENDBRANCH   1  18
BRANCH  14  37
ATOM     37  C   UNL     1      -4.529  17.010  67.880  0.00  0.00    +0.056 C 
BRANCH  37  38
ATOM     38  C   UNL     1      -4.856  16.167  69.046  0.00  0.00    -0.020 A 
ATOM     39  C   UNL     1      -4.790  16.631  70.355  0.00  0.00    -0.004 A 
ATOM     40  C   UNL     1      -5.085  15.737  71.376  0.00  0.00    -0.000 A 
ATOM     41  C   UNL     1      -5.408  14.427  71.079  0.00  0.00    -0.000 A 
ATOM     42  C   UNL     1      -6.064  14.226  69.871  0.00  0.00    -0.000 A 
ATOM     43  C   UNL     1      -5.706  15.088  68.844  0.00  0.00    -0.004 A 
ENDBRANCH  37  38
ENDBRANCH  14  37
TORSDOF 4
ENDMDL
MODEL 6
REMARK VINA RESULT:      -8.7      3.566      6.552
REMARK  Name = 
REMARK  4 active torsions:
REMARK  status: ('A' for Active; 'I' for Inactive)
REMARK    1  A    between atoms: C_4  and  C_5
REMARK    2  A    between atoms: N_7  and  C_8
REMARK    3  A    between atoms: C_20  and  C_21
REMARK    4  A    between atoms: C_21  and  C_22
REMARK                            x       y       z     vdW  Elec       q    Type
REMARK                         _______ _______ _______ _____ _____    ______ ____
ROOT
ATOM      1  C   UNL     1      -9.629  17.618  67.128  0.00  0.00    +0.243 C 
ATOM      2  C   UNL     1      -9.356  18.449  68.319  0.00  0.00    +0.274 C 
ATOM      3  O   UNL     1     -10.140  19.380  68.680  0.00  0.00    -0.270 OA
ATOM      4  N   UNL     1      -7.959  18.642  68.214  0.00  0.00    -0.225 N 
ATOM      5  C   UNL     1      -7.412  17.987  67.093  0.00  0.00    +0.307 C 
ATOM      6  C   UNL     1      -7.555  19.034  65.818  0.00  0.00    +0.149 C 
ATOM      7  N   UNL     1      -6.774  20.217  66.523  0.00  0.00    -0.273 N 
ATOM      8  C   UNL     1      -6.094  19.977  67.708  0.00  0.00    +0.244 C 
ATOM      9  O   UNL     1      -5.251  20.852  68.071  0.00  0.00    -0.273 OA
ATOM     10  C   UNL     1      -6.348  20.911  65.307  0.00  0.00    +0.094 C 
ATOM     11  C   UNL     1      -5.771  19.821  64.411  0.00  0.00    +0.023 C 
ATOM     12  C   UNL     1      -6.179  18.518  65.048  0.00  0.00    +0.029 C 
ATOM     13  O   UNL     1      -6.168  17.509  67.165  0.00  0.00    -0.172 OA
ATOM     14  C   UNL     1      -7.058  19.680  68.996  0.00  0.00    +0.160 C 
ATOM     15  O   UNL     1      -8.374  17.095  66.761  0.00  0.00    -0.294 OA
ATOM     16  C   UNL     1     -10.226  18.444  65.993  0.00  0.00    +0.063 C 
ENDROOT
BRANCH   1  18
ATOM     17  C   UNL     1     -10.519  15.470  68.197  0.00  0.00    +0.245 C 
ATOM     18  N   UNL     1     -10.425  16.494  67.270  0.00  0.00    -0.173 NA
ATOM     19  O   UNL     1      -9.935  15.764  69.286  0.00  0.00    -0.273 OA
BRANCH  17  34
ATOM     20  C   UNL     1     -10.497  13.177  66.239  0.00  0.00    +0.090 C 
ATOM     21  N   UNL     1     -10.795  13.462  66.882  0.00  0.00    -0.272 NA
ATOM     22  C   UNL     1     -10.323  12.535  68.059  0.00  0.00    +0.066 C 
ATOM     23  C   UNL     1     -11.895  12.464  68.761  0.00  0.00    +0.038 C 
ATOM     24  C   UNL     1     -11.388  11.550  69.976  0.00  0.00    -0.020 A 
ATOM     25  C   UNL     1     -10.802  10.374  69.536  0.00  0.00    +0.011 A 
ATOM     26  C   UNL     1     -11.011   9.147  70.087  0.00  0.00    +0.081 A 
ATOM     27  N   UNL     1     -10.162   8.319  69.430  0.00  0.00    -0.244 NA
ATOM     28  C   UNL     1      -9.734   8.919  68.290  0.00  0.00    +0.095 A 
ATOM     29  C   UNL     1     -11.939   8.997  71.105  0.00  0.00    +0.019 A 
ATOM     30  C   UNL     1     -12.663  10.124  71.483  0.00  0.00    +0.001 A 
ATOM     31  C   UNL     1     -10.334  10.173  68.258  0.00  0.00    -0.001 A 
ATOM     32  C   UNL     1     -12.407  11.366  70.909  0.00  0.00    -0.004 A 
ATOM     33  C   UNL     1     -11.593  13.856  69.551  0.00  0.00    +0.016 C 
ATOM     34  C   UNL     1     -12.050  14.978  68.430  0.00  0.00    +0.095 C 
ATOM     35  C   UNL     1     -10.597  11.177  67.177  0.00  0.00    +0.044 C 
ATOM     36  C   UNL     1     -12.058  13.965  67.129  0.00  0.00    +0.081 C 
ENDBRANCH  17  34
ENDBRANCH   1  18
BRANCH  14  37
ATOM     37  C   UNL     1      -6.052  18.470  69.538  0.00  0.00    +0.056 C 
BRANCH  37  38
ATOM     38  C   UNL     1      -4.945  19.174  70.212  0.00  0.00    -0.020 A 
ATOM     39  C   UNL     1      -5.113  19.891  71.391  0.00  0.00    -0.004 A 
ATOM     40  C   UNL     1      -4.005  20.544  71.917  0.00  0.00    -0.000 A 
ATOM     41  C   UNL     1      -2.792  20.490  71.260  0.00  0.00    -0.000 A 
ATOM     42  C   UNL     1      -2.542  19.323  70.548  0.00  0.00    -0.000 A 
ATOM     43  C   UNL     1      -3.653  18.721  69.975  0.00  0.00    -0.004 A 
ENDBRANCH  37  38
ENDBRANCH  14  37
TORSDOF 4
ENDMDL
MODEL 7
REMARK VINA RESULT:      -8.6      3.195      9.154
REMARK  Name = 
REMARK  4 active torsions:
REMARK  status: ('A' for Active; 'I' for Inactive)
REMARK    1  A    between atoms: C_4  and  C_5
REMARK    2  A    between atoms: N_7  and  C_8
REMARK    3  A    between atoms: C_20  and  C_21
REMARK    4  A    between atoms: C_21  and  C_22
REMARK                            x       y       z     vdW  Elec       q    Type
REMARK                         _______ _______ _______ _____ _____    ______ ____
ROOT
ATOM      1  C   UNL     1      -8.108   7.601  69.916  0.00  0.00    +0.243 C 
ATOM      2  C   UNL     1      -8.786   8.171  71.099  0.00  0.00    +0.274 C 
ATOM      3  O   UNL     1      -8.143   8.761  72.021  0.00  0.00    -0.270 OA
ATOM      4  N   UNL     1      -9.753   7.177  71.375  0.00  0.00    -0.225 N 
ATOM      5  C   UNL     1      -9.702   6.111  70.455  0.00  0.00    +0.307 C 
ATOM      6  C   UNL     1      -8.578   5.041  71.033  0.00  0.00    +0.149 C 
ATOM      7  N   UNL     1      -9.275   4.858  72.443  0.00  0.00    -0.273 N 
ATOM      8  C   UNL     1     -10.548   5.370  72.648  0.00  0.00    +0.244 C 
ATOM      9  O   UNL     1     -11.177   4.948  73.666  0.00  0.00    -0.273 OA
ATOM     10  C   UNL     1      -8.719   3.543  72.758  0.00  0.00    +0.094 C 
ATOM     11  C   UNL     1      -8.935   2.710  71.500  0.00  0.00    +0.023 C 
ATOM     12  C   UNL     1      -9.333   3.693  70.430  0.00  0.00    +0.029 C 
ATOM     13  O   UNL     1     -10.831   5.473  70.139  0.00  0.00    -0.172 OA
ATOM     14  C   UNL     1     -10.626   7.004  72.682  0.00  0.00    +0.160 C 
ATOM     15  O   UNL     1      -9.004   6.635  69.420  0.00  0.00    -0.294 OA
ATOM     16  C   UNL     1      -6.773   6.964  70.288  0.00  0.00    +0.063 C 
ENDROOT
BRANCH   1  18
ATOM     17  C   UNL     1      -8.553   9.461  68.216  0.00  0.00    +0.245 C 
ATOM     18  N   UNL     1      -7.873   8.421  68.825  0.00  0.00    -0.173 NA
ATOM     19  O   UNL     1      -9.455   9.943  68.971  0.00  0.00    -0.273 OA
BRANCH  17  34
ATOM     20  C   UNL     1      -9.131   9.039  65.287  0.00  0.00    +0.090 C 
ATOM     21  N   UNL     1      -8.917   9.533  65.828  0.00  0.00    -0.272 NA
ATOM     22  C   UNL     1     -10.060  10.602  65.957  0.00  0.00    +0.066 C 
ATOM     23  C   UNL     1      -8.954  11.923  65.974  0.00  0.00    +0.038 C 
ATOM     24  C   UNL     1     -10.130  12.997  66.144  0.00  0.00    -0.020 A 
ATOM     25  C   UNL     1     -11.060  12.921  65.119  0.00  0.00    +0.011 A 
ATOM     26  C   UNL     1     -11.606  13.992  64.481  0.00  0.00    +0.081 A 
ATOM     27  N   UNL     1     -12.536  13.467  63.647  0.00  0.00    -0.244 NA
ATOM     28  C   UNL     1     -12.314  12.137  63.500  0.00  0.00    +0.095 A 
ATOM     29  C   UNL     1     -11.162  15.271  64.780  0.00  0.00    +0.019 A 
ATOM     30  C   UNL     1     -10.124  15.391  65.698  0.00  0.00    +0.001 A 
ATOM     31  C   UNL     1     -11.212  11.833  64.290  0.00  0.00    -0.001 A 
ATOM     32  C   UNL     1      -9.605  14.273  66.343  0.00  0.00    -0.004 A 
ATOM     33  C   UNL     1      -8.763  11.729  67.580  0.00  0.00    +0.016 C 
ATOM     34  C   UNL     1      -7.556  10.605  67.636  0.00  0.00    +0.095 C 
ATOM     35  C   UNL     1     -10.233  10.698  64.326  0.00  0.00    +0.044 C 
ATOM     36  C   UNL     1      -7.681  10.102  66.070  0.00  0.00    +0.081 C 
ENDBRANCH  17  34
ENDBRANCH   1  18
BRANCH  14  37
ATOM     37  C   UNL     1     -12.036   7.009  71.799  0.00  0.00    +0.056 C 
BRANCH  37  38
ATOM     38  C   UNL     1     -12.403   8.433  71.682  0.00  0.00    -0.020 A 
ATOM     39  C   UNL     1     -12.035   9.221  70.598  0.00  0.00    -0.004 A 
ATOM     40  C   UNL     1     -12.405  10.560  70.613  0.00  0.00    -0.000 A 
ATOM     41  C   UNL     1     -13.097  11.076  71.691  0.00  0.00    -0.000 A 
ATOM     42  C   UNL     1     -13.947  10.190  72.343  0.00  0.00    -0.000 A 
ATOM     43  C   UNL     1     -13.525   8.868  72.375  0.00  0.00    -0.004 A 
ENDBRANCH  37  38
ENDBRANCH  14  37
TORSDOF 4
ENDMDL
MODEL 8
REMARK VINA RESULT:      -8.6      1.952      2.722
REMARK  Name = 
REMARK  4 active torsions:
REMARK  status: ('A' for Active; 'I' for Inactive)
REMARK    1  A    between atoms: C_4  and  C_5
REMARK    2  A    between atoms: N_7  and  C_8
REMARK    3  A    between atoms: C_20  and  C_21
REMARK    4  A    between atoms: C_21  and  C_22
REMARK                            x       y       z     vdW  Elec       q    Type
REMARK                         _______ _______ _______ _____ _____    ______ ____
ROOT
ATOM      1  C   UNL     1     -10.404   9.984  68.649  0.00  0.00    +0.243 C 
ATOM      2  C   UNL     1     -11.485  10.719  69.339  0.00  0.00    +0.274 C 
ATOM      3  O   UNL     1     -12.663  10.252  69.426  0.00  0.00    -0.270 OA
ATOM      4  N   UNL     1     -11.232  12.047  68.925  0.00  0.00    -0.225 N 
ATOM      5  C   UNL     1     -10.105  12.139  68.085  0.00  0.00    +0.307 C 
ATOM      6  C   UNL     1     -10.641  11.863  66.543  0.00  0.00    +0.149 C 
ATOM      7  N   UNL     1     -11.727  13.015  66.566  0.00  0.00    -0.273 N 
ATOM      8  C   UNL     1     -11.733  13.928  67.611  0.00  0.00    +0.244 C 
ATOM      9  O   UNL     1     -12.408  14.989  67.439  0.00  0.00    -0.273 OA
ATOM     10  C   UNL     1     -11.809  13.225  65.121  0.00  0.00    +0.094 C 
ATOM     11  C   UNL     1     -10.362  13.323  64.653  0.00  0.00    +0.023 C 
ATOM     12  C   UNL     1      -9.529  12.860  65.819  0.00  0.00    +0.029 C 
ATOM     13  O   UNL     1      -9.355  13.243  68.126  0.00  0.00    -0.172 OA
ATOM     14  C   UNL     1     -12.182  13.305  69.055  0.00  0.00    +0.160 C 
ATOM     15  O   UNL     1      -9.459  10.972  68.312  0.00  0.00    -0.294 OA
ATOM     16  C   UNL     1     -10.918   9.275  67.400  0.00  0.00    +0.063 C 
ENDROOT
BRANCH   1  18
ATOM     17  C   UNL     1      -9.974   8.017  70.227  0.00  0.00    +0.245 C 
ATOM     18  N   UNL     1      -9.668   9.057  69.366  0.00  0.00    -0.173 NA
ATOM     19  O   UNL     1     -11.192   7.669  70.134  0.00  0.00    -0.273 OA
BRANCH  17  34
ATOM     20  C   UNL     1      -8.390   8.478  72.752  0.00  0.00    +0.090 C 
ATOM     21  N   UNL     1      -8.642   7.967  72.243  0.00  0.00    -0.272 NA
ATOM     22  C   UNL     1      -9.667   7.041  72.990  0.00  0.00    +0.066 C 
ATOM     23  C   UNL     1      -8.989   5.600  72.334  0.00  0.00    +0.038 C 
ATOM     24  C   UNL     1     -10.067   4.672  73.072  0.00  0.00    -0.020 A 
ATOM     25  C   UNL     1     -10.054   4.849  74.446  0.00  0.00    +0.011 A 
ATOM     26  C   UNL     1     -10.125   3.843  75.361  0.00  0.00    +0.081 A 
ATOM     27  N   UNL     1     -10.199   4.467  76.562  0.00  0.00    -0.244 NA
ATOM     28  C   UNL     1      -9.814   5.761  76.427  0.00  0.00    +0.095 A 
ATOM     29  C   UNL     1     -10.119   2.523  74.936  0.00  0.00    +0.019 A 
ATOM     30  C   UNL     1      -9.984   2.291  73.571  0.00  0.00    +0.001 A 
ATOM     31  C   UNL     1      -9.507   5.940  75.082  0.00  0.00    -0.001 A 
ATOM     32  C   UNL     1      -9.933   3.346  72.665  0.00  0.00    -0.004 A 
ATOM     33  C   UNL     1      -9.911   5.784  71.003  0.00  0.00    +0.016 C 
ATOM     34  C   UNL     1      -8.958   6.759  70.073  0.00  0.00    +0.095 C 
ATOM     35  C   UNL     1      -8.707   6.952  74.319  0.00  0.00    +0.044 C 
ATOM     36  C   UNL     1      -7.950   7.259  71.279  0.00  0.00    +0.081 C 
ENDBRANCH  17  34
ENDBRANCH   1  18
BRANCH  14  37
ATOM     37  C   UNL     1     -11.005  14.170  69.854  0.00  0.00    +0.056 C 
BRANCH  37  38
ATOM     38  C   UNL     1     -11.649  14.618  71.103  0.00  0.00    -0.020 A 
ATOM     39  C   UNL     1     -11.578  15.928  71.562  0.00  0.00    -0.004 A 
ATOM     40  C   UNL     1     -12.193  16.227  72.771  0.00  0.00    -0.000 A 
ATOM     41  C   UNL     1     -12.829  15.234  73.490  0.00  0.00    -0.000 A 
ATOM     42  C   UNL     1     -13.404  14.218  72.736  0.00  0.00    -0.000 A 
ATOM     43  C   UNL     1     -12.737  13.889  71.565  0.00  0.00    -0.004 A 
ENDBRANCH  37  38
ENDBRANCH  14  37
TORSDOF 4
ENDMDL
MODEL 9
REMARK VINA RESULT:      -8.5      3.320     10.415
REMARK  Name = 
REMARK  4 active torsions:
REMARK  status: ('A' for Active; 'I' for Inactive)
REMARK    1  A    between atoms: C_4  and  C_5
REMARK    2  A    between atoms: N_7  and  C_8
REMARK    3  A    between atoms: C_20  and  C_21
REMARK    4  A    between atoms: C_21  and  C_22
REMARK                            x       y       z     vdW  Elec       q    Type
REMARK                         _______ _______ _______ _____ _____    ______ ____
ROOT
ATOM      1  C   UNL     1     -10.886  13.215  67.322  0.00  0.00    +0.243 C 
ATOM      2  C   UNL     1     -11.205  12.390  66.138  0.00  0.00    +0.274 C 
ATOM      3  O   UNL     1     -12.402  12.191  65.763  0.00  0.00    -0.270 OA
ATOM      4  N   UNL     1     -10.274  11.334  66.271  0.00  0.00    -0.225 N 
ATOM      5  C   UNL     1      -9.448  11.489  67.400  0.00  0.00    +0.307 C 
ATOM      6  C   UNL     1     -10.256  10.807  68.674  0.00  0.00    +0.149 C 
ATOM      7  N   UNL     1     -10.426   9.391  67.987  0.00  0.00    -0.273 N 
ATOM      8  C   UNL     1      -9.738   9.113  66.814  0.00  0.00    +0.244 C 
ATOM      9  O   UNL     1      -9.665   7.894  66.469  0.00  0.00    -0.273 OA
ATOM     10  C   UNL     1     -10.572   8.604  69.211  0.00  0.00    +0.094 C 
ATOM     11  C   UNL     1      -9.436   9.066  70.116  0.00  0.00    +0.023 C 
ATOM     12  C   UNL     1      -8.886  10.311  69.469  0.00  0.00    +0.029 C 
ATOM     13  O   UNL     1      -8.192  11.039  67.351  0.00  0.00    -0.172 OA
ATOM     14  C   UNL     1     -10.258   9.949  65.508  0.00  0.00    +0.160 C 
ATOM     15  O   UNL     1      -9.598  12.798  67.712  0.00  0.00    -0.294 OA
ATOM     16  C   UNL     1     -11.892  12.993  68.447  0.00  0.00    +0.063 C 
ENDROOT
BRANCH   1  18
ATOM     17  C   UNL     1      -9.692  15.450  66.969  0.00  0.00    +0.245 C 
ATOM     18  N   UNL     1     -10.754  14.583  67.163  0.00  0.00    -0.173 NA
ATOM     19  O   UNL     1      -8.645  14.838  66.592  0.00  0.00    -0.273 OA
BRANCH  17  34
ATOM     20  C   UNL     1     -10.065  17.541  69.110  0.00  0.00    +0.090 C 
ATOM     21  N   UNL     1      -9.875  17.401  68.383  0.00  0.00    -0.272 NA
ATOM     22  C   UNL     1      -8.351  17.750  68.230  0.00  0.00    +0.066 C 
ATOM     23  C   UNL     1      -8.599  18.614  66.760  0.00  0.00    +0.038 C 
ATOM     24  C   UNL     1      -7.036  18.928  66.599  0.00  0.00    -0.020 A 
ATOM     25  C   UNL     1      -6.524  19.607  67.693  0.00  0.00    +0.011 A 
ATOM     26  C   UNL     1      -5.665  20.661  67.623  0.00  0.00    +0.081 A 
ATOM     27  N   UNL     1      -5.338  20.933  68.910  0.00  0.00    -0.244 NA
ATOM     28  C   UNL     1      -6.231  20.337  69.740  0.00  0.00    +0.095 A 
ATOM     29  C   UNL     1      -5.320  21.188  66.388  0.00  0.00    +0.019 A 
ATOM     30  C   UNL     1      -5.924  20.633  65.264  0.00  0.00    +0.001 A 
ATOM     31  C   UNL     1      -7.131  19.658  68.927  0.00  0.00    -0.001 A 
ATOM     32  C   UNL     1      -6.783  19.544  65.375  0.00  0.00    -0.004 A 
ATOM     33  C   UNL     1      -8.505  17.214  65.933  0.00  0.00    +0.016 C 
ATOM     34  C   UNL     1     -10.070  16.690  65.990  0.00  0.00    +0.095 C 
ATOM     35  C   UNL     1      -8.515  19.117  69.125  0.00  0.00    +0.044 C 
ATOM     36  C   UNL     1     -10.562  17.676  67.217  0.00  0.00    +0.081 C 
ENDBRANCH  17  34
ENDBRANCH   1  18
BRANCH  14  37
ATOM     37  C   UNL     1      -8.699  10.202  64.983  0.00  0.00    +0.056 C 
BRANCH  37  38
ATOM     38  C   UNL     1      -8.715   9.827  63.556  0.00  0.00    -0.020 A 
ATOM     39  C   UNL     1      -8.625  10.759  62.529  0.00  0.00    -0.004 A 
ATOM     40  C   UNL     1      -8.688  10.293  61.222  0.00  0.00    -0.000 A 
ATOM     41  C   UNL     1      -8.860   8.945  60.974  0.00  0.00    -0.000 A 
ATOM     42  C   UNL     1      -8.306   8.084  61.913  0.00  0.00    -0.000 A 
ATOM     43  C   UNL     1      -8.313   8.540  63.224  0.00  0.00    -0.004 A 
ENDBRANCH  37  38
ENDBRANCH  14  37
TORSDOF 4
ENDMDL
