MODEL 1
REMARK VINA RESULT:      -7.3      0.000      0.000
REMARK  Name = 
REMARK  5 active torsions:
REMARK  status: ('A' for Active; 'I' for Inactive)
REMARK    1  A    between atoms: C_2  and  C_4
REMARK    2  A    between atoms: C_4  and  S_5
REMARK    3  A    between atoms: S_5  and  C_6
REMARK    4  A    between atoms: N_11  and  C_12
REMARK    5  A    between atoms: C_15  and  C_16
REMARK                            x       y       z     vdW  Elec       q    Type
REMARK                         _______ _______ _______ _____ _____    ______ ____
ROOT
ATOM      1  C   UNL     1     -11.149  14.962  68.271  0.00  0.00    +0.068 A 
ATOM      2  C   UNL     1     -11.037  13.616  68.596  0.00  0.00    +0.016 A 
ATOM      3  C   UNL     1     -11.819  13.184  69.660  0.00  0.00    -0.003 A 
ATOM      4  C   UNL     1     -11.880  11.829  69.864  0.00  0.00    -0.000 A 
ATOM      5  C   UNL     1     -10.892  11.023  69.311  0.00  0.00    -0.000 A 
ATOM      6  C   UNL     1      -9.801  11.573  68.649  0.00  0.00    +0.000 A 
ATOM      7  C   UNL     1     -12.407  14.101  70.510  0.00  0.00    -0.022 A 
ATOM      8  C   UNL     1     -12.284  15.455  70.301  0.00  0.00    -0.003 A 
ATOM      9  C   UNL     1      -9.977  12.848  68.125  0.00  0.00    +0.001 A 
ATOM     10  C   UNL     1     -11.764  15.864  69.098  0.00  0.00    +0.017 A 
ENDROOT
BRANCH   1  12
ATOM     11  C   UNL     1     -10.903  15.092  65.812  0.00  0.00    +0.198 A 
ATOM     12  N   UNL     1     -10.485  15.365  67.067  0.00  0.00    -0.264 N 
ATOM     13  C   UNL     1      -9.612  16.381  67.019  0.00  0.00    +0.205 A 
ATOM     14 BR   UNL     1      -8.536  16.893  68.516  0.00  0.00    -0.006 Br
ATOM     15  N   UNL     1      -9.507  16.778  65.740  0.00  0.00    -0.121 NA
ATOM     16  N   UNL     1     -10.098  15.828  65.017  0.00  0.00    -0.121 NA
BRANCH  11  17
ATOM     17  S   UNL     1     -12.531  14.433  65.437  0.00  0.00    -0.063 S 
BRANCH  17  18
ATOM     18  C   UNL     1     -12.435  12.640  65.173  0.00  0.00    +0.179 C 
BRANCH  18  20
ATOM     19  O   UNL     1     -12.999  11.768  63.054  0.00  0.00    -0.245 OA
ATOM     20  C   UNL     1     -12.156  12.449  63.714  0.00  0.00    +0.376 C 
ATOM     21  O   UNL     1     -10.824  12.250  63.337  0.00  0.00    -0.245 OA
ENDBRANCH  18  20
ENDBRANCH  17  18
ENDBRANCH  11  17
ENDBRANCH   1  12
BRANCH   7  22
ATOM     22  C   UNL     1     -13.285  13.533  71.580  0.00  0.00    +0.022 C 
ATOM     23  C   UNL     1     -13.117  14.345  72.893  0.00  0.00    +0.005 C 
ATOM     24  C   UNL     1     -14.379  14.476  72.010  0.00  0.00    +0.005 C 
ENDBRANCH   7  22
TORSDOF 5
ENDMDL
MODEL 2
REMARK VINA RESULT:      -7.0      2.521      3.055
REMARK  Name = 
REMARK  5 active torsions:
REMARK  status: ('A' for Active; 'I' for Inactive)
REMARK    1  A    between atoms: C_2  and  C_4
REMARK    2  A    between atoms: C_4  and  S_5
REMARK    3  A    between atoms: S_5  and  C_6
REMARK    4  A    between atoms: N_11  and  C_12
REMARK    5  A    between atoms: C_15  and  C_16
REMARK                            x       y       z     vdW  Elec       q    Type
REMARK                         _______ _______ _______ _____ _____    ______ ____
ROOT
ATOM      1  C   UNL     1     -10.998  13.073  68.542  0.00  0.00    +0.068 A 
ATOM      2  C   UNL     1     -11.659  12.303  69.491  0.00  0.00    +0.016 A 
ATOM      3  C   UNL     1     -12.255  13.007  70.530  0.00  0.00    -0.003 A 
ATOM      4  C   UNL     1     -13.081  12.291  71.358  0.00  0.00    -0.000 A 
ATOM      5  C   UNL     1     -12.964  10.906  71.388  0.00  0.00    -0.000 A 
ATOM      6  C   UNL     1     -11.965  10.253  70.677  0.00  0.00    +0.000 A 
ATOM      7  C   UNL     1     -11.932  14.332  70.750  0.00  0.00    -0.022 A 
ATOM      8  C   UNL     1     -11.062  15.005  69.925  0.00  0.00    -0.003 A 
ATOM      9  C   UNL     1     -11.444  10.932  69.582  0.00  0.00    +0.001 A 
ATOM     10  C   UNL     1     -10.710  14.396  68.746  0.00  0.00    +0.017 A 
ENDROOT
BRANCH   1  12
ATOM     11  C   UNL     1     -11.166  12.340  66.184  0.00  0.00    +0.198 A 
ATOM     12  N   UNL     1     -10.542  12.366  67.382  0.00  0.00    -0.264 N 
ATOM     13  C   UNL     1      -9.268  11.985  67.212  0.00  0.00    +0.205 A 
ATOM     14 BR   UNL     1      -8.106  11.579  68.677  0.00  0.00    -0.006 Br
ATOM     15  N   UNL     1      -9.074  11.755  65.903  0.00  0.00    -0.121 NA
ATOM     16  N   UNL     1     -10.288  11.735  65.356  0.00  0.00    -0.121 NA
BRANCH  11  17
ATOM     17  S   UNL     1     -12.522  13.436  65.755  0.00  0.00    -0.063 S 
BRANCH  17  18
ATOM     18  C   UNL     1     -12.082  14.439  64.307  0.00  0.00    +0.179 C 
BRANCH  18  20
ATOM     19  O   UNL     1     -11.386  16.691  64.211  0.00  0.00    -0.245 OA
ATOM     20  C   UNL     1     -11.273  15.587  64.826  0.00  0.00    +0.376 C 
ATOM     21  O   UNL     1      -9.983  15.306  65.286  0.00  0.00    -0.245 OA
ENDBRANCH  18  20
ENDBRANCH  17  18
ENDBRANCH  11  17
ENDBRANCH   1  12
BRANCH   7  22
ATOM     22  C   UNL     1     -12.683  15.016  71.849  0.00  0.00    +0.022 C 
ATOM     23  C   UNL     1     -11.838  15.015  73.152  0.00  0.00    +0.005 C 
ATOM     24  C   UNL     1     -12.030  16.294  72.305  0.00  0.00    +0.005 C 
ENDBRANCH   7  22
TORSDOF 5
ENDMDL
MODEL 3
REMARK VINA RESULT:      -6.6      3.114      3.861
REMARK  Name = 
REMARK  5 active torsions:
REMARK  status: ('A' for Active; 'I' for Inactive)
REMARK    1  A    between atoms: C_2  and  C_4
REMARK    2  A    between atoms: C_4  and  S_5
REMARK    3  A    between atoms: S_5  and  C_6
REMARK    4  A    between atoms: N_11  and  C_12
REMARK    5  A    between atoms: C_15  and  C_16
REMARK                            x       y       z     vdW  Elec       q    Type
REMARK                         _______ _______ _______ _____ _____    ______ ____
ROOT
ATOM      1  C   UNL     1     -11.365  14.932  68.214  0.00  0.00    +0.068 A 
ATOM      2  C   UNL     1     -11.196  13.601  68.572  0.00  0.00    +0.016 A 
ATOM      3  C   UNL     1     -11.886  13.187  69.704  0.00  0.00    -0.003 A 
ATOM      4  C   UNL     1     -11.898  11.839  69.954  0.00  0.00    -0.000 A 
ATOM      5  C   UNL     1     -10.933  11.037  69.354  0.00  0.00    -0.000 A 
ATOM      6  C   UNL     1      -9.909  11.589  68.596  0.00  0.00    +0.000 A 
ATOM      7  C   UNL     1     -12.432  14.118  70.567  0.00  0.00    -0.022 A 
ATOM      8  C   UNL     1     -12.359  15.466  70.306  0.00  0.00    -0.003 A 
ATOM      9  C   UNL     1     -10.155  12.841  68.047  0.00  0.00    +0.001 A 
ATOM     10  C   UNL     1     -11.940  15.847  69.056  0.00  0.00    +0.017 A 
ENDROOT
BRANCH   1  12
ATOM     11  C   UNL     1      -9.682  16.043  66.780  0.00  0.00    +0.198 A 
ATOM     12  N   UNL     1     -10.803  15.310  66.952  0.00  0.00    -0.264 N 
ATOM     13  C   UNL     1     -11.074  14.664  65.809  0.00  0.00    +0.205 A 
ATOM     14 BR   UNL     1     -12.732  13.760  65.499  0.00  0.00    -0.006 Br
ATOM     15  N   UNL     1     -10.104  14.956  64.926  0.00  0.00    -0.121 NA
ATOM     16  N   UNL     1      -9.429  15.975  65.456  0.00  0.00    -0.121 NA
BRANCH  11  17
ATOM     17  S   UNL     1      -8.535  16.417  68.111  0.00  0.00    -0.063 S 
BRANCH  17  18
ATOM     18  C   UNL     1      -8.628  18.177  68.542  0.00  0.00    +0.179 C 
BRANCH  18  20
ATOM     19  O   UNL     1      -8.905  19.657  66.726  0.00  0.00    -0.245 OA
ATOM     20  C   UNL     1      -9.477  18.820  67.488  0.00  0.00    +0.376 C 
ATOM     21  O   UNL     1     -10.790  19.150  67.837  0.00  0.00    -0.245 OA
ENDBRANCH  18  20
ENDBRANCH  17  18
ENDBRANCH  11  17
ENDBRANCH   1  12
BRANCH   7  22
ATOM     22  C   UNL     1     -13.214  13.566  71.716  0.00  0.00    +0.022 C 
ATOM     23  C   UNL     1     -13.087  14.506  72.946  0.00  0.00    +0.005 C 
ATOM     24  C   UNL     1     -14.383  14.433  72.107  0.00  0.00    +0.005 C 
ENDBRANCH   7  22
TORSDOF 5
ENDMDL
MODEL 4
REMARK VINA RESULT:      -6.6      2.854      5.726
REMARK  Name = 
REMARK  5 active torsions:
REMARK  status: ('A' for Active; 'I' for Inactive)
REMARK    1  A    between atoms: C_2  and  C_4
REMARK    2  A    between atoms: C_4  and  S_5
REMARK    3  A    between atoms: S_5  and  C_6
REMARK    4  A    between atoms: N_11  and  C_12
REMARK    5  A    between atoms: C_15  and  C_16
REMARK                            x       y       z     vdW  Elec       q    Type
REMARK                         _______ _______ _______ _____ _____    ______ ____
ROOT
ATOM      1  C   UNL     1      -9.475  16.098  68.137  0.00  0.00    +0.068 A 
ATOM      2  C   UNL     1      -9.499  17.406  67.669  0.00  0.00    +0.016 A 
ATOM      3  C   UNL     1      -8.267  18.045  67.600  0.00  0.00    -0.003 A 
ATOM      4  C   UNL     1      -8.241  19.253  66.952  0.00  0.00    -0.000 A 
ATOM      5  C   UNL     1      -9.433  19.946  66.778  0.00  0.00    -0.000 A 
ATOM      6  C   UNL     1     -10.620  19.487  67.334  0.00  0.00    +0.000 A 
ATOM      7  C   UNL     1      -7.169  17.514  68.249  0.00  0.00    -0.022 A 
ATOM      8  C   UNL     1      -7.245  16.322  68.929  0.00  0.00    -0.003 A 
ATOM      9  C   UNL     1     -10.687  18.126  67.607  0.00  0.00    +0.001 A 
ATOM     10  C   UNL     1      -8.373  15.561  68.748  0.00  0.00    +0.017 A 
ENDROOT
BRANCH   1  12
ATOM     11  C   UNL     1     -11.201  14.815  66.913  0.00  0.00    +0.198 A 
ATOM     12  N   UNL     1     -10.712  15.383  68.037  0.00  0.00    -0.264 N 
ATOM     13  C   UNL     1     -11.333  14.846  69.096  0.00  0.00    +0.205 A 
ATOM     14 BR   UNL     1     -11.181  15.568  70.861  0.00  0.00    -0.006 Br
ATOM     15  N   UNL     1     -12.187  13.910  68.647  0.00  0.00    -0.121 NA
ATOM     16  N   UNL     1     -12.262  14.093  67.330  0.00  0.00    -0.121 NA
BRANCH  11  17
ATOM     17  S   UNL     1     -10.232  14.600  65.415  0.00  0.00    -0.063 S 
BRANCH  17  18
ATOM     18  C   UNL     1     -10.697  13.055  64.586  0.00  0.00    +0.179 C 
BRANCH  18  20
ATOM     19  O   UNL     1     -12.428  14.469  63.830  0.00  0.00    -0.245 OA
ATOM     20  C   UNL     1     -12.079  13.269  64.050  0.00  0.00    +0.376 C 
ATOM     21  O   UNL     1     -13.094  12.449  64.551  0.00  0.00    -0.245 OA
ENDBRANCH  18  20
ENDBRANCH  17  18
ENDBRANCH  11  17
ENDBRANCH   1  12
BRANCH   7  22
ATOM     22  C   UNL     1      -5.877  18.242  68.052  0.00  0.00    +0.022 C 
ATOM     23  C   UNL     1      -5.499  19.014  69.345  0.00  0.00    +0.005 C 
ATOM     24  C   UNL     1      -4.765  17.721  68.925  0.00  0.00    +0.005 C 
ENDBRANCH   7  22
TORSDOF 5
ENDMDL
MODEL 5
REMARK VINA RESULT:      -6.6      3.556      5.940
REMARK  Name = 
REMARK  5 active torsions:
REMARK  status: ('A' for Active; 'I' for Inactive)
REMARK    1  A    between atoms: C_2  and  C_4
REMARK    2  A    between atoms: C_4  and  S_5
REMARK    3  A    between atoms: S_5  and  C_6
REMARK    4  A    between atoms: N_11  and  C_12
REMARK    5  A    between atoms: C_15  and  C_16
REMARK                            x       y       z     vdW  Elec       q    Type
REMARK                         _______ _______ _______ _____ _____    ______ ____
ROOT
ATOM      1  C   UNL     1     -10.212  14.040  67.383  0.00  0.00    +0.068 A 
ATOM      2  C   UNL     1     -10.991  13.754  66.268  0.00  0.00    +0.016 A 
ATOM      3  C   UNL     1     -10.942  12.440  65.818  0.00  0.00    -0.003 A 
ATOM      4  C   UNL     1     -11.853  12.089  64.855  0.00  0.00    -0.000 A 
ATOM      5  C   UNL     1     -12.461  13.094  64.110  0.00  0.00    -0.000 A 
ATOM      6  C   UNL     1     -12.087  14.423  64.255  0.00  0.00    +0.000 A 
ATOM      7  C   UNL     1      -9.950  11.587  66.264  0.00  0.00    -0.022 A 
ATOM      8  C   UNL     1      -9.024  11.989  67.197  0.00  0.00    -0.003 A 
ATOM      9  C   UNL     1     -11.499  14.770  65.465  0.00  0.00    +0.001 A 
ATOM     10  C   UNL     1      -9.254  13.177  67.845  0.00  0.00    +0.017 A 
ENDROOT
BRANCH   1  12
ATOM     11  C   UNL     1     -11.282  15.648  68.930  0.00  0.00    +0.198 A 
ATOM     12  N   UNL     1     -10.402  15.340  67.952  0.00  0.00    -0.264 N 
ATOM     13  C   UNL     1      -9.480  16.310  67.883  0.00  0.00    +0.205 A 
ATOM     14 BR   UNL     1      -8.226  16.445  66.443  0.00  0.00    -0.006 Br
ATOM     15  N   UNL     1      -9.751  17.211  68.841  0.00  0.00    -0.121 NA
ATOM     16  N   UNL     1     -10.972  16.914  69.281  0.00  0.00    -0.121 NA
BRANCH  11  17
ATOM     17  S   UNL     1     -12.155  14.410  69.895  0.00  0.00    -0.063 S 
BRANCH  17  18
ATOM     18  C   UNL     1     -12.405  15.002  71.592  0.00  0.00    +0.179 C 
BRANCH  18  20
ATOM     19  O   UNL     1     -14.519  15.836  72.223  0.00  0.00    -0.245 OA
ATOM     20  C   UNL     1     -13.859  14.805  71.893  0.00  0.00    +0.376 C 
ATOM     21  O   UNL     1     -14.220  13.638  72.573  0.00  0.00    -0.245 OA
ENDBRANCH  18  20
ENDBRANCH  17  18
ENDBRANCH  11  17
ENDBRANCH   1  12
BRANCH   7  22
ATOM     22  C   UNL     1     -10.031  10.176  65.772  0.00  0.00    +0.022 C 
ATOM     23  C   UNL     1      -8.893   9.902  64.752  0.00  0.00    +0.005 C 
ATOM     24  C   UNL     1      -8.853   9.336  66.190  0.00  0.00    +0.005 C 
ENDBRANCH   7  22
TORSDOF 5
ENDMDL
MODEL 6
REMARK VINA RESULT:      -6.5      4.285      6.290
REMARK  Name = 
REMARK  5 active torsions:
REMARK  status: ('A' for Active; 'I' for Inactive)
REMARK    1  A    between atoms: C_2  and  C_4
REMARK    2  A    between atoms: C_4  and  S_5
REMARK    3  A    between atoms: S_5  and  C_6
REMARK    4  A    between atoms: N_11  and  C_12
REMARK    5  A    between atoms: C_15  and  C_16
REMARK                            x       y       z     vdW  Elec       q    Type
REMARK                         _______ _______ _______ _____ _____    ______ ____
ROOT
ATOM      1  C   UNL     1      -9.410  16.378  67.420  0.00  0.00    +0.068 A 
ATOM      2  C   UNL     1     -10.327  15.734  68.242  0.00  0.00    +0.016 A 
ATOM      3  C   UNL     1     -10.859  14.551  67.743  0.00  0.00    -0.003 A 
ATOM      4  C   UNL     1     -11.602  13.799  68.616  0.00  0.00    -0.000 A 
ATOM      5  C   UNL     1     -12.117  14.408  69.755  0.00  0.00    -0.000 A 
ATOM      6  C   UNL     1     -11.979  15.774  69.965  0.00  0.00    +0.000 A 
ATOM      7  C   UNL     1     -10.715  14.231  66.407  0.00  0.00    -0.022 A 
ATOM      8  C   UNL     1     -10.001  15.035  65.549  0.00  0.00    -0.003 A 
ATOM      9  C   UNL     1     -10.921  16.394  69.312  0.00  0.00    +0.001 A 
ATOM     10  C   UNL     1      -9.242  16.035  66.105  0.00  0.00    +0.017 A 
ENDROOT
BRANCH   1  12
ATOM     11  C   UNL     1      -7.571  17.430  68.697  0.00  0.00    +0.198 A 
ATOM     12  N   UNL     1      -8.730  17.493  68.007  0.00  0.00    -0.264 N 
ATOM     13  C   UNL     1      -8.929  18.759  67.616  0.00  0.00    +0.205 A 
ATOM     14 BR   UNL     1     -10.589  19.367  66.883  0.00  0.00    -0.006 Br
ATOM     15  N   UNL     1      -7.878  19.491  68.023  0.00  0.00    -0.121 NA
ATOM     16  N   UNL     1      -7.210  18.718  68.877  0.00  0.00    -0.121 NA
BRANCH  11  17
ATOM     17  S   UNL     1      -6.526  15.969  68.737  0.00  0.00    -0.063 S 
BRANCH  17  18
ATOM     18  C   UNL     1      -4.897  16.383  69.423  0.00  0.00    +0.179 C 
BRANCH  18  20
ATOM     19  O   UNL     1      -5.053  17.687  71.383  0.00  0.00    -0.245 OA
ATOM     20  C   UNL     1      -5.089  16.514  70.903  0.00  0.00    +0.376 C 
ATOM     21  O   UNL     1      -4.508  15.534  71.712  0.00  0.00    -0.245 OA
ENDBRANCH  18  20
ENDBRANCH  17  18
ENDBRANCH  11  17
ENDBRANCH   1  12
BRANCH   7  22
ATOM     22  C   UNL     1     -11.263  12.903  65.989  0.00  0.00    +0.022 C 
ATOM     23  C   UNL     1     -12.553  13.101  65.147  0.00  0.00    +0.005 C 
ATOM     24  C   UNL     1     -11.213  12.685  64.499  0.00  0.00    +0.005 C 
ENDBRANCH   7  22
TORSDOF 5
ENDMDL
MODEL 7
REMARK VINA RESULT:      -6.4      1.551      2.300
REMARK  Name = 
REMARK  5 active torsions:
REMARK  status: ('A' for Active; 'I' for Inactive)
REMARK    1  A    between atoms: C_2  and  C_4
REMARK    2  A    between atoms: C_4  and  S_5
REMARK    3  A    between atoms: S_5  and  C_6
REMARK    4  A    between atoms: N_11  and  C_12
REMARK    5  A    between atoms: C_15  and  C_16
REMARK                            x       y       z     vdW  Elec       q    Type
REMARK                         _______ _______ _______ _____ _____    ______ ____
ROOT
ATOM      1  C   UNL     1     -10.921  13.457  68.099  0.00  0.00    +0.068 A 
ATOM      2  C   UNL     1     -10.521  12.166  67.777  0.00  0.00    +0.016 A 
ATOM      3  C   UNL     1     -11.139  11.147  68.490  0.00  0.00    -0.003 A 
ATOM      4  C   UNL     1     -10.913   9.868  68.049  0.00  0.00    -0.000 A 
ATOM      5  C   UNL     1      -9.815   9.625  67.232  0.00  0.00    -0.000 A 
ATOM      6  C   UNL     1      -8.897  10.627  66.943  0.00  0.00    +0.000 A 
ATOM      7  C   UNL     1     -11.851  11.433  69.639  0.00  0.00    -0.022 A 
ATOM      8  C   UNL     1     -12.017  12.725  70.078  0.00  0.00    -0.003 A 
ATOM      9  C   UNL     1      -9.356  11.933  67.053  0.00  0.00    +0.001 A 
ATOM     10  C   UNL     1     -11.658  13.735  69.219  0.00  0.00    +0.017 A 
ENDROOT
BRANCH   1  12
ATOM     11  C   UNL     1     -10.964  14.864  66.064  0.00  0.00    +0.198 A 
ATOM     12  N   UNL     1     -10.421  14.491  67.243  0.00  0.00    -0.264 N 
ATOM     13  C   UNL     1      -9.615  15.471  67.674  0.00  0.00    +0.205 A 
ATOM     14 BR   UNL     1      -8.404  15.246  69.139  0.00  0.00    -0.006 Br
ATOM     15  N   UNL     1      -9.678  16.481  66.790  0.00  0.00    -0.121 NA
ATOM     16  N   UNL     1     -10.296  15.985  65.720  0.00  0.00    -0.121 NA
BRANCH  11  17
ATOM     17  S   UNL     1     -12.587  14.326  65.512  0.00  0.00    -0.063 S 
BRANCH  17  18
ATOM     18  C   UNL     1     -12.525  12.592  64.982  0.00  0.00    +0.179 C 
BRANCH  18  20
ATOM     19  O   UNL     1     -10.947  12.197  63.274  0.00  0.00    -0.245 OA
ATOM     20  C   UNL     1     -12.116  12.611  63.542  0.00  0.00    +0.376 C 
ATOM     21  O   UNL     1     -12.542  13.696  62.769  0.00  0.00    -0.245 OA
ENDBRANCH  18  20
ENDBRANCH  17  18
ENDBRANCH  11  17
ENDBRANCH   1  12
BRANCH   7  22
ATOM     22  C   UNL     1     -12.535  10.273  70.291  0.00  0.00    +0.022 C 
ATOM     23  C   UNL     1     -11.669   9.734  71.462  0.00  0.00    +0.005 C 
ATOM     24  C   UNL     1     -12.954  10.555  71.710  0.00  0.00    +0.005 C 
ENDBRANCH   7  22
TORSDOF 5
ENDMDL
MODEL 8
REMARK VINA RESULT:      -6.3      7.750      9.478
REMARK  Name = 
REMARK  5 active torsions:
REMARK  status: ('A' for Active; 'I' for Inactive)
REMARK    1  A    between atoms: C_2  and  C_4
REMARK    2  A    between atoms: C_4  and  S_5
REMARK    3  A    between atoms: S_5  and  C_6
REMARK    4  A    between atoms: N_11  and  C_12
REMARK    5  A    between atoms: C_15  and  C_16
REMARK                            x       y       z     vdW  Elec       q    Type
REMARK                         _______ _______ _______ _____ _____    ______ ____
ROOT
ATOM      1  C   UNL     1      -5.708  18.304  68.366  0.00  0.00    +0.068 A 
ATOM      2  C   UNL     1      -5.685  18.561  67.001  0.00  0.00    +0.016 A 
ATOM      3  C   UNL     1      -6.833  19.143  66.477  0.00  0.00    -0.003 A 
ATOM      4  C   UNL     1      -6.755  19.592  65.184  0.00  0.00    -0.000 A 
ATOM      5  C   UNL     1      -5.746  19.099  64.363  0.00  0.00    -0.000 A 
ATOM      6  C   UNL     1      -4.891  18.095  64.798  0.00  0.00    +0.000 A 
ATOM      7  C   UNL     1      -8.003  19.159  67.211  0.00  0.00    -0.022 A 
ATOM      8  C   UNL     1      -8.055  18.656  68.490  0.00  0.00    -0.003 A 
ATOM      9  C   UNL     1      -4.736  17.970  66.173  0.00  0.00    +0.001 A 
ATOM     10  C   UNL     1      -6.863  18.356  69.100  0.00  0.00    +0.017 A 
ENDROOT
BRANCH   1  12
ATOM     11  C   UNL     1      -3.421  18.678  69.236  0.00  0.00    +0.198 A 
ATOM     12  N   UNL     1      -4.465  17.875  68.936  0.00  0.00    -0.264 N 
ATOM     13  C   UNL     1      -4.327  16.722  69.604  0.00  0.00    +0.205 A 
ATOM     14 BR   UNL     1      -5.402  15.181  69.244  0.00  0.00    -0.006 Br
ATOM     15  N   UNL     1      -3.218  16.809  70.358  0.00  0.00    -0.121 NA
ATOM     16  N   UNL     1      -2.570  17.888  69.924  0.00  0.00    -0.121 NA
BRANCH  11  17
ATOM     17  S   UNL     1      -3.530  20.471  69.250  0.00  0.00    -0.063 S 
BRANCH  17  18
ATOM     18  C   UNL     1      -4.779  21.013  70.450  0.00  0.00    +0.179 C 
BRANCH  18  20
ATOM     19  O   UNL     1      -3.798  20.190  72.432  0.00  0.00    -0.245 OA
ATOM     20  C   UNL     1      -4.051  21.224  71.742  0.00  0.00    +0.376 C 
ATOM     21  O   UNL     1      -4.390  22.356  72.490  0.00  0.00    -0.245 OA
ENDBRANCH  18  20
ENDBRANCH  17  18
ENDBRANCH  11  17
ENDBRANCH   1  12
BRANCH   7  22
ATOM     22  C   UNL     1      -9.160  19.871  66.584  0.00  0.00    +0.022 C 
ATOM     23  C   UNL     1     -10.261  18.851  66.185  0.00  0.00    +0.005 C 
ATOM     24  C   UNL     1     -10.421  19.789  67.404  0.00  0.00    +0.005 C 
ENDBRANCH   7  22
TORSDOF 5
ENDMDL
MODEL 9
REMARK VINA RESULT:      -6.3      4.215      6.516
REMARK  Name = 
REMARK  5 active torsions:
REMARK  status: ('A' for Active; 'I' for Inactive)
REMARK    1  A    between atoms: C_2  and  C_4
REMARK    2  A    between atoms: C_4  and  S_5
REMARK    3  A    between atoms: S_5  and  C_6
REMARK    4  A    between atoms: N_11  and  C_12
REMARK    5  A    between atoms: C_15  and  C_16
REMARK                            x       y       z     vdW  Elec       q    Type
REMARK                         _______ _______ _______ _____ _____    ______ ____
ROOT
ATOM      1  C   UNL     1      -9.706  16.218  68.360  0.00  0.00    +0.068 A 
ATOM      2  C   UNL     1      -8.403  16.032  68.803  0.00  0.00    +0.016 A 
ATOM      3  C   UNL     1      -7.610  17.172  68.848  0.00  0.00    -0.003 A 
ATOM      4  C   UNL     1      -6.396  17.049  69.472  0.00  0.00    -0.000 A 
ATOM      5  C   UNL     1      -5.857  15.779  69.645  0.00  0.00    -0.000 A 
ATOM      6  C   UNL     1      -6.475  14.656  69.109  0.00  0.00    +0.000 A 
ATOM      7  C   UNL     1      -8.010  18.324  68.198  0.00  0.00    -0.022 A 
ATOM      8  C   UNL     1      -9.216  18.396  67.541  0.00  0.00    -0.003 A 
ATOM      9  C   UNL     1      -7.838  14.762  68.863  0.00  0.00    +0.001 A 
ATOM     10  C   UNL     1     -10.111  17.375  67.749  0.00  0.00    +0.017 A 
ENDROOT
BRANCH   1  12
ATOM     11  C   UNL     1     -11.327  14.790  69.566  0.00  0.00    +0.198 A 
ATOM     12  N   UNL     1     -10.571  15.083  68.486  0.00  0.00    -0.264 N 
ATOM     13  C   UNL     1     -11.043  14.404  67.432  0.00  0.00    +0.205 A 
ATOM     14 BR   UNL     1     -10.095  14.275  65.775  0.00  0.00    -0.006 Br
ATOM     15  N   UNL     1     -12.122  13.711  67.833  0.00  0.00    -0.121 NA
ATOM     16  N   UNL     1     -12.114  13.769  69.164  0.00  0.00    -0.121 NA
BRANCH  11  17
ATOM     17  S   UNL     1     -11.607  15.942  70.916  0.00  0.00    -0.063 S 
BRANCH  17  18
ATOM     18  C   UNL     1     -12.239  15.059  72.370  0.00  0.00    +0.179 C 
BRANCH  18  20
ATOM     19  O   UNL     1     -14.462  15.843  72.271  0.00  0.00    -0.245 OA
ATOM     20  C   UNL     1     -13.700  14.840  72.122  0.00  0.00    +0.376 C 
ATOM     21  O   UNL     1     -14.246  13.625  72.546  0.00  0.00    -0.245 OA
ENDBRANCH  18  20
ENDBRANCH  17  18
ENDBRANCH  11  17
ENDBRANCH   1  12
BRANCH   7  22
ATOM     22  C   UNL     1      -7.120  19.514  68.368  0.00  0.00    +0.022 C 
ATOM     23  C   UNL     1      -6.233  19.700  67.106  0.00  0.00    +0.005 C 
ATOM     24  C   UNL     1      -7.432  20.629  67.404  0.00  0.00    +0.005 C 
ENDBRANCH   7  22
TORSDOF 5
ENDMDL
