MODEL 1
REMARK VINA RESULT:      -4.3      0.000      0.000
REMARK  Name = 
REMARK  3 active torsions:
REMARK  status: ('A' for Active; 'I' for Inactive)
REMARK    1  A    between atoms: N_4  and  CA_5
REMARK    2  A    between atoms: CA_5  and  CB_6
REMARK    3  A    between atoms: CA_5  and  C_8
REMARK                            x       y       z     vdW  Elec       q    Type
REMARK                         _______ _______ _______ _____ _____    ______ ____
ROOT
ATOM      1  CA  CYS A   1     -11.692  14.725  65.380  0.00  0.00    +0.209 C 
ENDROOT
BRANCH   1   4
ATOM      2  C   UNK A   0     -11.137  11.478  63.581  0.00  0.00    +0.096 C 
ATOM      3  C   UNK A   0     -11.601  12.576  63.952  0.00  0.00    +0.242 C 
ATOM      4  N   CYS A   1     -10.926  13.582  64.611  0.00  0.00    -0.195 NA
ATOM      5  O   UNK A   0     -12.477  13.071  63.172  0.00  0.00    -0.273 OA
ENDBRANCH   1   4
BRANCH   1   6
ATOM      6  C   CYS A   1     -10.796  15.965  64.843  0.00  0.00    +0.385 C 
ATOM      7  OXT CYS A   1     -11.654  16.591  63.913  0.00  0.00    -0.244 OA
ATOM      8  O   CYS A   1     -10.412  16.800  65.660  0.00  0.00    -0.244 OA
ENDBRANCH   1   6
BRANCH   1   9
ATOM      9  CB  CYS A   1     -10.882  14.428  66.775  0.00  0.00    +0.102 C 
ATOM     10  SG  CYS A   1     -11.665  13.747  68.075  0.00  0.00    -0.080 S 
ENDBRANCH   1   9
TORSDOF 3
ENDMDL
MODEL 2
REMARK VINA RESULT:      -4.1      1.940      3.887
REMARK  Name = 
REMARK  3 active torsions:
REMARK  status: ('A' for Active; 'I' for Inactive)
REMARK    1  A    between atoms: N_4  and  CA_5
REMARK    2  A    between atoms: CA_5  and  CB_6
REMARK    3  A    between atoms: CA_5  and  C_8
REMARK                            x       y       z     vdW  Elec       q    Type
REMARK                         _______ _______ _______ _____ _____    ______ ____
ROOT
ATOM      1  CA  CYS A   1     -10.726  14.925  65.095  0.00  0.00    +0.209 C 
ENDROOT
BRANCH   1   4
ATOM      2  C   UNK A   0      -9.634  18.196  66.575  0.00  0.00    +0.096 C 
ATOM      3  C   UNK A   0      -9.644  17.040  66.104  0.00  0.00    +0.242 C 
ATOM      4  N   CYS A   1     -10.607  16.484  65.289  0.00  0.00    -0.195 NA
ATOM      5  O   UNK A   0      -8.495  16.582  65.804  0.00  0.00    -0.273 OA
ENDBRANCH   1   4
BRANCH   1   6
ATOM      6  C   CYS A   1     -12.205  14.916  64.431  0.00  0.00    +0.385 C 
ATOM      7  OXT CYS A   1     -12.258  16.162  63.768  0.00  0.00    -0.244 OA
ATOM      8  O   CYS A   1     -12.477  14.024  63.630  0.00  0.00    -0.244 OA
ENDBRANCH   1   6
BRANCH   1   9
ATOM      9  CB  CYS A   1     -11.162  14.691  66.658  0.00  0.00    +0.102 C 
ATOM     10  SG  CYS A   1     -11.649  13.189  67.182  0.00  0.00    -0.080 S 
ENDBRANCH   1   9
TORSDOF 3
ENDMDL
MODEL 3
REMARK VINA RESULT:      -4.1      5.887      6.974
REMARK  Name = 
REMARK  3 active torsions:
REMARK  status: ('A' for Active; 'I' for Inactive)
REMARK    1  A    between atoms: N_4  and  CA_5
REMARK    2  A    between atoms: CA_5  and  CB_6
REMARK    3  A    between atoms: CA_5  and  C_8
REMARK                            x       y       z     vdW  Elec       q    Type
REMARK                         _______ _______ _______ _____ _____    ______ ____
ROOT
ATOM      1  CA  CYS A   1     -12.586  14.842  71.562  0.00  0.00    +0.209 C 
ENDROOT
BRANCH   1   4
ATOM      2  C   UNK A   0     -11.167  16.370  68.441  0.00  0.00    +0.096 C 
ATOM      3  C   UNK A   0     -11.627  15.564  69.276  0.00  0.00    +0.242 C 
ATOM      4  N   CYS A   1     -12.409  15.861  70.373  0.00  0.00    -0.195 NA
ATOM      5  O   UNK A   0     -11.957  14.433  68.794  0.00  0.00    -0.273 OA
ENDBRANCH   1   4
BRANCH   1   6
ATOM      6  C   CYS A   1     -14.203  14.756  71.516  0.00  0.00    +0.385 C 
ATOM      7  OXT CYS A   1     -14.485  13.696  72.405  0.00  0.00    -0.244 OA
ATOM      8  O   CYS A   1     -14.848  15.746  71.856  0.00  0.00    -0.244 OA
ENDBRANCH   1   6
BRANCH   1   9
ATOM      9  CB  CYS A   1     -12.438  16.023  72.690  0.00  0.00    +0.102 C 
ATOM     10  SG  CYS A   1     -12.391  15.642  74.309  0.00  0.00    -0.080 S 
ENDBRANCH   1   9
TORSDOF 3
ENDMDL
MODEL 4
REMARK VINA RESULT:      -4.1      1.688      3.678
REMARK  Name = 
REMARK  3 active torsions:
REMARK  status: ('A' for Active; 'I' for Inactive)
REMARK    1  A    between atoms: N_4  and  CA_5
REMARK    2  A    between atoms: CA_5  and  CB_6
REMARK    3  A    between atoms: CA_5  and  C_8
REMARK                            x       y       z     vdW  Elec       q    Type
REMARK                         _______ _______ _______ _____ _____    ______ ____
ROOT
ATOM      1  CA  CYS A   1     -11.096  13.591  64.566  0.00  0.00    +0.209 C 
ENDROOT
BRANCH   1   4
ATOM      2  C   UNK A   0     -10.233  16.845  66.224  0.00  0.00    +0.096 C 
ATOM      3  C   UNK A   0     -10.570  15.981  65.389  0.00  0.00    +0.242 C 
ATOM      4  N   CYS A   1     -11.093  14.732  65.652  0.00  0.00    -0.195 NA
ATOM      5  O   UNK A   0     -11.066  16.448  64.314  0.00  0.00    -0.273 OA
ENDBRANCH   1   4
BRANCH   1   6
ATOM      6  C   CYS A   1     -12.537  12.954  64.945  0.00  0.00    +0.385 C 
ATOM      7  OXT CYS A   1     -13.301  14.091  65.289  0.00  0.00    -0.244 OA
ATOM      8  O   CYS A   1     -13.136  12.315  64.082  0.00  0.00    -0.244 OA
ENDBRANCH   1   6
BRANCH   1   9
ATOM      9  CB  CYS A   1     -10.151  12.615  65.485  0.00  0.00    +0.102 C 
ATOM     10  SG  CYS A   1     -10.783  11.836  66.811  0.00  0.00    -0.080 S 
ENDBRANCH   1   9
TORSDOF 3
ENDMDL
MODEL 5
REMARK VINA RESULT:      -4.0      2.845      3.429
REMARK  Name = 
REMARK  3 active torsions:
REMARK  status: ('A' for Active; 'I' for Inactive)
REMARK    1  A    between atoms: N_4  and  CA_5
REMARK    2  A    between atoms: CA_5  and  CB_6
REMARK    3  A    between atoms: CA_5  and  C_8
REMARK                            x       y       z     vdW  Elec       q    Type
REMARK                         _______ _______ _______ _____ _____    ______ ____
ROOT
ATOM      1  CA  CYS A   1     -11.906  13.436  66.011  0.00  0.00    +0.209 C 
ENDROOT
BRANCH   1   4
ATOM      2  C   UNK A   0     -10.867  10.118  67.424  0.00  0.00    +0.096 C 
ATOM      3  C   UNK A   0     -11.343  11.264  67.288  0.00  0.00    +0.242 C 
ATOM      4  N   CYS A   1     -11.709  11.876  66.107  0.00  0.00    -0.195 NA
ATOM      5  O   UNK A   0     -12.114  11.633  68.231  0.00  0.00    -0.273 OA
ENDBRANCH   1   4
BRANCH   1   6
ATOM      6  C   CYS A   1     -12.169  13.510  64.414  0.00  0.00    +0.385 C 
ATOM      7  OXT CYS A   1     -13.087  12.457  64.200  0.00  0.00    -0.244 OA
ATOM      8  O   CYS A   1     -12.635  14.548  63.949  0.00  0.00    -0.244 OA
ENDBRANCH   1   6
BRANCH   1   9
ATOM      9  CB  CYS A   1     -10.289  13.713  66.002  0.00  0.00    +0.102 C 
ATOM     10  SG  CYS A   1      -9.700  15.267  65.968  0.00  0.00    -0.080 S 
ENDBRANCH   1   9
TORSDOF 3
ENDMDL
MODEL 6
REMARK VINA RESULT:      -4.0      2.711      4.791
REMARK  Name = 
REMARK  3 active torsions:
REMARK  status: ('A' for Active; 'I' for Inactive)
REMARK    1  A    between atoms: N_4  and  CA_5
REMARK    2  A    between atoms: CA_5  and  CB_6
REMARK    3  A    between atoms: CA_5  and  C_8
REMARK                            x       y       z     vdW  Elec       q    Type
REMARK                         _______ _______ _______ _____ _____    ______ ____
ROOT
ATOM      1  CA  CYS A   1      -9.857  16.330  66.023  0.00  0.00    +0.209 C 
ENDROOT
BRANCH   1   4
ATOM      2  C   UNK A   0     -10.167  20.031  66.566  0.00  0.00    +0.096 C 
ATOM      3  C   UNK A   0      -9.715  18.874  66.437  0.00  0.00    +0.242 C 
ATOM      4  N   CYS A   1     -10.309  17.820  65.777  0.00  0.00    -0.195 NA
ATOM      5  O   UNK A   0      -8.449  18.811  66.317  0.00  0.00    -0.273 OA
ENDBRANCH   1   4
BRANCH   1   6
ATOM      6  C   CYS A   1     -11.004  15.620  65.124  0.00  0.00    +0.385 C 
ATOM      7  OXT CYS A   1     -11.327  16.620  64.181  0.00  0.00    -0.244 OA
ATOM      8  O   CYS A   1     -10.715  14.585  64.526  0.00  0.00    -0.244 OA
ENDBRANCH   1   6
BRANCH   1   9
ATOM      9  CB  CYS A   1     -10.615  16.264  67.476  0.00  0.00    +0.102 C 
ATOM     10  SG  CYS A   1     -11.253  14.832  68.029  0.00  0.00    -0.080 S 
ENDBRANCH   1   9
TORSDOF 3
ENDMDL
MODEL 7
REMARK VINA RESULT:      -3.9      2.638      3.577
REMARK  Name = 
REMARK  3 active torsions:
REMARK  status: ('A' for Active; 'I' for Inactive)
REMARK    1  A    between atoms: N_4  and  CA_5
REMARK    2  A    between atoms: CA_5  and  CB_6
REMARK    3  A    between atoms: CA_5  and  C_8
REMARK                            x       y       z     vdW  Elec       q    Type
REMARK                         _______ _______ _______ _____ _____    ______ ____
ROOT
ATOM      1  CA  CYS A   1     -10.078  17.917  66.550  0.00  0.00    +0.209 C 
ENDROOT
BRANCH   1   4
ATOM      2  C   UNK A   0     -10.870  14.747  64.704  0.00  0.00    +0.096 C 
ATOM      3  C   UNK A   0     -10.828  15.940  65.069  0.00  0.00    +0.242 C 
ATOM      4  N   CYS A   1      -9.837  16.546  65.811  0.00  0.00    -0.195 NA
ATOM      5  O   UNK A   0     -11.323  16.766  64.237  0.00  0.00    -0.273 OA
ENDBRANCH   1   4
BRANCH   1   6
ATOM      6  C   CYS A   1      -8.574  18.500  66.392  0.00  0.00    +0.385 C 
ATOM      7  OXT CYS A   1      -7.888  17.431  65.774  0.00  0.00    -0.244 OA
ATOM      8  O   CYS A   1      -8.413  19.519  65.723  0.00  0.00    -0.244 OA
ENDBRANCH   1   6
BRANCH   1   9
ATOM      9  CB  CYS A   1      -9.916  17.230  68.030  0.00  0.00    +0.102 C 
ATOM     10  SG  CYS A   1     -11.147  16.317  68.675  0.00  0.00    -0.080 S 
ENDBRANCH   1   9
TORSDOF 3
ENDMDL
MODEL 8
REMARK VINA RESULT:      -3.9      2.926      4.068
REMARK  Name = 
REMARK  3 active torsions:
REMARK  status: ('A' for Active; 'I' for Inactive)
REMARK    1  A    between atoms: N_4  and  CA_5
REMARK    2  A    between atoms: CA_5  and  CB_6
REMARK    3  A    between atoms: CA_5  and  C_8
REMARK                            x       y       z     vdW  Elec       q    Type
REMARK                         _______ _______ _______ _____ _____    ______ ____
ROOT
ATOM      1  CA  CYS A   1     -10.850  12.649  64.369  0.00  0.00    +0.209 C 
ENDROOT
BRANCH   1   4
ATOM      2  C   UNK A   0     -11.756  12.225  67.986  0.00  0.00    +0.096 C 
ATOM      3  C   UNK A   0     -11.415  12.709  66.888  0.00  0.00    +0.242 C 
ATOM      4  N   CYS A   1     -11.662  12.183  65.637  0.00  0.00    -0.195 NA
ATOM      5  O   UNK A   0     -11.432  13.981  66.842  0.00  0.00    -0.273 OA
ENDBRANCH   1   4
BRANCH   1   6
ATOM      6  C   CYS A   1     -12.121  13.083  63.462  0.00  0.00    +0.385 C 
ATOM      7  OXT CYS A   1     -13.075  12.086  63.763  0.00  0.00    -0.244 OA
ATOM      8  O   CYS A   1     -12.623  14.189  63.656  0.00  0.00    -0.244 OA
ENDBRANCH   1   6
BRANCH   1   9
ATOM      9  CB  CYS A   1     -10.679  11.112  63.825  0.00  0.00    +0.102 C 
ATOM     10  SG  CYS A   1      -9.395  10.701  62.851  0.00  0.00    -0.080 S 
ENDBRANCH   1   9
TORSDOF 3
ENDMDL
MODEL 9
REMARK VINA RESULT:      -3.6      2.001      2.033
REMARK  Name = 
REMARK  3 active torsions:
REMARK  status: ('A' for Active; 'I' for Inactive)
REMARK    1  A    between atoms: N_4  and  CA_5
REMARK    2  A    between atoms: CA_5  and  CB_6
REMARK    3  A    between atoms: CA_5  and  C_8
REMARK                            x       y       z     vdW  Elec       q    Type
REMARK                         _______ _______ _______ _____ _____    ______ ____
ROOT
ATOM      1  CA  CYS A   1     -11.568  14.872  66.306  0.00  0.00    +0.209 C 
ENDROOT
BRANCH   1   4
ATOM      2  C   UNK A   0     -10.894  11.201  66.706  0.00  0.00    +0.096 C 
ATOM      3  C   UNK A   0     -11.421  12.297  66.422  0.00  0.00    +0.242 C 
ATOM      4  N   CYS A   1     -10.781  13.507  66.258  0.00  0.00    -0.195 NA
ATOM      5  O   UNK A   0     -12.418  12.216  65.635  0.00  0.00    -0.273 OA
ENDBRANCH   1   4
BRANCH   1   6
ATOM      6  C   CYS A   1     -11.154  15.397  64.830  0.00  0.00    +0.385 C 
ATOM      7  OXT CYS A   1     -12.333  15.184  64.081  0.00  0.00    -0.244 OA
ATOM      8  O   CYS A   1     -10.807  16.569  64.706  0.00  0.00    -0.244 OA
ENDBRANCH   1   6
BRANCH   1   9
ATOM      9  CB  CYS A   1     -10.381  15.609  67.165  0.00  0.00    +0.102 C 
ATOM     10  SG  CYS A   1     -10.756  16.567  68.471  0.00  0.00    -0.080 S 
ENDBRANCH   1   9
TORSDOF 3
ENDMDL
