MODEL 1
REMARK VINA RESULT:      -6.4      0.000      0.000
REMARK  Name = 
REMARK  7 active torsions:
REMARK  status: ('A' for Active; 'I' for Inactive)
REMARK    1  A    between atoms: C_2  and  N_3
REMARK    2  A    between atoms: N_3  and  C_4
REMARK    3  A    between atoms: N_6  and  C_7
REMARK    4  A    between atoms: C_7  and  C_8
REMARK    5  A    between atoms: C_8  and  C_9
REMARK    6  A    between atoms: C_9  and  O_10
REMARK    7  A    between atoms: C_17  and  S_18
REMARK                            x       y       z     vdW  Elec       q    Type
REMARK                         _______ _______ _______ _____ _____    ______ ____
ROOT
ATOM      1  C   UNL     1     -11.149  16.679  68.608  0.00  0.00    +0.114 C 
ATOM      2  C   UNL     1     -10.597  15.790  67.369  0.00  0.00    +0.022 A 
ATOM      3  C   UNL     1     -10.251  16.434  66.243  0.00  0.00    +0.150 A 
ATOM      4  S   UNL     1     -10.631  15.278  65.020  0.00  0.00    -0.048 S 
ATOM      5  C   UNL     1     -11.483  14.154  65.996  0.00  0.00    +0.155 A 
ATOM      6  S   UNL     1      -8.909  17.582  66.421  0.00  0.00    +0.069 S 
ATOM      7  O   UNL     1      -7.666  17.142  65.766  0.00  0.00    -0.152 OA
ATOM      8  O   UNL     1      -9.392  18.931  66.019  0.00  0.00    -0.152 OA
ATOM      9  N   UNL     1      -8.831  17.525  68.161  0.00  0.00    -0.153 NA
ATOM     10  C   UNL     1     -11.181  14.579  67.238  0.00  0.00    +0.026 A 
ATOM     11  C   UNL     1     -10.103  17.939  68.476  0.00  0.00    +0.118 C 
ENDROOT
BRANCH   5  12
ATOM     12  S   UNL     1     -11.926  12.510  65.532  0.00  0.00    +0.099 S 
ATOM     13  O   UNL     1     -13.197  12.549  64.741  0.00  0.00    -0.150 OA
ATOM     14  O   UNL     1     -12.047  11.699  66.776  0.00  0.00    -0.150 OA
ATOM     15  N   UNL     1     -10.653  11.868  64.581  0.00  0.00    +0.040 NA
ENDBRANCH   5  12
BRANCH   1  16
ATOM     16  N   UNL     1     -10.226  15.943  69.656  0.00  0.00    -0.214 NA
BRANCH  16  18
ATOM     17  C   UNL     1     -11.322  15.388  71.037  0.00  0.00    +0.020 C 
ATOM     18  C   UNL     1     -11.235  15.777  70.708  0.00  0.00    +0.089 C 
ENDBRANCH  16  18
ENDBRANCH   1  16
BRANCH   9  19
ATOM     19  C   UNL     1      -7.661  17.930  68.757  0.00  0.00    +0.098 C 
BRANCH  19  20
ATOM     20  C   UNL     1      -7.566  19.413  68.967  0.00  0.00    +0.051 C 
BRANCH  20  21
ATOM     21  C   UNL     1      -6.339  19.912  69.561  0.00  0.00    +0.144 C 
BRANCH  21  22
ATOM     22  O   UNL     1      -6.270  20.439  70.770  0.00  0.00    -0.351 OA
ATOM     23  C   UNL     1      -5.335  20.097  71.673  0.00  0.00    +0.174 C 
ENDBRANCH  21  22
ENDBRANCH  20  21
ENDBRANCH  19  20
ENDBRANCH   9  19
TORSDOF 7
ENDMDL
MODEL 2
REMARK VINA RESULT:      -6.3      3.605      6.705
REMARK  Name = 
REMARK  7 active torsions:
REMARK  status: ('A' for Active; 'I' for Inactive)
REMARK    1  A    between atoms: C_2  and  N_3
REMARK    2  A    between atoms: N_3  and  C_4
REMARK    3  A    between atoms: N_6  and  C_7
REMARK    4  A    between atoms: C_7  and  C_8
REMARK    5  A    between atoms: C_8  and  C_9
REMARK    6  A    between atoms: C_9  and  O_10
REMARK    7  A    between atoms: C_17  and  S_18
REMARK                            x       y       z     vdW  Elec       q    Type
REMARK                         _______ _______ _______ _____ _____    ______ ____
ROOT
ATOM      1  C   UNL     1     -10.347  12.615  68.641  0.00  0.00    +0.114 C 
ATOM      2  C   UNL     1     -11.182  13.926  69.107  0.00  0.00    +0.022 A 
ATOM      3  C   UNL     1     -10.532  15.099  69.149  0.00  0.00    +0.150 A 
ATOM      4  S   UNL     1     -11.320  15.916  70.447  0.00  0.00    -0.048 S 
ATOM      5  C   UNL     1     -12.236  14.598  71.052  0.00  0.00    +0.155 A 
ATOM      6  S   UNL     1      -9.913  15.667  67.585  0.00  0.00    +0.069 S 
ATOM      7  O   UNL     1     -10.634  16.837  67.056  0.00  0.00    -0.152 OA
ATOM      8  O   UNL     1      -8.439  15.829  67.696  0.00  0.00    -0.152 OA
ATOM      9  N   UNL     1     -10.237  14.199  66.701  0.00  0.00    -0.153 NA
ATOM     10  C   UNL     1     -12.110  13.695  70.061  0.00  0.00    +0.026 A 
ATOM     11  C   UNL     1      -9.485  13.307  67.426  0.00  0.00    +0.118 C 
ENDROOT
BRANCH   5  12
ATOM     12  S   UNL     1     -13.568  14.707  72.205  0.00  0.00    +0.099 S 
ATOM     13  O   UNL     1     -14.064  13.329  72.513  0.00  0.00    -0.150 OA
ATOM     14  O   UNL     1     -14.619  15.579  71.610  0.00  0.00    -0.150 OA
ATOM     15  N   UNL     1     -12.974  15.458  73.627  0.00  0.00    +0.040 NA
ENDBRANCH   5  12
BRANCH   1  16
ATOM     16  N   UNL     1     -11.481  12.142  67.650  0.00  0.00    -0.214 NA
BRANCH  16  18
ATOM     17  C   UNL     1     -11.259  10.340  68.000  0.00  0.00    +0.020 C 
ATOM     18  C   UNL     1     -11.150  10.712  67.659  0.00  0.00    +0.089 C 
ENDBRANCH  16  18
ENDBRANCH   1  16
BRANCH   9  19
ATOM     19  C   UNL     1     -10.318  14.289  65.332  0.00  0.00    +0.098 C 
BRANCH  19  20
ATOM     20  C   UNL     1     -11.705  14.546  64.819  0.00  0.00    +0.051 C 
BRANCH  20  21
ATOM     21  C   UNL     1     -12.748  13.647  65.278  0.00  0.00    +0.144 C 
BRANCH  21  22
ATOM     22  O   UNL     1     -13.095  12.541  64.645  0.00  0.00    -0.351 OA
ATOM     23  C   UNL     1     -12.487  12.108  63.527  0.00  0.00    +0.174 C 
ENDBRANCH  21  22
ENDBRANCH  20  21
ENDBRANCH  19  20
ENDBRANCH   9  19
TORSDOF 7
ENDMDL
MODEL 3
REMARK VINA RESULT:      -5.7      1.652      2.256
REMARK  Name = 
REMARK  7 active torsions:
REMARK  status: ('A' for Active; 'I' for Inactive)
REMARK    1  A    between atoms: C_2  and  N_3
REMARK    2  A    between atoms: N_3  and  C_4
REMARK    3  A    between atoms: N_6  and  C_7
REMARK    4  A    between atoms: C_7  and  C_8
REMARK    5  A    between atoms: C_8  and  C_9
REMARK    6  A    between atoms: C_9  and  O_10
REMARK    7  A    between atoms: C_17  and  S_18
REMARK                            x       y       z     vdW  Elec       q    Type
REMARK                         _______ _______ _______ _____ _____    ______ ____
ROOT
ATOM      1  C   UNL     1     -11.190  16.650  68.629  0.00  0.00    +0.114 C 
ATOM      2  C   UNL     1     -10.643  15.793  67.365  0.00  0.00    +0.022 A 
ATOM      3  C   UNL     1     -10.334  16.462  66.242  0.00  0.00    +0.150 A 
ATOM      4  S   UNL     1     -10.712  15.316  65.010  0.00  0.00    -0.048 S 
ATOM      5  C   UNL     1     -11.518  14.158  65.984  0.00  0.00    +0.155 A 
ATOM      6  S   UNL     1      -9.016  17.638  66.412  0.00  0.00    +0.069 S 
ATOM      7  O   UNL     1      -7.775  17.236  65.727  0.00  0.00    -0.152 OA
ATOM      8  O   UNL     1      -9.537  18.981  66.041  0.00  0.00    -0.152 OA
ATOM      9  N   UNL     1      -8.902  17.556  68.150  0.00  0.00    -0.153 NA
ATOM     10  C   UNL     1     -11.201  14.571  67.226  0.00  0.00    +0.026 A 
ATOM     11  C   UNL     1     -10.176  17.936  68.496  0.00  0.00    +0.118 C 
ENDROOT
BRANCH   5  12
ATOM     12  S   UNL     1     -11.933  12.511  65.503  0.00  0.00    +0.099 S 
ATOM     13  O   UNL     1     -13.199  12.537  64.703  0.00  0.00    -0.150 OA
ATOM     14  O   UNL     1     -12.050  11.688  66.739  0.00  0.00    -0.150 OA
ATOM     15  N   UNL     1     -10.643  11.897  64.556  0.00  0.00    +0.040 NA
ENDBRANCH   5  12
BRANCH   1  16
ATOM     16  N   UNL     1     -10.230  15.919  69.647  0.00  0.00    -0.214 NA
BRANCH  16  18
ATOM     17  C   UNL     1     -11.315  15.647  71.118  0.00  0.00    +0.020 C 
ATOM     18  C   UNL     1     -11.256  15.527  70.619  0.00  0.00    +0.089 C 
ENDBRANCH  16  18
ENDBRANCH   1  16
BRANCH   9  19
ATOM     19  C   UNL     1      -7.729  17.979  68.729  0.00  0.00    +0.098 C 
BRANCH  19  20
ATOM     20  C   UNL     1      -6.654  16.934  68.761  0.00  0.00    +0.051 C 
BRANCH  20  21
ATOM     21  C   UNL     1      -6.944  15.719  69.501  0.00  0.00    +0.144 C 
BRANCH  21  22
ATOM     22  O   UNL     1      -7.107  14.536  68.936  0.00  0.00    -0.351 OA
ATOM     23  C   UNL     1      -7.192  14.358  67.607  0.00  0.00    +0.174 C 
ENDBRANCH  21  22
ENDBRANCH  20  21
ENDBRANCH  19  20
ENDBRANCH   9  19
TORSDOF 7
ENDMDL
MODEL 4
REMARK VINA RESULT:      -5.7      3.528      4.691
REMARK  Name = 
REMARK  7 active torsions:
REMARK  status: ('A' for Active; 'I' for Inactive)
REMARK    1  A    between atoms: C_2  and  N_3
REMARK    2  A    between atoms: N_3  and  C_4
REMARK    3  A    between atoms: N_6  and  C_7
REMARK    4  A    between atoms: C_7  and  C_8
REMARK    5  A    between atoms: C_8  and  C_9
REMARK    6  A    between atoms: C_9  and  O_10
REMARK    7  A    between atoms: C_17  and  S_18
REMARK                            x       y       z     vdW  Elec       q    Type
REMARK                         _______ _______ _______ _____ _____    ______ ____
ROOT
ATOM      1  C   UNL     1     -10.899  16.991  68.060  0.00  0.00    +0.114 C 
ATOM      2  C   UNL     1     -10.980  15.747  69.098  0.00  0.00    +0.022 A 
ATOM      3  C   UNL     1     -11.064  14.509  68.585  0.00  0.00    +0.150 A 
ATOM      4  S   UNL     1     -12.009  13.680  69.765  0.00  0.00    -0.048 S 
ATOM      5  C   UNL     1     -12.489  15.036  70.699  0.00  0.00    +0.155 A 
ATOM      6  S   UNL     1      -9.668  14.008  67.610  0.00  0.00    +0.069 S 
ATOM      7  O   UNL     1      -8.842  12.972  68.252  0.00  0.00    -0.152 OA
ATOM      8  O   UNL     1     -10.149  13.676  66.242  0.00  0.00    -0.152 OA
ATOM      9  N   UNL     1      -8.897  15.570  67.554  0.00  0.00    -0.153 NA
ATOM     10  C   UNL     1     -11.673  15.999  70.230  0.00  0.00    +0.026 A 
ATOM     11  C   UNL     1      -9.889  16.311  66.958  0.00  0.00    +0.118 C 
ENDROOT
BRANCH   5  12
ATOM     12  S   UNL     1     -13.229  14.979  72.301  0.00  0.00    +0.099 S 
ATOM     13  O   UNL     1     -14.316  16.006  72.376  0.00  0.00    -0.150 OA
ATOM     14  O   UNL     1     -12.155  15.202  73.309  0.00  0.00    -0.150 OA
ATOM     15  N   UNL     1     -13.876  13.408  72.528  0.00  0.00    +0.040 NA
ENDBRANCH   5  12
BRANCH   1  16
ATOM     16  N   UNL     1      -9.701  17.667  68.834  0.00  0.00    -0.214 NA
BRANCH  16  18
ATOM     17  C   UNL     1     -10.117  19.383  68.287  0.00  0.00    +0.020 C 
ATOM     18  C   UNL     1      -9.794  18.988  68.203  0.00  0.00    +0.089 C 
ENDBRANCH  16  18
ENDBRANCH   1  16
BRANCH   9  19
ATOM     19  C   UNL     1      -7.554  15.604  67.262  0.00  0.00    +0.098 C 
BRANCH  19  20
ATOM     20  C   UNL     1      -7.129  16.816  66.488  0.00  0.00    +0.051 C 
BRANCH  20  21
ATOM     21  C   UNL     1      -6.402  17.838  67.219  0.00  0.00    +0.144 C 
BRANCH  21  22
ATOM     22  O   UNL     1      -6.306  17.870  68.536  0.00  0.00    -0.351 OA
ATOM     23  C   UNL     1      -6.162  19.005  69.239  0.00  0.00    +0.174 C 
ENDBRANCH  21  22
ENDBRANCH  20  21
ENDBRANCH  19  20
ENDBRANCH   9  19
TORSDOF 7
ENDMDL
MODEL 5
REMARK VINA RESULT:      -5.6      2.828      7.527
REMARK  Name = 
REMARK  7 active torsions:
REMARK  status: ('A' for Active; 'I' for Inactive)
REMARK    1  A    between atoms: C_2  and  N_3
REMARK    2  A    between atoms: N_3  and  C_4
REMARK    3  A    between atoms: N_6  and  C_7
REMARK    4  A    between atoms: C_7  and  C_8
REMARK    5  A    between atoms: C_8  and  C_9
REMARK    6  A    between atoms: C_9  and  O_10
REMARK    7  A    between atoms: C_17  and  S_18
REMARK                            x       y       z     vdW  Elec       q    Type
REMARK                         _______ _______ _______ _____ _____    ______ ____
ROOT
ATOM      1  C   UNL     1      -9.996  18.083  67.652  0.00  0.00    +0.114 C 
ATOM      2  C   UNL     1      -8.386  17.922  67.776  0.00  0.00    +0.022 A 
ATOM      3  C   UNL     1      -7.915  16.907  68.518  0.00  0.00    +0.150 A 
ATOM      4  S   UNL     1      -6.449  17.559  69.152  0.00  0.00    -0.048 S 
ATOM      5  C   UNL     1      -6.671  19.190  68.669  0.00  0.00    +0.155 A 
ATOM      6  S   UNL     1      -8.343  15.289  67.928  0.00  0.00    +0.069 S 
ATOM      7  O   UNL     1      -7.201  14.543  67.372  0.00  0.00    -0.152 OA
ATOM      8  O   UNL     1      -9.096  14.586  69.000  0.00  0.00    -0.152 OA
ATOM      9  N   UNL     1      -9.479  15.816  66.715  0.00  0.00    -0.153 NA
ATOM     10  C   UNL     1      -7.702  19.087  67.810  0.00  0.00    +0.026 A 
ATOM     11  C   UNL     1     -10.379  16.493  67.503  0.00  0.00    +0.118 C 
ENDROOT
BRANCH   5  12
ATOM     12  S   UNL     1      -5.431  20.446  68.671  0.00  0.00    +0.099 S 
ATOM     13  O   UNL     1      -4.100  19.823  68.385  0.00  0.00    -0.150 OA
ATOM     14  O   UNL     1      -5.474  21.131  69.994  0.00  0.00    -0.150 OA
ATOM     15  N   UNL     1      -5.830  21.584  67.453  0.00  0.00    +0.040 NA
ENDBRANCH   5  12
BRANCH   1  16
ATOM     16  N   UNL     1      -9.939  18.281  66.087  0.00  0.00    -0.214 NA
BRANCH  16  18
ATOM     17  C   UNL     1     -10.662  19.931  65.675  0.00  0.00    +0.020 C 
ATOM     18  C   UNL     1     -10.653  19.561  66.036  0.00  0.00    +0.089 C 
ENDBRANCH  16  18
ENDBRANCH   1  16
BRANCH   9  19
ATOM     19  C   UNL     1      -9.769  14.941  65.696  0.00  0.00    +0.098 C 
BRANCH  19  20
ATOM     20  C   UNL     1     -11.161  14.384  65.750  0.00  0.00    +0.051 C 
BRANCH  20  21
ATOM     21  C   UNL     1     -12.004  14.615  64.590  0.00  0.00    +0.144 C 
BRANCH  21  22
ATOM     22  O   UNL     1     -12.669  13.661  63.964  0.00  0.00    -0.351 OA
ATOM     23  C   UNL     1     -12.075  12.600  63.393  0.00  0.00    +0.174 C 
ENDBRANCH  21  22
ENDBRANCH  20  21
ENDBRANCH  19  20
ENDBRANCH   9  19
TORSDOF 7
ENDMDL
MODEL 6
REMARK VINA RESULT:      -5.5      2.774      7.372
REMARK  Name = 
REMARK  7 active torsions:
REMARK  status: ('A' for Active; 'I' for Inactive)
REMARK    1  A    between atoms: C_2  and  N_3
REMARK    2  A    between atoms: N_3  and  C_4
REMARK    3  A    between atoms: N_6  and  C_7
REMARK    4  A    between atoms: C_7  and  C_8
REMARK    5  A    between atoms: C_8  and  C_9
REMARK    6  A    between atoms: C_9  and  O_10
REMARK    7  A    between atoms: C_17  and  S_18
REMARK                            x       y       z     vdW  Elec       q    Type
REMARK                         _______ _______ _______ _____ _____    ______ ____
ROOT
ATOM      1  C   UNL     1      -7.216  15.790  67.244  0.00  0.00    +0.114 C 
ATOM      2  C   UNL     1      -7.559  17.023  68.241  0.00  0.00    +0.022 A 
ATOM      3  C   UNL     1      -8.253  18.057  67.740  0.00  0.00    +0.150 A 
ATOM      4  S   UNL     1      -7.636  19.392  68.643  0.00  0.00    -0.048 S 
ATOM      5  C   UNL     1      -6.320  18.594  69.400  0.00  0.00    +0.155 A 
ATOM      6  S   UNL     1      -9.886  17.656  67.172  0.00  0.00    +0.069 S 
ATOM      7  O   UNL     1     -10.957  18.203  68.022  0.00  0.00    -0.152 OA
ATOM      8  O   UNL     1      -9.979  18.012  65.731  0.00  0.00    -0.152 OA
ATOM      9  N   UNL     1      -9.718  15.926  67.299  0.00  0.00    -0.153 NA
ATOM     10  C   UNL     1      -6.597  17.301  69.148  0.00  0.00    +0.026 A 
ATOM     11  C   UNL     1      -8.654  15.721  66.454  0.00  0.00    +0.118 C 
ENDROOT
BRANCH   5  12
ATOM     12  S   UNL     1      -5.373  19.218  70.753  0.00  0.00    +0.099 S 
ATOM     13  O   UNL     1      -5.206  18.136  71.775  0.00  0.00    -0.150 OA
ATOM     14  O   UNL     1      -6.078  20.415  71.292  0.00  0.00    -0.150 OA
ATOM     15  N   UNL     1      -3.846  19.706  70.148  0.00  0.00    +0.040 NA
ENDBRANCH   5  12
BRANCH   1  16
ATOM     16  N   UNL     1      -7.670  14.704  68.295  0.00  0.00    -0.214 NA
BRANCH  16  18
ATOM     17  C   UNL     1      -6.303  13.486  68.042  0.00  0.00    +0.020 C 
ATOM     18  C   UNL     1      -6.763  13.635  67.861  0.00  0.00    +0.089 C 
ENDBRANCH  16  18
ENDBRANCH   1  16
BRANCH   9  19
ATOM     19  C   UNL     1     -10.872  15.181  67.369  0.00  0.00    +0.098 C 
BRANCH  19  20
ATOM     20  C   UNL     1     -11.037  14.207  66.239  0.00  0.00    +0.051 C 
BRANCH  20  21
ATOM     21  C   UNL     1     -12.379  14.037  65.714  0.00  0.00    +0.144 C 
BRANCH  21  22
ATOM     22  O   UNL     1     -12.649  13.856  64.433  0.00  0.00    -0.351 OA
ATOM     23  C   UNL     1     -12.034  12.935  63.672  0.00  0.00    +0.174 C 
ENDBRANCH  21  22
ENDBRANCH  20  21
ENDBRANCH  19  20
ENDBRANCH   9  19
TORSDOF 7
ENDMDL
MODEL 7
REMARK VINA RESULT:      -5.5      4.435      7.202
REMARK  Name = 
REMARK  7 active torsions:
REMARK  status: ('A' for Active; 'I' for Inactive)
REMARK    1  A    between atoms: C_2  and  N_3
REMARK    2  A    between atoms: N_3  and  C_4
REMARK    3  A    between atoms: N_6  and  C_7
REMARK    4  A    between atoms: C_7  and  C_8
REMARK    5  A    between atoms: C_8  and  C_9
REMARK    6  A    between atoms: C_9  and  O_10
REMARK    7  A    between atoms: C_17  and  S_18
REMARK                            x       y       z     vdW  Elec       q    Type
REMARK                         _______ _______ _______ _____ _____    ______ ____
ROOT
ATOM      1  C   UNL     1     -10.498  11.873  68.755  0.00  0.00    +0.114 C 
ATOM      2  C   UNL     1     -11.567  13.074  68.974  0.00  0.00    +0.022 A 
ATOM      3  C   UNL     1     -11.301  14.260  68.403  0.00  0.00    +0.150 A 
ATOM      4  S   UNL     1     -12.002  15.375  69.515  0.00  0.00    -0.048 S 
ATOM      5  C   UNL     1     -12.336  14.279  70.791  0.00  0.00    +0.155 A 
ATOM      6  S   UNL     1     -11.225  14.233  66.629  0.00  0.00    +0.069 S 
ATOM      7  O   UNL     1     -12.355  14.919  65.981  0.00  0.00    -0.152 OA
ATOM      8  O   UNL     1      -9.877  14.704  66.213  0.00  0.00    -0.152 OA
ATOM      9  N   UNL     1     -11.277  12.499  66.456  0.00  0.00    -0.153 NA
ATOM     10  C   UNL     1     -12.160  13.089  70.188  0.00  0.00    +0.026 A 
ATOM     11  C   UNL     1     -10.158  12.149  67.172  0.00  0.00    +0.118 C 
ENDROOT
BRANCH   5  12
ATOM     12  S   UNL     1     -13.365  14.603  72.189  0.00  0.00    +0.099 S 
ATOM     13  O   UNL     1     -14.115  13.357  72.545  0.00  0.00    -0.150 OA
ATOM     14  O   UNL     1     -14.265  15.738  71.843  0.00  0.00    -0.150 OA
ATOM     15  N   UNL     1     -12.355  15.081  73.488  0.00  0.00    +0.040 NA
ENDBRANCH   5  12
BRANCH   1  16
ATOM     16  N   UNL     1     -11.623  10.826  68.396  0.00  0.00    -0.214 NA
BRANCH  16  18
ATOM     17  C   UNL     1     -11.018   9.489  69.520  0.00  0.00    +0.020 C 
ATOM     18  C   UNL     1     -11.001   9.660  69.033  0.00  0.00    +0.089 C 
ENDBRANCH  16  18
ENDBRANCH   1  16
BRANCH   9  19
ATOM     19  C   UNL     1     -11.669  11.996  65.239  0.00  0.00    +0.098 C 
BRANCH  19  20
ATOM     20  C   UNL     1     -10.738  12.335  64.112  0.00  0.00    +0.051 C 
BRANCH  20  21
ATOM     21  C   UNL     1     -10.045  11.227  63.480  0.00  0.00    +0.144 C 
BRANCH  21  22
ATOM     22  O   UNL     1      -8.992  10.626  64.003  0.00  0.00    -0.351 OA
ATOM     23  C   UNL     1      -9.060   9.458  64.664  0.00  0.00    +0.174 C 
ENDBRANCH  21  22
ENDBRANCH  20  21
ENDBRANCH  19  20
ENDBRANCH   9  19
TORSDOF 7
ENDMDL
MODEL 8
REMARK VINA RESULT:      -5.4      5.990      8.498
REMARK  Name = 
REMARK  7 active torsions:
REMARK  status: ('A' for Active; 'I' for Inactive)
REMARK    1  A    between atoms: C_2  and  N_3
REMARK    2  A    between atoms: N_3  and  C_4
REMARK    3  A    between atoms: N_6  and  C_7
REMARK    4  A    between atoms: C_7  and  C_8
REMARK    5  A    between atoms: C_8  and  C_9
REMARK    6  A    between atoms: C_9  and  O_10
REMARK    7  A    between atoms: C_17  and  S_18
REMARK                            x       y       z     vdW  Elec       q    Type
REMARK                         _______ _______ _______ _____ _____    ______ ____
ROOT
ATOM      1  C   UNL     1     -10.890  10.915  69.441  0.00  0.00    +0.114 C 
ATOM      2  C   UNL     1     -11.066  10.709  67.841  0.00  0.00    +0.022 A 
ATOM      3  C   UNL     1     -10.062  10.119  67.173  0.00  0.00    +0.150 A 
ATOM      4  S   UNL     1     -10.148  10.877  65.626  0.00  0.00    -0.048 S 
ATOM      5  C   UNL     1     -11.272  12.113  66.016  0.00  0.00    +0.155 A 
ATOM      6  S   UNL     1      -9.717   8.449  67.664  0.00  0.00    +0.069 S 
ATOM      7  O   UNL     1     -10.098   7.447  66.654  0.00  0.00    -0.152 OA
ATOM      8  O   UNL     1      -8.304   8.379  68.122  0.00  0.00    -0.152 OA
ATOM      9  N   UNL     1     -10.749   8.440  69.069  0.00  0.00    -0.153 NA
ATOM     10  C   UNL     1     -11.731  11.703  67.213  0.00  0.00    +0.026 A 
ATOM     11  C   UNL     1     -10.191   9.469  69.788  0.00  0.00    +0.118 C 
ENDROOT
BRANCH   5  12
ATOM     12  S   UNL     1     -12.132  13.131  64.858  0.00  0.00    +0.099 S 
ATOM     13  O   UNL     1     -11.167  14.097  64.243  0.00  0.00    -0.150 OA
ATOM     14  O   UNL     1     -13.244  13.810  65.581  0.00  0.00    -0.150 OA
ATOM     15  N   UNL     1     -12.803  12.112  63.654  0.00  0.00    +0.040 NA
ENDBRANCH   5  12
BRANCH   1  16
ATOM     16  N   UNL     1     -12.335  10.363  69.755  0.00  0.00    -0.214 NA
BRANCH  16  18
ATOM     17  C   UNL     1     -12.828  11.157  71.350  0.00  0.00    +0.020 C 
ATOM     18  C   UNL     1     -12.446  10.898  71.116  0.00  0.00    +0.089 C 
ENDBRANCH  16  18
ENDBRANCH   1  16
BRANCH   9  19
ATOM     19  C   UNL     1     -11.150   7.217  69.553  0.00  0.00    +0.098 C 
BRANCH  19  20
ATOM     20  C   UNL     1     -11.081   7.103  71.047  0.00  0.00    +0.051 C 
BRANCH  20  21
ATOM     21  C   UNL     1     -12.337   7.197  71.769  0.00  0.00    +0.144 C 
BRANCH  21  22
ATOM     22  O   UNL     1     -13.519   7.250  71.182  0.00  0.00    -0.351 OA
ATOM     23  C   UNL     1     -14.599   7.817  71.745  0.00  0.00    +0.174 C 
ENDBRANCH  21  22
ENDBRANCH  20  21
ENDBRANCH  19  20
ENDBRANCH   9  19
TORSDOF 7
ENDMDL
MODEL 9
REMARK VINA RESULT:      -5.4      3.811      7.620
REMARK  Name = 
REMARK  7 active torsions:
REMARK  status: ('A' for Active; 'I' for Inactive)
REMARK    1  A    between atoms: C_2  and  N_3
REMARK    2  A    between atoms: N_3  and  C_4
REMARK    3  A    between atoms: N_6  and  C_7
REMARK    4  A    between atoms: C_7  and  C_8
REMARK    5  A    between atoms: C_8  and  C_9
REMARK    6  A    between atoms: C_9  and  O_10
REMARK    7  A    between atoms: C_17  and  S_18
REMARK                            x       y       z     vdW  Elec       q    Type
REMARK                         _______ _______ _______ _____ _____    ______ ____
ROOT
ATOM      1  C   UNL     1     -11.511  12.811  65.677  0.00  0.00    +0.114 C 
ATOM      2  C   UNL     1     -10.431  13.891  66.224  0.00  0.00    +0.022 A 
ATOM      3  C   UNL     1      -9.962  13.729  67.472  0.00  0.00    +0.150 A 
ATOM      4  S   UNL     1      -9.683  15.354  67.979  0.00  0.00    -0.048 S 
ATOM      5  C   UNL     1     -10.457  16.158  66.676  0.00  0.00    +0.155 A 
ATOM      6  S   UNL     1      -9.060  12.225  67.741  0.00  0.00    +0.069 S 
ATOM      7  O   UNL     1      -7.614  12.431  67.933  0.00  0.00    -0.152 OA
ATOM      8  O   UNL     1      -9.738  11.460  68.822  0.00  0.00    -0.152 OA
ATOM      9  N   UNL     1      -9.454  11.482  66.214  0.00  0.00    -0.153 NA
ATOM     10  C   UNL     1     -10.628  15.156  65.793  0.00  0.00    +0.026 A 
ATOM     11  C   UNL     1     -10.826  11.456  66.303  0.00  0.00    +0.118 C 
ENDROOT
BRANCH   5  12
ATOM     12  S   UNL     1     -10.321  17.877  66.296  0.00  0.00    +0.099 S 
ATOM     13  O   UNL     1     -10.915  18.675  67.415  0.00  0.00    -0.150 OA
ATOM     14  O   UNL     1     -11.005  18.113  64.993  0.00  0.00    -0.150 OA
ATOM     15  N   UNL     1      -8.658  18.248  66.116  0.00  0.00    +0.040 NA
ENDBRANCH   5  12
BRANCH   1  16
ATOM     16  N   UNL     1     -10.758  12.631  64.301  0.00  0.00    -0.214 NA
BRANCH  16  18
ATOM     17  C   UNL     1     -12.285  12.167  63.367  0.00  0.00    +0.020 C 
ATOM     18  C   UNL     1     -11.949  12.552  63.447  0.00  0.00    +0.089 C 
ENDBRANCH  16  18
ENDBRANCH   1  16
BRANCH   9  19
ATOM     19  C   UNL     1      -8.637  10.469  65.772  0.00  0.00    +0.098 C 
BRANCH  19  20
ATOM     20  C   UNL     1      -9.349   9.417  64.973  0.00  0.00    +0.051 C 
BRANCH  20  21
ATOM     21  C   UNL     1      -8.849   9.163  63.634  0.00  0.00    +0.144 C 
BRANCH  21  22
ATOM     22  O   UNL     1      -9.294   9.783  62.555  0.00  0.00    -0.351 OA
ATOM     23  C   UNL     1      -8.655  10.816  61.981  0.00  0.00    +0.174 C 
ENDBRANCH  21  22
ENDBRANCH  20  21
ENDBRANCH  19  20
ENDBRANCH   9  19
TORSDOF 7
ENDMDL
