MODEL 1
REMARK VINA RESULT:      -5.9      0.000      0.000
REMARK  Name = 
REMARK  3 active torsions:
REMARK  status: ('A' for Active; 'I' for Inactive)
REMARK    1  A    between atoms: CA_2  and  CB_3
REMARK    2  A    between atoms: CA_2  and  C_13
REMARK    3  A    between atoms: CB_3  and  CG_4
REMARK                            x       y       z     vdW  Elec       q    Type
REMARK                         _______ _______ _______ _____ _____    ______ ____
ROOT
ATOM      1  CG  TRP A   1     -11.407  13.333  67.121  0.00  0.00    +0.000 A 
ATOM      2  CD2 TRP A   1     -11.641  12.996  68.450  0.00  0.00    +0.015 A 
ATOM      3  CE2 TRP A   1     -11.721  11.629  68.498  0.00  0.00    +0.081 A 
ATOM      4  CZ2 TRP A   1     -12.101  11.014  69.645  0.00  0.00    +0.019 A 
ATOM      5  CH2 TRP A   1     -12.477  11.723  70.745  0.00  0.00    +0.002 A 
ATOM      6  CZ3 TRP A   1     -12.294  13.095  70.793  0.00  0.00    +0.000 A 
ATOM      7  NE1 TRP A   1     -11.546  11.137  67.270  0.00  0.00    -0.244 NA
ATOM      8  CE3 TRP A   1     -11.986  13.701  69.582  0.00  0.00    +0.001 A 
ATOM      9  CD1 TRP A   1     -11.108  12.155  66.527  0.00  0.00    +0.095 A 
ENDROOT
BRANCH   1  10
ATOM     10  CB  TRP A   1     -11.499  14.727  66.656  0.00  0.00    +0.059 C 
BRANCH  10  12
ATOM     11  N   TRP A   1      -9.939  16.046  65.521  0.00  0.00    -0.120 NA
ATOM     12  CA  TRP A   1     -10.625  14.635  65.243  0.00  0.00    +0.199 C 
BRANCH  12  13
ATOM     13  C   TRP A   1     -11.806  15.320  64.354  0.00  0.00    +0.382 C 
ATOM     14  OXT TRP A   1     -11.628  16.586  63.919  0.00  0.00    -0.244 OA
ATOM     15  O   TRP A   1     -12.617  14.466  63.884  0.00  0.00    -0.244 OA
ENDBRANCH  12  13
ENDBRANCH  10  12
ENDBRANCH   1  10
TORSDOF 3
ENDMDL
MODEL 2
REMARK VINA RESULT:      -5.8      4.090      5.809
REMARK  Name = 
REMARK  3 active torsions:
REMARK  status: ('A' for Active; 'I' for Inactive)
REMARK    1  A    between atoms: CA_2  and  CB_3
REMARK    2  A    between atoms: CA_2  and  C_13
REMARK    3  A    between atoms: CB_3  and  CG_4
REMARK                            x       y       z     vdW  Elec       q    Type
REMARK                         _______ _______ _______ _____ _____    ______ ____
ROOT
ATOM      1  CG  TRP A   1     -11.699  14.982  70.374  0.00  0.00    +0.000 A 
ATOM      2  CD2 TRP A   1     -11.597  14.138  69.274  0.00  0.00    +0.015 A 
ATOM      3  CE2 TRP A   1     -11.542  14.943  68.166  0.00  0.00    +0.081 A 
ATOM      4  CZ2 TRP A   1     -11.598  14.394  66.928  0.00  0.00    +0.019 A 
ATOM      5  CH2 TRP A   1     -11.778  13.057  66.747  0.00  0.00    +0.002 A 
ATOM      6  CZ3 TRP A   1     -11.710  12.186  67.822  0.00  0.00    +0.000 A 
ATOM      7  NE1 TRP A   1     -11.607  16.219  68.551  0.00  0.00    -0.244 NA
ATOM      8  CE3 TRP A   1     -11.738  12.781  69.077  0.00  0.00    +0.001 A 
ATOM      9  CD1 TRP A   1     -11.440  16.212  69.874  0.00  0.00    +0.095 A 
ENDROOT
BRANCH   1  10
ATOM     10  CB  TRP A   1     -12.018  14.461  71.714  0.00  0.00    +0.059 C 
BRANCH  10  12
ATOM     11  N   TRP A   1     -12.702  15.197  73.824  0.00  0.00    -0.120 NA
ATOM     12  CA  TRP A   1     -12.893  15.733  72.335  0.00  0.00    +0.199 C 
BRANCH  12  13
ATOM     13  C   TRP A   1     -14.316  14.955  72.177  0.00  0.00    +0.382 C 
ATOM     14  OXT TRP A   1     -15.255  15.497  71.372  0.00  0.00    -0.244 OA
ATOM     15  O   TRP A   1     -14.256  13.749  72.563  0.00  0.00    -0.244 OA
ENDBRANCH  12  13
ENDBRANCH  10  12
ENDBRANCH   1  10
TORSDOF 3
ENDMDL
MODEL 3
REMARK VINA RESULT:      -5.7      1.897      3.293
REMARK  Name = 
REMARK  3 active torsions:
REMARK  status: ('A' for Active; 'I' for Inactive)
REMARK    1  A    between atoms: CA_2  and  CB_3
REMARK    2  A    between atoms: CA_2  and  C_13
REMARK    3  A    between atoms: CB_3  and  CG_4
REMARK                            x       y       z     vdW  Elec       q    Type
REMARK                         _______ _______ _______ _____ _____    ______ ____
ROOT
ATOM      1  CG  TRP A   1     -11.063  15.136  67.874  0.00  0.00    +0.000 A 
ATOM      2  CD2 TRP A   1     -11.619  14.871  69.121  0.00  0.00    +0.015 A 
ATOM      3  CE2 TRP A   1     -11.493  16.020  69.857  0.00  0.00    +0.081 A 
ATOM      4  CZ2 TRP A   1     -11.808  16.015  71.176  0.00  0.00    +0.019 A 
ATOM      5  CH2 TRP A   1     -12.184  14.874  71.816  0.00  0.00    +0.002 A 
ATOM      6  CZ3 TRP A   1     -12.450  13.720  71.098  0.00  0.00    +0.000 A 
ATOM      7  NE1 TRP A   1     -10.893  16.952  69.114  0.00  0.00    -0.244 NA
ATOM      8  CE3 TRP A   1     -12.039  13.732  69.772  0.00  0.00    +0.001 A 
ATOM      9  CD1 TRP A   1     -10.885  16.477  67.867  0.00  0.00    +0.095 A 
ENDROOT
BRANCH   1  10
ATOM     10  CB  TRP A   1     -10.808  14.058  66.902  0.00  0.00    +0.059 C 
BRANCH  10  12
ATOM     11  N   TRP A   1     -12.162  12.350  66.059  0.00  0.00    -0.120 NA
ATOM     12  CA  TRP A   1     -12.306  13.932  66.189  0.00  0.00    +0.199 C 
BRANCH  12  13
ATOM     13  C   TRP A   1     -11.717  14.167  64.688  0.00  0.00    +0.382 C 
ATOM     14  OXT TRP A   1     -10.585  13.520  64.337  0.00  0.00    -0.244 OA
ATOM     15  O   TRP A   1     -12.575  14.669  63.902  0.00  0.00    -0.244 OA
ENDBRANCH  12  13
ENDBRANCH  10  12
ENDBRANCH   1  10
TORSDOF 3
ENDMDL
MODEL 4
REMARK VINA RESULT:      -5.6      3.251      5.198
REMARK  Name = 
REMARK  3 active torsions:
REMARK  status: ('A' for Active; 'I' for Inactive)
REMARK    1  A    between atoms: CA_2  and  CB_3
REMARK    2  A    between atoms: CA_2  and  C_13
REMARK    3  A    between atoms: CB_3  and  CG_4
REMARK                            x       y       z     vdW  Elec       q    Type
REMARK                         _______ _______ _______ _____ _____    ______ ____
ROOT
ATOM      1  CG  TRP A   1     -10.191  16.116  66.575  0.00  0.00    +0.000 A 
ATOM      2  CD2 TRP A   1     -10.080  17.487  66.780  0.00  0.00    +0.015 A 
ATOM      3  CE2 TRP A   1      -9.758  17.660  68.101  0.00  0.00    +0.081 A 
ATOM      4  CZ2 TRP A   1      -9.739  18.907  68.634  0.00  0.00    +0.019 A 
ATOM      5  CH2 TRP A   1     -10.100  20.000  67.907  0.00  0.00    +0.002 A 
ATOM      6  CZ3 TRP A   1     -10.308  19.900  66.542  0.00  0.00    +0.000 A 
ATOM      7  NE1 TRP A   1      -9.672  16.466  68.690  0.00  0.00    -0.244 NA
ATOM      8  CE3 TRP A   1     -10.404  18.607  66.044  0.00  0.00    +0.001 A 
ATOM      9  CD1 TRP A   1      -9.680  15.570  67.702  0.00  0.00    +0.095 A 
ENDROOT
BRANCH   1  10
ATOM     10  CB  TRP A   1     -10.756  15.570  65.330  0.00  0.00    +0.059 C 
BRANCH  10  12
ATOM     11  N   TRP A   1     -10.265  13.391  64.641  0.00  0.00    -0.120 NA
ATOM     12  CA  TRP A   1     -11.132  14.024  65.819  0.00  0.00    +0.199 C 
BRANCH  12  13
ATOM     13  C   TRP A   1     -12.493  13.969  64.925  0.00  0.00    +0.382 C 
ATOM     14  OXT TRP A   1     -12.676  14.916  63.980  0.00  0.00    -0.244 OA
ATOM     15  O   TRP A   1     -13.069  12.841  64.987  0.00  0.00    -0.244 OA
ENDBRANCH  12  13
ENDBRANCH  10  12
ENDBRANCH   1  10
TORSDOF 3
ENDMDL
MODEL 5
REMARK VINA RESULT:      -5.5      1.898      2.944
REMARK  Name = 
REMARK  3 active torsions:
REMARK  status: ('A' for Active; 'I' for Inactive)
REMARK    1  A    between atoms: CA_2  and  CB_3
REMARK    2  A    between atoms: CA_2  and  C_13
REMARK    3  A    between atoms: CB_3  and  CG_4
REMARK                            x       y       z     vdW  Elec       q    Type
REMARK                         _______ _______ _______ _____ _____    ______ ____
ROOT
ATOM      1  CG  TRP A   1     -11.828  13.049  69.141  0.00  0.00    +0.000 A 
ATOM      2  CD2 TRP A   1     -12.311  13.774  70.225  0.00  0.00    +0.015 A 
ATOM      3  CE2 TRP A   1     -12.686  12.857  71.172  0.00  0.00    +0.081 A 
ATOM      4  CZ2 TRP A   1     -13.344  13.266  72.285  0.00  0.00    +0.019 A 
ATOM      5  CH2 TRP A   1     -13.709  14.565  72.462  0.00  0.00    +0.002 A 
ATOM      6  CZ3 TRP A   1     -13.246  15.549  71.604  0.00  0.00    +0.000 A 
ATOM      7  NE1 TRP A   1     -12.452  11.628  70.708  0.00  0.00    -0.244 NA
ATOM      8  CE3 TRP A   1     -12.651  15.092  70.435  0.00  0.00    +0.001 A 
ATOM      9  CD1 TRP A   1     -11.708  11.787  69.611  0.00  0.00    +0.095 A 
ENDROOT
BRANCH   1  10
ATOM     10  CB  TRP A   1     -11.556  13.696  67.846  0.00  0.00    +0.059 C 
BRANCH  10  12
ATOM     11  N   TRP A   1     -10.082  12.709  66.324  0.00  0.00    -0.120 NA
ATOM     12  CA  TRP A   1     -11.552  12.371  66.839  0.00  0.00    +0.199 C 
BRANCH  12  13
ATOM     13  C   TRP A   1     -12.234  13.187  65.605  0.00  0.00    +0.382 C 
ATOM     14  OXT TRP A   1     -13.111  12.535  64.812  0.00  0.00    -0.244 OA
ATOM     15  O   TRP A   1     -12.120  14.444  65.732  0.00  0.00    -0.244 OA
ENDBRANCH  12  13
ENDBRANCH  10  12
ENDBRANCH   1  10
TORSDOF 3
ENDMDL
MODEL 6
REMARK VINA RESULT:      -5.4      2.768      4.924
REMARK  Name = 
REMARK  3 active torsions:
REMARK  status: ('A' for Active; 'I' for Inactive)
REMARK    1  A    between atoms: CA_2  and  CB_3
REMARK    2  A    between atoms: CA_2  and  C_13
REMARK    3  A    between atoms: CB_3  and  CG_4
REMARK                            x       y       z     vdW  Elec       q    Type
REMARK                         _______ _______ _______ _____ _____    ______ ____
ROOT
ATOM      1  CG  TRP A   1     -10.863  15.221  67.251  0.00  0.00    +0.000 A 
ATOM      2  CD2 TRP A   1     -10.042  16.343  67.241  0.00  0.00    +0.015 A 
ATOM      3  CE2 TRP A   1     -10.484  17.159  68.250  0.00  0.00    +0.081 A 
ATOM      4  CZ2 TRP A   1      -9.971  18.407  68.382  0.00  0.00    +0.019 A 
ATOM      5  CH2 TRP A   1      -9.070  18.908  67.493  0.00  0.00    +0.002 A 
ATOM      6  CZ3 TRP A   1      -8.496  18.087  66.536  0.00  0.00    +0.000 A 
ATOM      7  NE1 TRP A   1     -11.522  16.581  68.856  0.00  0.00    -0.244 NA
ATOM      8  CE3 TRP A   1      -9.100  16.847  66.371  0.00  0.00    +0.001 A 
ATOM      9  CD1 TRP A   1     -11.555  15.325  68.408  0.00  0.00    +0.095 A 
ENDROOT
BRANCH   1  10
ATOM     10  CB  TRP A   1     -10.833  14.238  66.153  0.00  0.00    +0.059 C 
BRANCH  10  12
ATOM     11  N   TRP A   1     -12.029  12.231  66.203  0.00  0.00    -0.120 NA
ATOM     12  CA  TRP A   1     -12.430  13.771  66.119  0.00  0.00    +0.199 C 
BRANCH  12  13
ATOM     13  C   TRP A   1     -12.482  13.728  64.491  0.00  0.00    +0.382 C 
ATOM     14  OXT TRP A   1     -12.786  12.557  63.892  0.00  0.00    -0.244 OA
ATOM     15  O   TRP A   1     -12.563  14.884  63.977  0.00  0.00    -0.244 OA
ENDBRANCH  12  13
ENDBRANCH  10  12
ENDBRANCH   1  10
TORSDOF 3
ENDMDL
MODEL 7
REMARK VINA RESULT:      -5.4      1.476      2.155
REMARK  Name = 
REMARK  3 active torsions:
REMARK  status: ('A' for Active; 'I' for Inactive)
REMARK    1  A    between atoms: CA_2  and  CB_3
REMARK    2  A    between atoms: CA_2  and  C_13
REMARK    3  A    between atoms: CB_3  and  CG_4
REMARK                            x       y       z     vdW  Elec       q    Type
REMARK                         _______ _______ _______ _____ _____    ______ ____
ROOT
ATOM      1  CG  TRP A   1     -11.728  13.704  67.941  0.00  0.00    +0.000 A 
ATOM      2  CD2 TRP A   1     -12.002  14.204  69.209  0.00  0.00    +0.015 A 
ATOM      3  CE2 TRP A   1     -12.120  13.121  70.040  0.00  0.00    +0.081 A 
ATOM      4  CZ2 TRP A   1     -12.543  13.291  71.317  0.00  0.00    +0.019 A 
ATOM      5  CH2 TRP A   1     -12.925  14.511  71.786  0.00  0.00    +0.002 A 
ATOM      6  CZ3 TRP A   1     -12.706  15.654  71.035  0.00  0.00    +0.000 A 
ATOM      7  NE1 TRP A   1     -11.931  12.005  69.333  0.00  0.00    -0.244 NA
ATOM      8  CE3 TRP A   1     -12.354  15.440  69.708  0.00  0.00    +0.001 A 
ATOM      9  CD1 TRP A   1     -11.449  12.398  68.152  0.00  0.00    +0.095 A 
ENDROOT
BRANCH   1  10
ATOM     10  CB  TRP A   1     -11.773  14.568  66.749  0.00  0.00    +0.059 C 
BRANCH  10  12
ATOM     11  N   TRP A   1     -10.397  14.852  64.881  0.00  0.00    -0.120 NA
ATOM     12  CA  TRP A   1     -11.012  13.591  65.636  0.00  0.00    +0.199 C 
BRANCH  12  13
ATOM     13  C   TRP A   1     -12.304  13.554  64.644  0.00  0.00    +0.382 C 
ATOM     14  OXT TRP A   1     -13.175  12.530  64.764  0.00  0.00    -0.244 OA
ATOM     15  O   TRP A   1     -12.527  14.676  64.096  0.00  0.00    -0.244 OA
ENDBRANCH  12  13
ENDBRANCH  10  12
ENDBRANCH   1  10
TORSDOF 3
ENDMDL
MODEL 8
REMARK VINA RESULT:      -5.4      2.754      4.048
REMARK  Name = 
REMARK  3 active torsions:
REMARK  status: ('A' for Active; 'I' for Inactive)
REMARK    1  A    between atoms: CA_2  and  CB_3
REMARK    2  A    between atoms: CA_2  and  C_13
REMARK    3  A    between atoms: CB_3  and  CG_4
REMARK                            x       y       z     vdW  Elec       q    Type
REMARK                         _______ _______ _______ _____ _____    ______ ____
ROOT
ATOM      1  CG  TRP A   1     -11.842  14.604  69.278  0.00  0.00    +0.000 A 
ATOM      2  CD2 TRP A   1     -12.346  14.683  70.572  0.00  0.00    +0.015 A 
ATOM      3  CE2 TRP A   1     -11.845  15.837  71.115  0.00  0.00    +0.081 A 
ATOM      4  CZ2 TRP A   1     -12.039  16.103  72.431  0.00  0.00    +0.019 A 
ATOM      5  CH2 TRP A   1     -12.664  15.218  73.254  0.00  0.00    +0.002 A 
ATOM      6  CZ3 TRP A   1     -13.299  14.102  72.735  0.00  0.00    +0.000 A 
ATOM      7  NE1 TRP A   1     -11.072  16.446  70.214  0.00  0.00    -0.244 NA
ATOM      8  CE3 TRP A   1     -13.012  13.813  71.407  0.00  0.00    +0.001 A 
ATOM      9  CD1 TRP A   1     -11.300  15.823  69.057  0.00  0.00    +0.095 A 
ENDROOT
BRANCH   1  10
ATOM     10  CB  TRP A   1     -11.978  13.376  68.475  0.00  0.00    +0.059 C 
BRANCH  10  12
ATOM     11  N   TRP A   1     -12.416  14.015  66.270  0.00  0.00    -0.120 NA
ATOM     12  CA  TRP A   1     -11.092  13.793  67.129  0.00  0.00    +0.199 C 
BRANCH  12  13
ATOM     13  C   TRP A   1     -10.955  12.250  66.625  0.00  0.00    +0.382 C 
ATOM     14  OXT TRP A   1     -11.754  11.318  67.188  0.00  0.00    -0.244 OA
ATOM     15  O   TRP A   1     -10.348  12.154  65.516  0.00  0.00    -0.244 OA
ENDBRANCH  12  13
ENDBRANCH  10  12
ENDBRANCH   1  10
TORSDOF 3
ENDMDL
MODEL 9
REMARK VINA RESULT:      -5.4      3.870      5.788
REMARK  Name = 
REMARK  3 active torsions:
REMARK  status: ('A' for Active; 'I' for Inactive)
REMARK    1  A    between atoms: CA_2  and  CB_3
REMARK    2  A    between atoms: CA_2  and  C_13
REMARK    3  A    between atoms: CB_3  and  CG_4
REMARK                            x       y       z     vdW  Elec       q    Type
REMARK                         _______ _______ _______ _____ _____    ______ ____
ROOT
ATOM      1  CG  TRP A   1     -11.569  15.057  69.155  0.00  0.00    +0.000 A 
ATOM      2  CD2 TRP A   1     -11.427  14.481  67.897  0.00  0.00    +0.015 A 
ATOM      3  CE2 TRP A   1     -10.934  15.459  67.073  0.00  0.00    +0.081 A 
ATOM      4  CZ2 TRP A   1     -10.839  15.234  65.740  0.00  0.00    +0.019 A 
ATOM      5  CH2 TRP A   1     -11.286  14.079  65.176  0.00  0.00    +0.002 A 
ATOM      6  CZ3 TRP A   1     -11.672  13.013  65.971  0.00  0.00    +0.000 A 
ATOM      7  NE1 TRP A   1     -10.776  16.583  67.775  0.00  0.00    -0.244 NA
ATOM      8  CE3 TRP A   1     -11.840  13.300  67.319  0.00  0.00    +0.001 A 
ATOM      9  CD1 TRP A   1     -10.918  16.238  69.056  0.00  0.00    +0.095 A 
ENDROOT
BRANCH   1  10
ATOM     10  CB  TRP A   1     -12.297  14.369  70.236  0.00  0.00    +0.059 C 
BRANCH  10  12
ATOM     11  N   TRP A   1     -11.857  15.173  72.386  0.00  0.00    -0.120 NA
ATOM     12  CA  TRP A   1     -12.757  15.669  71.167  0.00  0.00    +0.199 C 
BRANCH  12  13
ATOM     13  C   TRP A   1     -14.072  14.905  71.753  0.00  0.00    +0.382 C 
ATOM     14  OXT TRP A   1     -13.897  13.984  72.725  0.00  0.00    -0.244 OA
ATOM     15  O   TRP A   1     -15.151  15.506  71.467  0.00  0.00    -0.244 OA
ENDBRANCH  12  13
ENDBRANCH  10  12
ENDBRANCH   1  10
TORSDOF 3
ENDMDL
