MODEL 1
REMARK VINA RESULT:      -3.7      0.000      0.000
REMARK  Name = 
REMARK  4 active torsions:
REMARK  status: ('A' for Active; 'I' for Inactive)
REMARK    1  A    between atoms: N_2  and  C_5
REMARK    2  A    between atoms: C_5  and  C_6
REMARK    3  A    between atoms: C_6  and  O_7
REMARK    4  A    between atoms: O_7  and  C_8
REMARK                            x       y       z     vdW  Elec       q    Type
REMARK                         _______ _______ _______ _____ _____    ______ ____
ROOT
ATOM      1  C   UNL     1     -12.549  14.083  65.876  0.00  0.00    +0.158 C 
ENDROOT
BRANCH   1   3
ATOM      2  C   UNL     1     -11.680  14.702  68.038  0.00  0.00    +0.171 C 
ATOM      3  N   UNL     1     -11.432  13.984  66.794  0.00  0.00    +0.313 N 
ATOM      4  C   UNL     1     -10.262  14.559  66.131  0.00  0.00    +0.171 C 
ATOM      5  C   UNL     1     -11.200  12.573  67.091  0.00  0.00    +0.171 C 
ENDBRANCH   1   3
BRANCH   1   6
ATOM      6  C   UNL     1     -12.011  14.735  64.608  0.00  0.00    +0.271 C 
BRANCH   6   7
ATOM      7  O   UNL     1     -12.481  13.916  63.539  0.00  0.00    -0.426 OA
BRANCH   7   8
ATOM      8  C   UNL     1     -12.104  12.574  63.437  0.00  0.00    +0.441 C 
ATOM      9  O   UNL     1     -13.053  11.771  63.185  0.00  0.00    -0.223 OA
ATOM     10  N   UNL     1     -10.744  12.157  63.345  0.00  0.00    -0.048 NA
ENDBRANCH   7   8
ENDBRANCH   6   7
ENDBRANCH   1   6
TORSDOF 4
ENDMDL
MODEL 2
REMARK VINA RESULT:      -3.6      1.155      2.029
REMARK  Name = 
REMARK  4 active torsions:
REMARK  status: ('A' for Active; 'I' for Inactive)
REMARK    1  A    between atoms: N_2  and  C_5
REMARK    2  A    between atoms: C_5  and  C_6
REMARK    3  A    between atoms: C_6  and  O_7
REMARK    4  A    between atoms: O_7  and  C_8
REMARK                            x       y       z     vdW  Elec       q    Type
REMARK                         _______ _______ _______ _____ _____    ______ ____
ROOT
ATOM      1  C   UNL     1     -12.051  14.209  66.605  0.00  0.00    +0.158 C 
ENDROOT
BRANCH   1   3
ATOM      2  C   UNL     1      -9.668  13.868  66.496  0.00  0.00    +0.171 C 
ATOM      3  N   UNL     1     -10.750  14.842  66.537  0.00  0.00    +0.313 N 
ATOM      4  C   UNL     1     -10.601  15.678  67.729  0.00  0.00    +0.171 C 
ATOM      5  C   UNL     1     -10.699  15.668  65.334  0.00  0.00    +0.171 C 
ENDBRANCH   1   3
BRANCH   1   6
ATOM      6  C   UNL     1     -11.831  12.734  66.290  0.00  0.00    +0.271 C 
BRANCH   6   7
ATOM      7  O   UNL     1     -12.629  12.476  65.136  0.00  0.00    -0.426 OA
BRANCH   7   8
ATOM      8  C   UNL     1     -12.113  12.646  63.848  0.00  0.00    +0.441 C 
ATOM      9  O   UNL     1     -12.651  13.577  63.176  0.00  0.00    -0.223 OA
ATOM     10  N   UNL     1     -10.907  12.024  63.410  0.00  0.00    -0.048 NA
ENDBRANCH   7   8
ENDBRANCH   6   7
ENDBRANCH   1   6
TORSDOF 4
ENDMDL
MODEL 3
REMARK VINA RESULT:      -3.6      4.227      5.213
REMARK  Name = 
REMARK  4 active torsions:
REMARK  status: ('A' for Active; 'I' for Inactive)
REMARK    1  A    between atoms: N_2  and  C_5
REMARK    2  A    between atoms: C_5  and  C_6
REMARK    3  A    between atoms: C_6  and  O_7
REMARK    4  A    between atoms: O_7  and  C_8
REMARK                            x       y       z     vdW  Elec       q    Type
REMARK                         _______ _______ _______ _____ _____    ______ ____
ROOT
ATOM      1  C   UNL     1      -8.767  18.023  66.789  0.00  0.00    +0.158 C 
ENDROOT
BRANCH   1   3
ATOM      2  C   UNL     1      -8.040  20.269  67.277  0.00  0.00    +0.171 C 
ATOM      3  N   UNL     1      -9.159  19.336  67.263  0.00  0.00    +0.313 N 
ATOM      4  C   UNL     1      -9.675  19.181  68.622  0.00  0.00    +0.171 C 
ATOM      5  C   UNL     1     -10.204  19.852  66.383  0.00  0.00    +0.171 C 
ENDBRANCH   1   3
BRANCH   1   6
ATOM      6  C   UNL     1     -10.051  17.215  66.644  0.00  0.00    +0.271 C 
BRANCH   6   7
ATOM      7  O   UNL     1      -9.930  16.544  65.391  0.00  0.00    -0.426 OA
BRANCH   7   8
ATOM      8  C   UNL     1     -11.032  15.926  64.792  0.00  0.00    +0.441 C 
ATOM      9  O   UNL     1     -11.632  16.628  63.924  0.00  0.00    -0.223 OA
ATOM     10  N   UNL     1     -11.305  14.533  64.930  0.00  0.00    -0.048 NA
ENDBRANCH   7   8
ENDBRANCH   6   7
ENDBRANCH   1   6
TORSDOF 4
ENDMDL
MODEL 4
REMARK VINA RESULT:      -3.6      5.364      6.446
REMARK  Name = 
REMARK  4 active torsions:
REMARK  status: ('A' for Active; 'I' for Inactive)
REMARK    1  A    between atoms: N_2  and  C_5
REMARK    2  A    between atoms: C_5  and  C_6
REMARK    3  A    between atoms: C_6  and  O_7
REMARK    4  A    between atoms: O_7  and  C_8
REMARK                            x       y       z     vdW  Elec       q    Type
REMARK                         _______ _______ _______ _____ _____    ______ ____
ROOT
ATOM      1  C   UNL     1     -12.396  14.427  71.009  0.00  0.00    +0.158 C 
ENDROOT
BRANCH   1   3
ATOM      2  C   UNL     1     -14.644  14.990  71.675  0.00  0.00    +0.171 C 
ATOM      3  N   UNL     1     -13.403  14.323  72.047  0.00  0.00    +0.313 N 
ATOM      4  C   UNL     1     -12.862  14.949  73.253  0.00  0.00    +0.171 C 
ATOM      5  C   UNL     1     -13.672  12.909  72.291  0.00  0.00    +0.171 C 
ENDBRANCH   1   3
BRANCH   1   6
ATOM      6  C   UNL     1     -11.990  15.895  70.947  0.00  0.00    +0.271 C 
BRANCH   6   7
ATOM      7  O   UNL     1     -12.016  16.231  69.561  0.00  0.00    -0.426 OA
BRANCH   7   8
ATOM      8  C   UNL     1     -10.848  16.589  68.881  0.00  0.00    +0.441 C 
ATOM      9  O   UNL     1     -10.950  17.620  68.150  0.00  0.00    -0.223 OA
ATOM     10  N   UNL     1      -9.574  16.025  69.183  0.00  0.00    -0.048 NA
ENDBRANCH   7   8
ENDBRANCH   6   7
ENDBRANCH   1   6
TORSDOF 4
ENDMDL
MODEL 5
REMARK VINA RESULT:      -3.6      9.509     11.042
REMARK  Name = 
REMARK  4 active torsions:
REMARK  status: ('A' for Active; 'I' for Inactive)
REMARK    1  A    between atoms: N_2  and  C_5
REMARK    2  A    between atoms: C_5  and  C_6
REMARK    3  A    between atoms: C_6  and  O_7
REMARK    4  A    between atoms: O_7  and  C_8
REMARK                            x       y       z     vdW  Elec       q    Type
REMARK                         _______ _______ _______ _____ _____    ______ ____
ROOT
ATOM      1  C   UNL     1      -5.746  19.412  69.144  0.00  0.00    +0.158 C 
ENDROOT
BRANCH   1   3
ATOM      2  C   UNL     1      -6.525  18.601  67.011  0.00  0.00    +0.171 C 
ATOM      3  N   UNL     1      -6.739  19.549  68.097  0.00  0.00    +0.313 N 
ATOM      4  C   UNL     1      -6.645  20.912  67.573  0.00  0.00    +0.171 C 
ATOM      5  C   UNL     1      -8.059  19.324  68.679  0.00  0.00    +0.171 C 
ENDBRANCH   1   3
BRANCH   1   6
ATOM      6  C   UNL     1      -5.331  20.825  69.535  0.00  0.00    +0.271 C 
BRANCH   6   7
ATOM      7  O   UNL     1      -5.531  20.896  70.945  0.00  0.00    -0.426 OA
BRANCH   7   8
ATOM      8  C   UNL     1      -4.464  21.141  71.815  0.00  0.00    +0.441 C 
ATOM      9  O   UNL     1      -4.424  22.313  72.296  0.00  0.00    -0.223 OA
ATOM     10  N   UNL     1      -3.644  20.100  72.344  0.00  0.00    -0.048 NA
ENDBRANCH   7   8
ENDBRANCH   6   7
ENDBRANCH   1   6
TORSDOF 4
ENDMDL
MODEL 6
REMARK VINA RESULT:      -3.5      5.316      7.072
REMARK  Name = 
REMARK  4 active torsions:
REMARK  status: ('A' for Active; 'I' for Inactive)
REMARK    1  A    between atoms: N_2  and  C_5
REMARK    2  A    between atoms: C_5  and  C_6
REMARK    3  A    between atoms: C_6  and  O_7
REMARK    4  A    between atoms: O_7  and  C_8
REMARK                            x       y       z     vdW  Elec       q    Type
REMARK                         _______ _______ _______ _____ _____    ______ ____
ROOT
ATOM      1  C   UNL     1     -11.324  16.089  70.492  0.00  0.00    +0.158 C 
ENDROOT
BRANCH   1   3
ATOM      2  C   UNL     1      -9.400  15.279  69.286  0.00  0.00    +0.171 C 
ATOM      3  N   UNL     1     -10.723  15.882  69.189  0.00  0.00    +0.313 N 
ATOM      4  C   UNL     1     -10.611  17.188  68.540  0.00  0.00    +0.171 C 
ATOM      5  C   UNL     1     -11.595  15.006  68.411  0.00  0.00    +0.171 C 
ENDBRANCH   1   3
BRANCH   1   6
ATOM      6  C   UNL     1     -12.626  15.296  70.498  0.00  0.00    +0.271 C 
BRANCH   6   7
ATOM      7  O   UNL     1     -13.416  15.885  71.530  0.00  0.00    -0.426 OA
BRANCH   7   8
ATOM      8  C   UNL     1     -13.393  15.383  72.835  0.00  0.00    +0.441 C 
ATOM      9  O   UNL     1     -13.593  14.135  72.931  0.00  0.00    -0.223 OA
ATOM     10  N   UNL     1     -12.914  16.139  73.945  0.00  0.00    -0.048 NA
ENDBRANCH   7   8
ENDBRANCH   6   7
ENDBRANCH   1   6
TORSDOF 4
ENDMDL
MODEL 7
REMARK VINA RESULT:      -3.5      4.661      6.296
REMARK  Name = 
REMARK  4 active torsions:
REMARK  status: ('A' for Active; 'I' for Inactive)
REMARK    1  A    between atoms: N_2  and  C_5
REMARK    2  A    between atoms: C_5  and  C_6
REMARK    3  A    between atoms: C_6  and  O_7
REMARK    4  A    between atoms: O_7  and  C_8
REMARK                            x       y       z     vdW  Elec       q    Type
REMARK                         _______ _______ _______ _____ _____    ______ ____
ROOT
ATOM      1  C   UNL     1     -11.838  15.510  69.293  0.00  0.00    +0.158 C 
ENDROOT
BRANCH   1   3
ATOM      2  C   UNL     1     -11.792  13.102  69.367  0.00  0.00    +0.171 C 
ATOM      3  N   UNL     1     -11.376  14.298  68.647  0.00  0.00    +0.313 N 
ATOM      4  C   UNL     1      -9.914  14.350  68.602  0.00  0.00    +0.171 C 
ATOM      5  C   UNL     1     -11.920  14.258  67.293  0.00  0.00    +0.171 C 
ENDBRANCH   1   3
BRANCH   1   6
ATOM      6  C   UNL     1     -12.049  15.165  70.762  0.00  0.00    +0.271 C 
BRANCH   6   7
ATOM      7  O   UNL     1     -13.261  15.822  71.129  0.00  0.00    -0.426 OA
BRANCH   7   8
ATOM      8  C   UNL     1     -14.310  15.121  71.734  0.00  0.00    +0.441 C 
ATOM      9  O   UNL     1     -15.471  15.492  71.385  0.00  0.00    -0.223 OA
ATOM     10  N   UNL     1     -14.111  13.914  72.466  0.00  0.00    -0.048 NA
ENDBRANCH   7   8
ENDBRANCH   6   7
ENDBRANCH   1   6
TORSDOF 4
ENDMDL
MODEL 8
REMARK VINA RESULT:      -3.5      5.155      6.506
REMARK  Name = 
REMARK  4 active torsions:
REMARK  status: ('A' for Active; 'I' for Inactive)
REMARK    1  A    between atoms: N_2  and  C_5
REMARK    2  A    between atoms: C_5  and  C_6
REMARK    3  A    between atoms: C_6  and  O_7
REMARK    4  A    between atoms: O_7  and  C_8
REMARK                            x       y       z     vdW  Elec       q    Type
REMARK                         _______ _______ _______ _____ _____    ______ ____
ROOT
ATOM      1  C   UNL     1     -11.239  16.230  70.230  0.00  0.00    +0.158 C 
ENDROOT
BRANCH   1   3
ATOM      2  C   UNL     1      -9.287  15.405  69.082  0.00  0.00    +0.171 C 
ATOM      3  N   UNL     1     -10.597  16.028  68.947  0.00  0.00    +0.313 N 
ATOM      4  C   UNL     1     -10.445  17.340  68.317  0.00  0.00    +0.171 C 
ATOM      5  C   UNL     1     -11.454  15.174  68.130  0.00  0.00    +0.171 C 
ENDBRANCH   1   3
BRANCH   1   6
ATOM      6  C   UNL     1     -12.430  15.279  70.272  0.00  0.00    +0.271 C 
BRANCH   6   7
ATOM      7  O   UNL     1     -13.284  15.795  71.291  0.00  0.00    -0.426 OA
BRANCH   7   8
ATOM      8  C   UNL     1     -14.385  15.065  71.751  0.00  0.00    +0.441 C 
ATOM      9  O   UNL     1     -15.508  15.462  71.318  0.00  0.00    -0.223 OA
ATOM     10  N   UNL     1     -14.256  13.815  72.425  0.00  0.00    -0.048 NA
ENDBRANCH   7   8
ENDBRANCH   6   7
ENDBRANCH   1   6
TORSDOF 4
ENDMDL
MODEL 9
REMARK VINA RESULT:      -3.5      3.134      4.059
REMARK  Name = 
REMARK  4 active torsions:
REMARK  status: ('A' for Active; 'I' for Inactive)
REMARK    1  A    between atoms: N_2  and  C_5
REMARK    2  A    between atoms: C_5  and  C_6
REMARK    3  A    between atoms: C_6  and  O_7
REMARK    4  A    between atoms: O_7  and  C_8
REMARK                            x       y       z     vdW  Elec       q    Type
REMARK                         _______ _______ _______ _____ _____    ______ ____
ROOT
ATOM      1  C   UNL     1      -9.121  16.399  66.752  0.00  0.00    +0.158 C 
ENDROOT
BRANCH   1   3
ATOM      2  C   UNL     1     -10.297  17.484  68.555  0.00  0.00    +0.171 C 
ATOM      3  N   UNL     1      -9.399  17.654  67.420  0.00  0.00    +0.313 N 
ATOM      4  C   UNL     1     -10.022  18.548  66.443  0.00  0.00    +0.171 C 
ATOM      5  C   UNL     1      -8.137  18.220  67.886  0.00  0.00    +0.171 C 
ENDBRANCH   1   3
BRANCH   1   6
ATOM      6  C   UNL     1     -10.459  15.686  66.596  0.00  0.00    +0.271 C 
BRANCH   6   7
ATOM      7  O   UNL     1     -10.494  15.250  65.238  0.00  0.00    -0.426 OA
BRANCH   7   8
ATOM      8  C   UNL     1     -11.604  15.503  64.426  0.00  0.00    +0.441 C 
ATOM      9  O   UNL     1     -11.633  16.659  63.907  0.00  0.00    -0.223 OA
ATOM     10  N   UNL     1     -12.488  14.475  63.984  0.00  0.00    -0.048 NA
ENDBRANCH   7   8
ENDBRANCH   6   7
ENDBRANCH   1   6
TORSDOF 4
ENDMDL
