MODEL 1
REMARK VINA RESULT:      -7.9      0.000      0.000
REMARK  Name = 
REMARK  7 active torsions:
REMARK  status: ('A' for Active; 'I' for Inactive)
REMARK    1  A    between atoms: C_2  and  C_3
REMARK    2  A    between atoms: C_3  and  S_4
REMARK    3  A    between atoms: S_4  and  N_7
REMARK    4  A    between atoms: N_7  and  C_8
REMARK    5  A    between atoms: C_13  and  C_14
REMARK    6  A    between atoms: C_14  and  C_16
REMARK    7  A    between atoms: C_22  and  C_23
REMARK                            x       y       z     vdW  Elec       q    Type
REMARK                         _______ _______ _______ _____ _____    ______ ____
ROOT
ATOM      1  C   UNL     1     -10.031  11.206  65.810  0.00  0.00    +0.202 C 
ATOM      2  O   UNL     1      -9.492  10.741  64.766  0.00  0.00    -0.286 OA
ENDROOT
BRANCH   1   3
ATOM      3  C   UNL     1      -9.648  10.592  67.069  0.00  0.00    +0.061 A 
ATOM      4  C   UNL     1     -10.521  10.473  68.146  0.00  0.00    +0.040 A 
ATOM      5  C   UNL     1      -9.826   9.673  69.046  0.00  0.00    +0.162 A 
ATOM      6  N   UNL     1     -10.484   9.355  70.186  0.00  0.00    -0.225 NA
ATOM      7  C   UNL     1     -11.535  10.081  70.636  0.00  0.00    +0.101 A 
ATOM      8  C   UNL     1     -12.008  11.183  69.932  0.00  0.00    +0.019 A 
ATOM      9  N   UNL     1      -8.524   9.654  68.669  0.00  0.00    -0.225 NA
ATOM     10  C   UNL     1     -11.590  11.230  68.607  0.00  0.00    +0.005 A 
ATOM     11  C   UNL     1      -8.360  10.317  67.511  0.00  0.00    +0.104 A 
BRANCH   8  12
ATOM     12  C   UNL     1     -12.411  12.394  70.660  0.00  0.00    +0.002 A 
ATOM     13  C   UNL     1     -12.075  13.658  70.242  0.00  0.00    +0.001 A 
ATOM     14  C   UNL     1     -12.394  14.750  71.040  0.00  0.00    +0.011 A 
ATOM     15  C   UNL     1     -13.306  14.614  72.080  0.00  0.00    +0.058 A 
ATOM     16 CL   UNL     1     -13.518  15.967  73.184  0.00  0.00    -0.082 Cl
ATOM     17  C   UNL     1     -13.777  13.352  72.421  0.00  0.00    +0.011 A 
ATOM     18  C   UNL     1     -13.165  12.275  71.819  0.00  0.00    +0.001 A 
ENDBRANCH   8  12
ENDBRANCH   1   3
BRANCH   1  22
ATOM     19  C   UNL     1     -10.610  14.900  66.278  0.00  0.00    +0.118 A 
ATOM     20  C   UNL     1     -10.050  13.640  66.351  0.00  0.00    +0.162 A 
ATOM     21  F   UNL     1      -8.709  13.599  66.601  0.00  0.00    -0.203 F 
ATOM     22  C   UNL     1     -10.607  12.543  65.707  0.00  0.00    +0.095 A 
ATOM     23  C   UNL     1     -11.819  12.766  65.080  0.00  0.00    +0.145 A 
ATOM     24  F   UNL     1     -12.388  11.773  64.335  0.00  0.00    -0.204 F 
ATOM     25  C   UNL     1     -12.510  13.959  65.198  0.00  0.00    +0.031 A 
ATOM     26  C   UNL     1     -11.888  15.048  65.781  0.00  0.00    +0.023 A 
BRANCH  19  27
ATOM     27  N   UNL     1      -9.847  16.059  66.611  0.00  0.00    -0.098 NA
BRANCH  27  28
ATOM     28  S   UNL     1      -9.981  16.790  68.158  0.00  0.00    +0.073 S 
ATOM     29  O   UNL     1     -11.428  16.839  68.512  0.00  0.00    -0.153 OA
ATOM     30  O   UNL     1      -9.192  15.938  69.121  0.00  0.00    -0.153 OA
BRANCH  28  31
ATOM     31  C   UNL     1      -9.240  18.396  68.068  0.00  0.00    +0.174 C 
BRANCH  31  33
ATOM     32  C   UNL     1     -10.415  19.634  66.271  0.00  0.00    +0.002 C 
ATOM     33  C   UNL     1     -10.276  19.471  67.770  0.00  0.00    +0.027 C 
ENDBRANCH  31  33
ENDBRANCH  28  31
ENDBRANCH  27  28
ENDBRANCH  19  27
ENDBRANCH   1  22
TORSDOF 7
ENDMDL
MODEL 2
REMARK VINA RESULT:      -7.7      2.658      5.623
REMARK  Name = 
REMARK  7 active torsions:
REMARK  status: ('A' for Active; 'I' for Inactive)
REMARK    1  A    between atoms: C_2  and  C_3
REMARK    2  A    between atoms: C_3  and  S_4
REMARK    3  A    between atoms: S_4  and  N_7
REMARK    4  A    between atoms: N_7  and  C_8
REMARK    5  A    between atoms: C_13  and  C_14
REMARK    6  A    between atoms: C_14  and  C_16
REMARK    7  A    between atoms: C_22  and  C_23
REMARK                            x       y       z     vdW  Elec       q    Type
REMARK                         _______ _______ _______ _____ _____    ______ ____
ROOT
ATOM      1  C   UNL     1     -11.877  12.845  64.704  0.00  0.00    +0.202 C 
ATOM      2  O   UNL     1     -13.127  12.659  64.741  0.00  0.00    -0.286 OA
ENDROOT
BRANCH   1   3
ATOM      3  C   UNL     1     -11.417  14.210  64.897  0.00  0.00    +0.061 A 
ATOM      4  C   UNL     1     -10.726  14.620  66.032  0.00  0.00    +0.040 A 
ATOM      5  C   UNL     1     -10.318  15.912  65.720  0.00  0.00    +0.162 A 
ATOM      6  N   UNL     1      -9.567  16.538  66.658  0.00  0.00    -0.225 NA
ATOM      7  C   UNL     1      -9.564  16.147  67.955  0.00  0.00    +0.101 A 
ATOM      8  C   UNL     1     -10.320  15.063  68.387  0.00  0.00    +0.019 A 
ATOM      9  N   UNL     1     -11.039  16.331  64.652  0.00  0.00    -0.225 NA
ATOM     10  C   UNL     1     -10.739  14.221  67.363  0.00  0.00    +0.005 A 
ATOM     11  C   UNL     1     -11.818  15.337  64.192  0.00  0.00    +0.104 A 
BRANCH   8  12
ATOM     12  C   UNL     1     -11.037  15.138  69.668  0.00  0.00    +0.002 A 
ATOM     13  C   UNL     1     -11.130  16.296  70.400  0.00  0.00    +0.001 A 
ATOM     14  C   UNL     1     -11.727  16.266  71.654  0.00  0.00    +0.011 A 
ATOM     15  C   UNL     1     -12.494  15.172  72.038  0.00  0.00    +0.058 A 
ATOM     16 CL   UNL     1     -13.053  15.090  73.704  0.00  0.00    -0.082 Cl
ATOM     17  C   UNL     1     -12.533  14.042  71.230  0.00  0.00    +0.011 A 
ATOM     18  C   UNL     1     -11.653  14.002  70.172  0.00  0.00    +0.001 A 
ENDBRANCH   8  12
ENDBRANCH   1   3
BRANCH   1  22
ATOM     19  C   UNL     1     -10.069   9.995  66.377  0.00  0.00    +0.118 A 
ATOM     20  C   UNL     1     -10.888  11.086  66.169  0.00  0.00    +0.162 A 
ATOM     21  F   UNL     1     -11.920  11.234  67.049  0.00  0.00    -0.203 F 
ATOM     22  C   UNL     1     -11.035  11.673  64.918  0.00  0.00    +0.095 A 
ATOM     23  C   UNL     1     -10.226  11.167  63.917  0.00  0.00    +0.145 A 
ATOM     24  F   UNL     1     -10.376  11.612  62.636  0.00  0.00    -0.204 F 
ATOM     25  C   UNL     1      -9.232  10.237  64.164  0.00  0.00    +0.031 A 
ATOM     26  C   UNL     1      -9.169   9.623  65.401  0.00  0.00    +0.023 A 
BRANCH  19  27
ATOM     27  N   UNL     1     -10.216   9.185  67.543  0.00  0.00    -0.098 NA
BRANCH  27  28
ATOM     28  S   UNL     1      -9.302   9.504  68.961  0.00  0.00    +0.073 S 
ATOM     29  O   UNL     1      -8.193   8.509  69.018  0.00  0.00    -0.153 OA
ATOM     30  O   UNL     1      -8.788  10.918  68.849  0.00  0.00    -0.153 OA
BRANCH  28  31
ATOM     31  C   UNL     1     -10.394   9.395  70.350  0.00  0.00    +0.174 C 
BRANCH  31  33
ATOM     32  C   UNL     1     -12.490  10.196  71.402  0.00  0.00    +0.002 C 
ATOM     33  C   UNL     1     -11.592  10.323  70.191  0.00  0.00    +0.027 C 
ENDBRANCH  31  33
ENDBRANCH  28  31
ENDBRANCH  27  28
ENDBRANCH  19  27
ENDBRANCH   1  22
TORSDOF 7
ENDMDL
MODEL 3
REMARK VINA RESULT:      -7.6      1.275      1.506
REMARK  Name = 
REMARK  7 active torsions:
REMARK  status: ('A' for Active; 'I' for Inactive)
REMARK    1  A    between atoms: C_2  and  C_3
REMARK    2  A    between atoms: C_3  and  S_4
REMARK    3  A    between atoms: S_4  and  N_7
REMARK    4  A    between atoms: N_7  and  C_8
REMARK    5  A    between atoms: C_13  and  C_14
REMARK    6  A    between atoms: C_14  and  C_16
REMARK    7  A    between atoms: C_22  and  C_23
REMARK                            x       y       z     vdW  Elec       q    Type
REMARK                         _______ _______ _______ _____ _____    ______ ____
ROOT
ATOM      1  C   UNL     1      -9.094  11.155  66.478  0.00  0.00    +0.202 C 
ATOM      2  O   UNL     1      -8.098  11.066  65.704  0.00  0.00    -0.286 OA
ENDROOT
BRANCH   1   3
ATOM      3  C   UNL     1      -8.944  10.572  67.800  0.00  0.00    +0.061 A 
ATOM      4  C   UNL     1     -10.003  10.444  68.692  0.00  0.00    +0.040 A 
ATOM      5  C   UNL     1      -9.473   9.679  69.724  0.00  0.00    +0.162 A 
ATOM      6  N   UNL     1     -10.329   9.360  70.725  0.00  0.00    -0.225 NA
ATOM      7  C   UNL     1     -11.465  10.062  70.950  0.00  0.00    +0.101 A 
ATOM      8  C   UNL     1     -11.823  11.138  70.146  0.00  0.00    +0.019 A 
ATOM      9  N   UNL     1      -8.123   9.692  69.604  0.00  0.00    -0.225 NA
ATOM     10  C   UNL     1     -11.160  11.177  68.925  0.00  0.00    +0.005 A 
ATOM     11  C   UNL     1      -7.758  10.341  68.485  0.00  0.00    +0.104 A 
BRANCH   8  12
ATOM     12  C   UNL     1     -12.388  12.349  70.758  0.00  0.00    +0.002 A 
ATOM     13  C   UNL     1     -12.173  13.607  70.251  0.00  0.00    +0.001 A 
ATOM     14  C   UNL     1     -12.646  14.714  70.946  0.00  0.00    +0.011 A 
ATOM     15  C   UNL     1     -13.583  14.556  71.959  0.00  0.00    +0.058 A 
ATOM     16 CL   UNL     1     -13.992  15.957  72.941  0.00  0.00    -0.082 Cl
ATOM     17  C   UNL     1     -13.929  13.278  72.384  0.00  0.00    +0.011 A 
ATOM     18  C   UNL     1     -13.177  12.234  71.894  0.00  0.00    +0.001 A 
ENDBRANCH   8  12
ENDBRANCH   1   3
BRANCH   1  22
ATOM     19  C   UNL     1     -11.080  14.356  66.534  0.00  0.00    +0.118 A 
ATOM     20  C   UNL     1     -10.127  13.399  66.818  0.00  0.00    +0.162 A 
ATOM     21  F   UNL     1      -8.958  13.861  67.347  0.00  0.00    -0.203 F 
ATOM     22  C   UNL     1     -10.083  12.178  66.155  0.00  0.00    +0.095 A 
ATOM     23  C   UNL     1     -11.118  11.936  65.272  0.00  0.00    +0.145 A 
ATOM     24  F   UNL     1     -11.100  10.809  64.501  0.00  0.00    -0.204 F 
ATOM     25  C   UNL     1     -12.207  12.781  65.152  0.00  0.00    +0.031 A 
ATOM     26  C   UNL     1     -12.177  14.018  65.769  0.00  0.00    +0.023 A 
BRANCH  19  27
ATOM     27  N   UNL     1     -10.892  15.714  66.932  0.00  0.00    -0.098 NA
BRANCH  27  28
ATOM     28  S   UNL     1     -10.171  16.853  65.869  0.00  0.00    +0.073 S 
ATOM     29  O   UNL     1      -8.714  16.544  65.793  0.00  0.00    -0.153 OA
ATOM     30  O   UNL     1     -10.851  16.703  64.530  0.00  0.00    -0.153 OA
BRANCH  28  31
ATOM     31  C   UNL     1     -10.498  18.473  66.504  0.00  0.00    +0.174 C 
BRANCH  31  33
ATOM     32  C   UNL     1      -8.499  19.460  67.586  0.00  0.00    +0.002 C 
ATOM     33  C   UNL     1      -9.787  18.705  67.831  0.00  0.00    +0.027 C 
ENDBRANCH  31  33
ENDBRANCH  28  31
ENDBRANCH  27  28
ENDBRANCH  19  27
ENDBRANCH   1  22
TORSDOF 7
ENDMDL
MODEL 4
REMARK VINA RESULT:      -7.6      4.718      9.200
REMARK  Name = 
REMARK  7 active torsions:
REMARK  status: ('A' for Active; 'I' for Inactive)
REMARK    1  A    between atoms: C_2  and  C_3
REMARK    2  A    between atoms: C_3  and  S_4
REMARK    3  A    between atoms: S_4  and  N_7
REMARK    4  A    between atoms: N_7  and  C_8
REMARK    5  A    between atoms: C_13  and  C_14
REMARK    6  A    between atoms: C_14  and  C_16
REMARK    7  A    between atoms: C_22  and  C_23
REMARK                            x       y       z     vdW  Elec       q    Type
REMARK                         _______ _______ _______ _____ _____    ______ ____
ROOT
ATOM      1  C   UNL     1     -10.037  17.916  67.639  0.00  0.00    +0.202 C 
ATOM      2  O   UNL     1     -10.883  18.852  67.571  0.00  0.00    -0.286 OA
ENDROOT
BRANCH   1   3
ATOM      3  C   UNL     1      -8.699  18.279  68.071  0.00  0.00    +0.061 A 
ATOM      4  C   UNL     1      -7.954  19.281  67.457  0.00  0.00    +0.040 A 
ATOM      5  C   UNL     1      -6.849  19.425  68.289  0.00  0.00    +0.162 A 
ATOM      6  N   UNL     1      -5.968  20.392  67.939  0.00  0.00    -0.225 NA
ATOM      7  C   UNL     1      -5.907  20.889  66.680  0.00  0.00    +0.101 A 
ATOM      8  C   UNL     1      -6.767  20.442  65.683  0.00  0.00    +0.019 A 
ATOM      9  N   UNL     1      -6.789  18.338  69.095  0.00  0.00    -0.225 NA
ATOM     10  C   UNL     1      -7.889  19.775  66.161  0.00  0.00    +0.005 A 
ATOM     11  C   UNL     1      -7.858  17.548  68.901  0.00  0.00    +0.104 A 
BRANCH   8  12
ATOM     12  C   UNL     1      -6.254  20.217  64.324  0.00  0.00    +0.002 A 
ATOM     13  C   UNL     1      -6.379  21.145  63.320  0.00  0.00    +0.001 A 
ATOM     14  C   UNL     1      -5.970  20.819  62.033  0.00  0.00    +0.011 A 
ATOM     15  C   UNL     1      -5.165  19.707  61.815  0.00  0.00    +0.058 A 
ATOM     16 CL   UNL     1      -4.849  19.221  60.154  0.00  0.00    -0.082 Cl
ATOM     17  C   UNL     1      -4.901  18.832  62.862  0.00  0.00    +0.011 A 
ATOM     18  C   UNL     1      -5.611  19.024  64.027  0.00  0.00    +0.001 A 
ENDBRANCH   8  12
ENDBRANCH   1   3
BRANCH   1  22
ATOM     19  C   UNL     1     -11.187  14.462  66.667  0.00  0.00    +0.118 A 
ATOM     20  C   UNL     1     -10.657  15.735  66.601  0.00  0.00    +0.162 A 
ATOM     21  F   UNL     1      -9.766  15.957  65.592  0.00  0.00    -0.203 F 
ATOM     22  C   UNL     1     -10.569  16.559  67.716  0.00  0.00    +0.095 A 
ATOM     23  C   UNL     1     -11.146  16.069  68.873  0.00  0.00    +0.145 A 
ATOM     24  F   UNL     1     -11.017  16.763  70.041  0.00  0.00    -0.204 F 
ATOM     25  C   UNL     1     -11.889  14.901  68.896  0.00  0.00    +0.031 A 
ATOM     26  C   UNL     1     -11.887  14.074  67.789  0.00  0.00    +0.023 A 
BRANCH  19  27
ATOM     27  N   UNL     1     -10.928  13.510  65.635  0.00  0.00    -0.098 NA
BRANCH  27  28
ATOM     28  S   UNL     1     -12.087  13.203  64.407  0.00  0.00    +0.073 S 
ATOM     29  O   UNL     1     -13.275  12.574  65.051  0.00  0.00    -0.153 OA
ATOM     30  O   UNL     1     -12.424  14.530  63.772  0.00  0.00    -0.153 OA
BRANCH  28  31
ATOM     31  C   UNL     1     -11.331  12.158  63.193  0.00  0.00    +0.174 C 
BRANCH  31  33
ATOM     32  C   UNL     1      -9.432  10.620  62.785  0.00  0.00    +0.002 C 
ATOM     33  C   UNL     1     -10.381  11.155  63.834  0.00  0.00    +0.027 C 
ENDBRANCH  31  33
ENDBRANCH  28  31
ENDBRANCH  27  28
ENDBRANCH  19  27
ENDBRANCH   1  22
TORSDOF 7
ENDMDL
MODEL 5
REMARK VINA RESULT:      -7.3      4.197      6.419
REMARK  Name = 
REMARK  7 active torsions:
REMARK  status: ('A' for Active; 'I' for Inactive)
REMARK    1  A    between atoms: C_2  and  C_3
REMARK    2  A    between atoms: C_3  and  S_4
REMARK    3  A    between atoms: S_4  and  N_7
REMARK    4  A    between atoms: N_7  and  C_8
REMARK    5  A    between atoms: C_13  and  C_14
REMARK    6  A    between atoms: C_14  and  C_16
REMARK    7  A    between atoms: C_22  and  C_23
REMARK                            x       y       z     vdW  Elec       q    Type
REMARK                         _______ _______ _______ _____ _____    ______ ____
ROOT
ATOM      1  C   UNL     1     -10.473  16.362  68.130  0.00  0.00    +0.202 C 
ATOM      2  O   UNL     1     -11.430  16.782  68.842  0.00  0.00    -0.286 OA
ENDROOT
BRANCH   1   3
ATOM      3  C   UNL     1     -10.794  15.993  66.762  0.00  0.00    +0.061 A 
ATOM      4  C   UNL     1     -11.427  14.799  66.432  0.00  0.00    +0.040 A 
ATOM      5  C   UNL     1     -11.708  14.940  65.078  0.00  0.00    +0.162 A 
ATOM      6  N   UNL     1     -12.381  13.914  64.504  0.00  0.00    -0.225 NA
ATOM      7  C   UNL     1     -12.406  12.675  65.050  0.00  0.00    +0.101 A 
ATOM      8  C   UNL     1     -11.756  12.398  66.247  0.00  0.00    +0.019 A 
ATOM      9  N   UNL     1     -10.964  15.967  64.601  0.00  0.00    -0.225 NA
ATOM     10  C   UNL     1     -11.436  13.528  66.992  0.00  0.00    +0.005 A 
ATOM     11  C   UNL     1     -10.293  16.564  65.599  0.00  0.00    +0.104 A 
BRANCH   8  12
ATOM     12  C   UNL     1     -11.019  11.136  66.401  0.00  0.00    +0.002 A 
ATOM     13  C   UNL     1     -11.099  10.362  67.533  0.00  0.00    +0.001 A 
ATOM     14  C   UNL     1     -10.289   9.240  67.653  0.00  0.00    +0.011 A 
ATOM     15  C   UNL     1      -9.640   8.723  66.539  0.00  0.00    +0.058 A 
ATOM     16 CL   UNL     1      -8.468   7.434  66.781  0.00  0.00    -0.082 Cl
ATOM     17  C   UNL     1      -9.674   9.420  65.337  0.00  0.00    +0.011 A 
ATOM     18  C   UNL     1     -10.205  10.691  65.369  0.00  0.00    +0.001 A 
ENDBRANCH   8  12
ENDBRANCH   1   3
BRANCH   1  22
ATOM     19  C   UNL     1      -7.304  18.282  68.810  0.00  0.00    +0.118 A 
ATOM     20  C   UNL     1      -8.587  17.969  68.411  0.00  0.00    +0.162 A 
ATOM     21  F   UNL     1      -9.463  19.013  68.352  0.00  0.00    -0.203 F 
ATOM     22  C   UNL     1      -9.127  16.700  68.579  0.00  0.00    +0.095 A 
ATOM     23  C   UNL     1      -8.262  15.739  69.069  0.00  0.00    +0.145 A 
ATOM     24  F   UNL     1      -8.731  14.491  69.363  0.00  0.00    -0.204 F 
ATOM     25  C   UNL     1      -6.910  15.977  69.248  0.00  0.00    +0.031 A 
ATOM     26  C   UNL     1      -6.429  17.269  69.144  0.00  0.00    +0.023 A 
BRANCH  19  27
ATOM     27  N   UNL     1      -6.904  19.641  68.982  0.00  0.00    -0.098 NA
BRANCH  27  28
ATOM     28  S   UNL     1      -5.991  20.452  67.776  0.00  0.00    +0.073 S 
ATOM     29  O   UNL     1      -6.790  21.621  67.311  0.00  0.00    -0.153 OA
ATOM     30  O   UNL     1      -4.689  20.874  68.412  0.00  0.00    -0.153 OA
BRANCH  28  31
ATOM     31  C   UNL     1      -5.650  19.294  66.480  0.00  0.00    +0.174 C 
BRANCH  31  33
ATOM     32  C   UNL     1      -6.016  20.195  64.200  0.00  0.00    +0.002 C 
ATOM     33  C   UNL     1      -6.650  19.425  65.339  0.00  0.00    +0.027 C 
ENDBRANCH  31  33
ENDBRANCH  28  31
ENDBRANCH  27  28
ENDBRANCH  19  27
ENDBRANCH   1  22
TORSDOF 7
ENDMDL
MODEL 6
REMARK VINA RESULT:      -7.3      2.458      3.648
REMARK  Name = 
REMARK  7 active torsions:
REMARK  status: ('A' for Active; 'I' for Inactive)
REMARK    1  A    between atoms: C_2  and  C_3
REMARK    2  A    between atoms: C_3  and  S_4
REMARK    3  A    between atoms: S_4  and  N_7
REMARK    4  A    between atoms: N_7  and  C_8
REMARK    5  A    between atoms: C_13  and  C_14
REMARK    6  A    between atoms: C_14  and  C_16
REMARK    7  A    between atoms: C_22  and  C_23
REMARK                            x       y       z     vdW  Elec       q    Type
REMARK                         _______ _______ _______ _____ _____    ______ ____
ROOT
ATOM      1  C   UNL     1      -7.959  10.411  68.170  0.00  0.00    +0.202 C 
ATOM      2  O   UNL     1      -7.258  11.426  68.445  0.00  0.00    -0.286 OA
ENDROOT
BRANCH   1   3
ATOM      3  C   UNL     1      -8.560   9.712  69.292  0.00  0.00    +0.061 A 
ATOM      4  C   UNL     1      -9.906   9.833  69.623  0.00  0.00    +0.040 A 
ATOM      5  C   UNL     1     -10.089   8.870  70.609  0.00  0.00    +0.162 A 
ATOM      6  N   UNL     1     -11.352   8.742  71.083  0.00  0.00    -0.225 NA
ATOM      7  C   UNL     1     -12.273   9.727  70.953  0.00  0.00    +0.101 A 
ATOM      8  C   UNL     1     -11.971  10.919  70.303  0.00  0.00    +0.019 A 
ATOM      9  N   UNL     1      -8.868   8.496  71.061  0.00  0.00    -0.225 NA
ATOM     10  C   UNL     1     -10.839  10.854  69.498  0.00  0.00    +0.005 A 
ATOM     11  C   UNL     1      -7.899   9.092  70.345  0.00  0.00    +0.104 A 
BRANCH   8  12
ATOM     12  C   UNL     1     -12.456  12.192  70.853  0.00  0.00    +0.002 A 
ATOM     13  C   UNL     1     -12.138  13.409  70.302  0.00  0.00    +0.001 A 
ATOM     14  C   UNL     1     -12.541  14.575  70.941  0.00  0.00    +0.011 A 
ATOM     15  C   UNL     1     -13.507  14.529  71.938  0.00  0.00    +0.058 A 
ATOM     16 CL   UNL     1     -13.830  15.996  72.854  0.00  0.00    -0.082 Cl
ATOM     17  C   UNL     1     -13.955  13.299  72.406  0.00  0.00    +0.011 A 
ATOM     18  C   UNL     1     -13.273  12.183  71.975  0.00  0.00    +0.001 A 
ENDBRANCH   8  12
ENDBRANCH   1   3
BRANCH   1  22
ATOM     19  C   UNL     1      -9.779  11.151  64.955  0.00  0.00    +0.118 A 
ATOM     20  C   UNL     1      -9.292  11.262  66.241  0.00  0.00    +0.162 A 
ATOM     21  F   UNL     1      -9.210  12.530  66.740  0.00  0.00    -0.203 F 
ATOM     22  C   UNL     1      -8.450  10.308  66.799  0.00  0.00    +0.095 A 
ATOM     23  C   UNL     1      -8.220   9.184  66.028  0.00  0.00    +0.145 A 
ATOM     24  F   UNL     1      -7.325   8.244  66.450  0.00  0.00    -0.204 F 
ATOM     25  C   UNL     1      -8.889   8.949  64.840  0.00  0.00    +0.031 A 
ATOM     26  C   UNL     1      -9.657   9.954  64.282  0.00  0.00    +0.023 A 
BRANCH  19  27
ATOM     27  N   UNL     1     -10.312  12.288  64.276  0.00  0.00    -0.098 NA
BRANCH  27  28
ATOM     28  S   UNL     1     -11.882  12.878  64.641  0.00  0.00    +0.073 S 
ATOM     29  O   UNL     1     -12.789  12.471  63.529  0.00  0.00    -0.153 OA
ATOM     30  O   UNL     1     -12.292  12.266  65.957  0.00  0.00    -0.153 OA
BRANCH  28  31
ATOM     31  C   UNL     1     -11.774  14.636  64.831  0.00  0.00    +0.174 C 
BRANCH  31  33
ATOM     32  C   UNL     1     -10.350  16.252  66.055  0.00  0.00    +0.002 C 
ATOM     33  C   UNL     1     -10.342  15.080  65.098  0.00  0.00    +0.027 C 
ENDBRANCH  31  33
ENDBRANCH  28  31
ENDBRANCH  27  28
ENDBRANCH  19  27
ENDBRANCH   1  22
TORSDOF 7
ENDMDL
MODEL 7
REMARK VINA RESULT:      -7.3      3.277      4.832
REMARK  Name = 
REMARK  7 active torsions:
REMARK  status: ('A' for Active; 'I' for Inactive)
REMARK    1  A    between atoms: C_2  and  C_3
REMARK    2  A    between atoms: C_3  and  S_4
REMARK    3  A    between atoms: S_4  and  N_7
REMARK    4  A    between atoms: N_7  and  C_8
REMARK    5  A    between atoms: C_13  and  C_14
REMARK    6  A    between atoms: C_14  and  C_16
REMARK    7  A    between atoms: C_22  and  C_23
REMARK                            x       y       z     vdW  Elec       q    Type
REMARK                         _______ _______ _______ _____ _____    ______ ____
ROOT
ATOM      1  C   UNL     1      -9.871  16.409  66.126  0.00  0.00    +0.202 C 
ATOM      2  O   UNL     1     -10.244  16.495  64.922  0.00  0.00    -0.286 OA
ENDROOT
BRANCH   1   3
ATOM      3  C   UNL     1      -9.709  15.070  66.663  0.00  0.00    +0.061 A 
ATOM      4  C   UNL     1     -10.647  14.474  67.500  0.00  0.00    +0.040 A 
ATOM      5  C   UNL     1     -10.201  13.161  67.611  0.00  0.00    +0.162 A 
ATOM      6  N   UNL     1     -10.978  12.333  68.350  0.00  0.00    -0.225 NA
ATOM      7  C   UNL     1     -11.864  12.801  69.261  0.00  0.00    +0.101 A 
ATOM      8  C   UNL     1     -12.037  14.165  69.470  0.00  0.00    +0.019 A 
ATOM      9  N   UNL     1      -8.917  13.118  67.179  0.00  0.00    -0.225 NA
ATOM     10  C   UNL     1     -11.543  14.961  68.442  0.00  0.00    +0.005 A 
ATOM     11  C   UNL     1      -8.543  14.315  66.696  0.00  0.00    +0.104 A 
BRANCH   8  12
ATOM     12  C   UNL     1     -12.199  14.679  70.837  0.00  0.00    +0.002 A 
ATOM     13  C   UNL     1     -11.841  15.955  71.198  0.00  0.00    +0.001 A 
ATOM     14  C   UNL     1     -11.919  16.335  72.532  0.00  0.00    +0.011 A 
ATOM     15  C   UNL     1     -12.633  15.563  73.439  0.00  0.00    +0.058 A 
ATOM     16 CL   UNL     1     -12.528  15.973  75.147  0.00  0.00    -0.082 Cl
ATOM     17  C   UNL     1     -13.137  14.328  73.046  0.00  0.00    +0.011 A 
ATOM     18  C   UNL     1     -12.736  13.856  71.816  0.00  0.00    +0.001 A 
ENDBRANCH   8  12
ENDBRANCH   1   3
BRANCH   1  22
ATOM     19  C   UNL     1      -7.254  18.908  67.174  0.00  0.00    +0.118 A 
ATOM     20  C   UNL     1      -7.863  17.807  66.609  0.00  0.00    +0.162 A 
ATOM     21  F   UNL     1      -7.214  17.247  65.547  0.00  0.00    -0.203 F 
ATOM     22  C   UNL     1      -9.232  17.590  66.698  0.00  0.00    +0.095 A 
ATOM     23  C   UNL     1      -9.933  18.487  67.484  0.00  0.00    +0.145 A 
ATOM     24  F   UNL     1     -11.294  18.413  67.546  0.00  0.00    -0.204 F 
ATOM     25  C   UNL     1      -9.304  19.454  68.249  0.00  0.00    +0.031 A 
ATOM     26  C   UNL     1      -7.953  19.686  68.072  0.00  0.00    +0.023 A 
BRANCH  19  27
ATOM     27  N   UNL     1      -5.948  19.312  66.761  0.00  0.00    -0.098 NA
BRANCH  27  28
ATOM     28  S   UNL     1      -4.547  18.556  67.401  0.00  0.00    +0.073 S 
ATOM     29  O   UNL     1      -4.485  17.172  66.848  0.00  0.00    -0.153 OA
ATOM     30  O   UNL     1      -3.361  19.387  66.978  0.00  0.00    -0.153 OA
BRANCH  28  31
ATOM     31  C   UNL     1      -4.670  18.584  69.168  0.00  0.00    +0.174 C 
BRANCH  31  33
ATOM     32  C   UNL     1      -5.225  20.786  70.161  0.00  0.00    +0.002 C 
ATOM     33  C   UNL     1      -4.094  19.870  69.746  0.00  0.00    +0.027 C 
ENDBRANCH  31  33
ENDBRANCH  28  31
ENDBRANCH  27  28
ENDBRANCH  19  27
ENDBRANCH   1  22
TORSDOF 7
ENDMDL
MODEL 8
REMARK VINA RESULT:      -7.2      4.197      6.545
REMARK  Name = 
REMARK  7 active torsions:
REMARK  status: ('A' for Active; 'I' for Inactive)
REMARK    1  A    between atoms: C_2  and  C_3
REMARK    2  A    between atoms: C_3  and  S_4
REMARK    3  A    between atoms: S_4  and  N_7
REMARK    4  A    between atoms: N_7  and  C_8
REMARK    5  A    between atoms: C_13  and  C_14
REMARK    6  A    between atoms: C_14  and  C_16
REMARK    7  A    between atoms: C_22  and  C_23
REMARK                            x       y       z     vdW  Elec       q    Type
REMARK                         _______ _______ _______ _____ _____    ______ ____
ROOT
ATOM      1  C   UNL     1     -10.508  16.316  68.106  0.00  0.00    +0.202 C 
ATOM      2  O   UNL     1     -11.476  16.685  68.830  0.00  0.00    -0.286 OA
ENDROOT
BRANCH   1   3
ATOM      3  C   UNL     1     -10.821  15.957  66.734  0.00  0.00    +0.061 A 
ATOM      4  C   UNL     1     -11.443  14.761  66.390  0.00  0.00    +0.040 A 
ATOM      5  C   UNL     1     -11.721  14.913  65.037  0.00  0.00    +0.162 A 
ATOM      6  N   UNL     1     -12.384  13.888  64.451  0.00  0.00    -0.225 NA
ATOM      7  C   UNL     1     -12.401  12.643  64.985  0.00  0.00    +0.101 A 
ATOM      8  C   UNL     1     -11.752  12.360  66.182  0.00  0.00    +0.019 A 
ATOM      9  N   UNL     1     -10.983  15.950  64.572  0.00  0.00    -0.225 NA
ATOM     10  C   UNL     1     -11.444  13.485  66.938  0.00  0.00    +0.005 A 
ATOM     11  C   UNL     1     -10.320  16.544  65.579  0.00  0.00    +0.104 A 
BRANCH   8  12
ATOM     12  C   UNL     1     -11.006  11.102  66.327  0.00  0.00    +0.002 A 
ATOM     13  C   UNL     1     -10.236  10.576  65.320  0.00  0.00    +0.001 A 
ATOM     14  C   UNL     1      -9.649   9.327  65.489  0.00  0.00    +0.011 A 
ATOM     15  C   UNL     1      -9.573   8.756  66.754  0.00  0.00    +0.058 A 
ATOM     16 CL   UNL     1      -9.012   7.094  66.884  0.00  0.00    -0.082 Cl
ATOM     17  C   UNL     1     -10.224   9.360  67.823  0.00  0.00    +0.011 A 
ATOM     18  C   UNL     1     -11.069  10.406  67.526  0.00  0.00    +0.001 A 
ENDBRANCH   8  12
ENDBRANCH   1   3
BRANCH   1  22
ATOM     19  C   UNL     1      -7.388  18.330  68.741  0.00  0.00    +0.118 A 
ATOM     20  C   UNL     1      -8.660  17.974  68.343  0.00  0.00    +0.162 A 
ATOM     21  F   UNL     1      -9.558  18.996  68.236  0.00  0.00    -0.203 F 
ATOM     22  C   UNL     1      -9.173  16.700  68.555  0.00  0.00    +0.095 A 
ATOM     23  C   UNL     1      -8.293  15.778  69.089  0.00  0.00    +0.145 A 
ATOM     24  F   UNL     1      -8.738  14.533  69.427  0.00  0.00    -0.204 F 
ATOM     25  C   UNL     1      -6.949  16.053  69.272  0.00  0.00    +0.031 A 
ATOM     26  C   UNL     1      -6.495  17.351  69.123  0.00  0.00    +0.023 A 
BRANCH  19  27
ATOM     27  N   UNL     1      -7.019  19.703  68.865  0.00  0.00    -0.098 NA
BRANCH  27  28
ATOM     28  S   UNL     1      -5.899  20.418  67.778  0.00  0.00    +0.073 S 
ATOM     29  O   UNL     1      -5.678  19.458  66.658  0.00  0.00    -0.153 OA
ATOM     30  O   UNL     1      -6.508  21.713  67.300  0.00  0.00    -0.153 OA
BRANCH  28  31
ATOM     31  C   UNL     1      -4.417  20.776  68.679  0.00  0.00    +0.174 C 
BRANCH  31  33
ATOM     32  C   UNL     1      -3.438  21.011  70.943  0.00  0.00    +0.002 C 
ATOM     33  C   UNL     1      -4.716  21.099  70.137  0.00  0.00    +0.027 C 
ENDBRANCH  31  33
ENDBRANCH  28  31
ENDBRANCH  27  28
ENDBRANCH  19  27
ENDBRANCH   1  22
TORSDOF 7
ENDMDL
MODEL 9
REMARK VINA RESULT:      -7.2      4.956      8.087
REMARK  Name = 
REMARK  7 active torsions:
REMARK  status: ('A' for Active; 'I' for Inactive)
REMARK    1  A    between atoms: C_2  and  C_3
REMARK    2  A    between atoms: C_3  and  S_4
REMARK    3  A    between atoms: S_4  and  N_7
REMARK    4  A    between atoms: N_7  and  C_8
REMARK    5  A    between atoms: C_13  and  C_14
REMARK    6  A    between atoms: C_14  and  C_16
REMARK    7  A    between atoms: C_22  and  C_23
REMARK                            x       y       z     vdW  Elec       q    Type
REMARK                         _______ _______ _______ _____ _____    ______ ____
ROOT
ATOM      1  C   UNL     1      -7.265  19.437  66.267  0.00  0.00    +0.202 C 
ATOM      2  O   UNL     1      -7.249  19.319  65.008  0.00  0.00    -0.286 OA
ENDROOT
BRANCH   1   3
ATOM      3  C   UNL     1      -8.544  19.226  66.923  0.00  0.00    +0.061 A 
ATOM      4  C   UNL     1      -8.928  17.996  67.448  0.00  0.00    +0.040 A 
ATOM      5  C   UNL     1     -10.101  18.285  68.136  0.00  0.00    +0.162 A 
ATOM      6  N   UNL     1     -10.670  17.248  68.796  0.00  0.00    -0.225 NA
ATOM      7  C   UNL     1     -10.399  15.959  68.479  0.00  0.00    +0.101 A 
ATOM      8  C   UNL     1      -9.500  15.634  67.469  0.00  0.00    +0.019 A 
ATOM      9  N   UNL     1     -10.541  19.498  67.722  0.00  0.00    -0.225 NA
ATOM     10  C   UNL     1      -8.655  16.677  67.108  0.00  0.00    +0.005 A 
ATOM     11  C   UNL     1      -9.657  20.055  66.877  0.00  0.00    +0.104 A 
BRANCH   8  12
ATOM     12  C   UNL     1      -9.806  14.532  66.547  0.00  0.00    +0.002 A 
ATOM     13  C   UNL     1      -9.466  13.227  66.811  0.00  0.00    +0.001 A 
ATOM     14  C   UNL     1      -9.687  12.255  65.843  0.00  0.00    +0.011 A 
ATOM     15  C   UNL     1     -10.516  12.521  64.760  0.00  0.00    +0.058 A 
ATOM     16 CL   UNL     1     -10.597  11.335  63.463  0.00  0.00    -0.082 Cl
ATOM     17  C   UNL     1     -10.996  13.810  64.561  0.00  0.00    +0.011 A 
ATOM     18  C   UNL     1     -10.468  14.801  65.358  0.00  0.00    +0.001 A 
ENDBRANCH   8  12
ENDBRANCH   1   3
BRANCH   1  22
ATOM     19  C   UNL     1      -4.243  20.269  68.357  0.00  0.00    +0.118 A 
ATOM     20  C   UNL     1      -5.471  20.358  67.733  0.00  0.00    +0.162 A 
ATOM     21  F   UNL     1      -6.373  21.204  68.311  0.00  0.00    -0.203 F 
ATOM     22  C   UNL     1      -5.980  19.330  66.950  0.00  0.00    +0.095 A 
ATOM     23  C   UNL     1      -5.134  18.257  66.742  0.00  0.00    +0.145 A 
ATOM     24  F   UNL     1      -5.588  17.156  66.074  0.00  0.00    -0.204 F 
ATOM     25  C   UNL     1      -3.815  18.258  67.161  0.00  0.00    +0.031 A 
ATOM     26  C   UNL     1      -3.371  19.262  68.001  0.00  0.00    +0.023 A 
BRANCH  19  27
ATOM     27  N   UNL     1      -3.908  21.141  69.436  0.00  0.00    -0.098 NA
BRANCH  27  28
ATOM     28  S   UNL     1      -4.129  20.651  71.067  0.00  0.00    +0.073 S 
ATOM     29  O   UNL     1      -2.879  19.969  71.509  0.00  0.00    -0.153 OA
ATOM     30  O   UNL     1      -4.408  21.896  71.871  0.00  0.00    -0.153 OA
BRANCH  28  31
ATOM     31  C   UNL     1      -5.548  19.592  71.131  0.00  0.00    +0.174 C 
BRANCH  31  33
ATOM     32  C   UNL     1      -5.936  17.376  70.093  0.00  0.00    +0.002 C 
ATOM     33  C   UNL     1      -5.147  18.123  71.146  0.00  0.00    +0.027 C 
ENDBRANCH  31  33
ENDBRANCH  28  31
ENDBRANCH  27  28
ENDBRANCH  19  27
ENDBRANCH   1  22
TORSDOF 7
ENDMDL
