MODEL 1
REMARK VINA RESULT:      -5.9      0.000      0.000
REMARK  Name = 
REMARK  5 active torsions:
REMARK  status: ('A' for Active; 'I' for Inactive)
REMARK    1  A    between atoms: N_2  and  C_4
REMARK    2  A    between atoms: C_4  and  C_5
REMARK    3  A    between atoms: C_5  and  C_6
REMARK    4  A    between atoms: C_6  and  C_8
REMARK    5  A    between atoms: C_6  and  C_14
REMARK                            x       y       z     vdW  Elec       q    Type
REMARK                         _______ _______ _______ _____ _____    ______ ____
ROOT
ATOM      1  C   UNL     1     -10.556  15.691  68.421  0.00  0.00    +0.166 C 
ATOM      2  O   UNL     1      -9.601  15.253  69.327  0.00  0.00    -0.217 OA
ENDROOT
BRANCH   1   3
ATOM      3  C   UNL     1     -10.714  14.720  67.315  0.00  0.00    +0.020 A 
ATOM      4  C   UNL     1      -9.639  13.969  66.863  0.00  0.00    +0.056 A 
ATOM      5 CL   UNL     1      -8.051  14.663  67.065  0.00  0.00    -0.082 Cl
ATOM      6  C   UNL     1      -9.798  12.926  65.964  0.00  0.00    +0.011 A 
ATOM      7  C   UNL     1     -11.098  12.539  65.682  0.00  0.00    +0.001 A 
ATOM      8  C   UNL     1     -12.161  13.389  65.958  0.00  0.00    -0.000 A 
ATOM      9  C   UNL     1     -11.986  14.279  67.006  0.00  0.00    -0.001 A 
ENDBRANCH   1   3
BRANCH   1  10
ATOM     10  C   UNL     1     -10.189  17.015  67.829  0.00  0.00    +0.009 A 
ATOM     11  C   UNL     1      -9.856  18.016  68.726  0.00  0.00    -0.002 A 
ATOM     12  C   UNL     1      -9.937  19.338  68.306  0.00  0.00    -0.000 A 
ATOM     13  C   UNL     1     -10.408  19.605  67.046  0.00  0.00    -0.000 A 
ATOM     14  C   UNL     1     -10.392  18.609  66.079  0.00  0.00    -0.000 A 
ATOM     15  C   UNL     1     -10.527  17.306  66.524  0.00  0.00    -0.002 A 
ENDBRANCH   1  10
BRANCH   1  16
ATOM     16  C   UNL     1     -11.892  15.898  69.102  0.00  0.00    +0.056 C 
BRANCH  16  17
ATOM     17  C   UNL     1     -11.888  15.199  70.433  0.00  0.00    +0.075 C 
BRANCH  17  19
ATOM     18  C   UNL     1     -13.948  15.136  71.464  0.00  0.00    +0.090 C 
ATOM     19  N   UNL     1     -12.800  15.906  71.305  0.00  0.00    -0.270 NA
ATOM     20  C   UNL     1     -12.085  16.144  72.548  0.00  0.00    +0.090 C 
ENDBRANCH  17  19
ENDBRANCH  16  17
ENDBRANCH   1  16
TORSDOF 5
ENDMDL
MODEL 2
REMARK VINA RESULT:      -5.8      2.282      4.745
REMARK  Name = 
REMARK  5 active torsions:
REMARK  status: ('A' for Active; 'I' for Inactive)
REMARK    1  A    between atoms: N_2  and  C_4
REMARK    2  A    between atoms: C_4  and  C_5
REMARK    3  A    between atoms: C_5  and  C_6
REMARK    4  A    between atoms: C_6  and  C_8
REMARK    5  A    between atoms: C_6  and  C_14
REMARK                            x       y       z     vdW  Elec       q    Type
REMARK                         _______ _______ _______ _____ _____    ______ ____
ROOT
ATOM      1  C   UNL     1     -11.733  15.035  69.589  0.00  0.00    +0.166 C 
ATOM      2  O   UNL     1     -12.393  15.948  68.778  0.00  0.00    -0.217 OA
ENDROOT
BRANCH   1   3
ATOM      3  C   UNL     1     -11.830  13.670  69.027  0.00  0.00    +0.020 A 
ATOM      4  C   UNL     1     -11.517  13.417  67.699  0.00  0.00    +0.056 A 
ATOM      5 CL   UNL     1     -11.726  14.735  66.576  0.00  0.00    -0.082 Cl
ATOM      6  C   UNL     1     -11.419  12.128  67.201  0.00  0.00    +0.011 A 
ATOM      7  C   UNL     1     -11.459  11.096  68.125  0.00  0.00    +0.001 A 
ATOM      8  C   UNL     1     -11.965  11.313  69.400  0.00  0.00    -0.000 A 
ATOM      9  C   UNL     1     -11.848  12.601  69.902  0.00  0.00    -0.001 A 
ENDBRANCH   1   3
BRANCH   1  10
ATOM     10  C   UNL     1     -12.305  15.013  70.971  0.00  0.00    +0.009 A 
ATOM     11  C   UNL     1     -13.680  15.140  71.068  0.00  0.00    -0.002 A 
ATOM     12  C   UNL     1     -14.225  15.563  72.274  0.00  0.00    -0.000 A 
ATOM     13  C   UNL     1     -13.381  15.906  73.299  0.00  0.00    -0.000 A 
ATOM     14  C   UNL     1     -12.072  15.441  73.297  0.00  0.00    -0.000 A 
ATOM     15  C   UNL     1     -11.487  15.231  72.060  0.00  0.00    -0.002 A 
ENDBRANCH   1  10
BRANCH   1  16
ATOM     16  C   UNL     1     -10.276  15.410  69.750  0.00  0.00    +0.056 C 
BRANCH  16  17
ATOM     17  C   UNL     1     -10.023  16.735  69.085  0.00  0.00    +0.075 C 
BRANCH  17  19
ATOM     18  C   UNL     1      -9.291  17.400  67.004  0.00  0.00    +0.090 C 
ATOM     19  N   UNL     1      -9.026  16.531  68.058  0.00  0.00    -0.270 NA
ATOM     20  C   UNL     1      -7.734  16.756  68.684  0.00  0.00    +0.090 C 
ENDBRANCH  17  19
ENDBRANCH  16  17
ENDBRANCH   1  16
TORSDOF 5
ENDMDL
MODEL 3
REMARK VINA RESULT:      -5.6      2.499      5.458
REMARK  Name = 
REMARK  5 active torsions:
REMARK  status: ('A' for Active; 'I' for Inactive)
REMARK    1  A    between atoms: N_2  and  C_4
REMARK    2  A    between atoms: C_4  and  C_5
REMARK    3  A    between atoms: C_5  and  C_6
REMARK    4  A    between atoms: C_6  and  C_8
REMARK    5  A    between atoms: C_6  and  C_14
REMARK                            x       y       z     vdW  Elec       q    Type
REMARK                         _______ _______ _______ _____ _____    ______ ____
ROOT
ATOM      1  C   UNL     1     -10.370  13.847  67.024  0.00  0.00    +0.166 C 
ATOM      2  O   UNL     1      -9.116  13.356  67.362  0.00  0.00    -0.217 OA
ENDROOT
BRANCH   1   3
ATOM      3  C   UNL     1     -11.252  13.892  68.211  0.00  0.00    +0.020 A 
ATOM      4  C   UNL     1     -11.392  12.790  69.042  0.00  0.00    +0.056 A 
ATOM      5 CL   UNL     1     -11.142  11.222  68.321  0.00  0.00    -0.082 Cl
ATOM      6  C   UNL     1     -12.059  12.865  70.254  0.00  0.00    +0.011 A 
ATOM      7  C   UNL     1     -12.416  14.130  70.693  0.00  0.00    +0.001 A 
ATOM      8  C   UNL     1     -12.467  15.195  69.803  0.00  0.00    -0.000 A 
ATOM      9  C   UNL     1     -11.620  15.128  68.708  0.00  0.00    -0.001 A 
ENDBRANCH   1   3
BRANCH   1  10
ATOM     10  C   UNL     1     -11.031  13.000  65.984  0.00  0.00    +0.009 A 
ATOM     11  C   UNL     1     -10.191  12.238  65.189  0.00  0.00    -0.002 A 
ATOM     12  C   UNL     1     -10.663  11.790  63.961  0.00  0.00    -0.000 A 
ATOM     13  C   UNL     1     -11.913  12.176  63.552  0.00  0.00    -0.000 A 
ATOM     14  C   UNL     1     -12.838  12.622  64.487  0.00  0.00    -0.000 A 
ATOM     15  C   UNL     1     -12.333  13.258  65.608  0.00  0.00    -0.002 A 
ENDBRANCH   1  10
BRANCH   1  16
ATOM     16  C   UNL     1     -10.264  15.233  66.424  0.00  0.00    +0.056 C 
BRANCH  16  17
ATOM     17  C   UNL     1      -8.815  15.582  66.224  0.00  0.00    +0.075 C 
BRANCH  17  19
ATOM     18  C   UNL     1      -9.780  17.658  66.480  0.00  0.00    +0.090 C 
ATOM     19  N   UNL     1      -8.744  16.977  65.850  0.00  0.00    -0.270 NA
ATOM     20  C   UNL     1      -7.423  17.443  66.237  0.00  0.00    +0.090 C 
ENDBRANCH  17  19
ENDBRANCH  16  17
ENDBRANCH   1  16
TORSDOF 5
ENDMDL
MODEL 4
REMARK VINA RESULT:      -5.6      2.389      5.409
REMARK  Name = 
REMARK  5 active torsions:
REMARK  status: ('A' for Active; 'I' for Inactive)
REMARK    1  A    between atoms: N_2  and  C_4
REMARK    2  A    between atoms: C_4  and  C_5
REMARK    3  A    between atoms: C_5  and  C_6
REMARK    4  A    between atoms: C_6  and  C_8
REMARK    5  A    between atoms: C_6  and  C_14
REMARK                            x       y       z     vdW  Elec       q    Type
REMARK                         _______ _______ _______ _____ _____    ______ ____
ROOT
ATOM      1  C   UNL     1      -9.789  15.997  66.621  0.00  0.00    +0.166 C 
ATOM      2  O   UNL     1      -8.547  15.519  66.226  0.00  0.00    -0.217 OA
ENDROOT
BRANCH   1   3
ATOM      3  C   UNL     1      -9.710  17.433  66.972  0.00  0.00    +0.020 A 
ATOM      4  C   UNL     1      -8.662  17.927  67.734  0.00  0.00    +0.056 A 
ATOM      5 CL   UNL     1      -7.898  16.816  68.840  0.00  0.00    -0.082 Cl
ATOM      6  C   UNL     1      -8.465  19.287  67.916  0.00  0.00    +0.011 A 
ATOM      7  C   UNL     1      -9.245  20.139  67.150  0.00  0.00    +0.001 A 
ATOM      8  C   UNL     1     -10.410  19.678  66.551  0.00  0.00    -0.000 A 
ATOM      9  C   UNL     1     -10.447  18.331  66.225  0.00  0.00    -0.001 A 
ENDBRANCH   1   3
BRANCH   1  10
ATOM     10  C   UNL     1     -10.312  15.255  67.809  0.00  0.00    +0.009 A 
ATOM     11  C   UNL     1      -9.865  13.954  67.965  0.00  0.00    -0.002 A 
ATOM     12  C   UNL     1     -10.612  13.083  68.750  0.00  0.00    -0.000 A 
ATOM     13  C   UNL     1     -11.797  13.523  69.282  0.00  0.00    -0.000 A 
ATOM     14  C   UNL     1     -12.033  14.886  69.407  0.00  0.00    -0.000 A 
ATOM     15  C   UNL     1     -11.434  15.710  68.469  0.00  0.00    -0.002 A 
ENDBRANCH   1  10
BRANCH   1  16
ATOM     16  C   UNL     1     -10.816  15.803  65.527  0.00  0.00    +0.056 C 
BRANCH  16  17
ATOM     17  C   UNL     1     -10.595  14.472  64.862  0.00  0.00    +0.075 C 
BRANCH  17  19
ATOM     18  C   UNL     1     -11.668  12.836  63.646  0.00  0.00    +0.090 C 
ATOM     19  N   UNL     1     -11.872  14.004  64.373  0.00  0.00    -0.270 NA
ATOM     20  C   UNL     1     -12.721  13.822  65.538  0.00  0.00    +0.090 C 
ENDBRANCH  17  19
ENDBRANCH  16  17
ENDBRANCH   1  16
TORSDOF 5
ENDMDL
MODEL 5
REMARK VINA RESULT:      -5.5      3.079      5.242
REMARK  Name = 
REMARK  5 active torsions:
REMARK  status: ('A' for Active; 'I' for Inactive)
REMARK    1  A    between atoms: N_2  and  C_4
REMARK    2  A    between atoms: C_4  and  C_5
REMARK    3  A    between atoms: C_5  and  C_6
REMARK    4  A    between atoms: C_6  and  C_8
REMARK    5  A    between atoms: C_6  and  C_14
REMARK                            x       y       z     vdW  Elec       q    Type
REMARK                         _______ _______ _______ _____ _____    ______ ____
ROOT
ATOM      1  C   UNL     1     -10.730  13.874  66.799  0.00  0.00    +0.166 C 
ATOM      2  O   UNL     1     -11.737  14.671  67.324  0.00  0.00    -0.217 OA
ENDROOT
BRANCH   1   3
ATOM      3  C   UNL     1      -9.464  14.632  66.692  0.00  0.00    +0.020 A 
ATOM      4  C   UNL     1      -9.443  15.925  66.191  0.00  0.00    +0.056 A 
ATOM      5 CL   UNL     1     -10.701  16.353  65.061  0.00  0.00    -0.082 Cl
ATOM      6  C   UNL     1      -8.310  16.719  66.254  0.00  0.00    +0.011 A 
ATOM      7  C   UNL     1      -7.252  16.238  67.010  0.00  0.00    +0.001 A 
ATOM      8  C   UNL     1      -7.178  14.891  67.340  0.00  0.00    -0.000 A 
ATOM      9  C   UNL     1      -8.383  14.213  67.443  0.00  0.00    -0.001 A 
ENDBRANCH   1   3
BRANCH   1  10
ATOM     10  C   UNL     1     -11.085  13.365  65.438  0.00  0.00    +0.009 A 
ATOM     11  C   UNL     1     -12.436  13.231  65.166  0.00  0.00    -0.002 A 
ATOM     12  C   UNL     1     -12.826  12.379  64.140  0.00  0.00    -0.000 A 
ATOM     13  C   UNL     1     -11.868  11.651  63.482  0.00  0.00    -0.000 A 
ATOM     14  C   UNL     1     -10.541  12.059  63.527  0.00  0.00    -0.000 A 
ATOM     15  C   UNL     1     -10.133  12.727  64.670  0.00  0.00    -0.002 A 
ENDBRANCH   1  10
BRANCH   1  16
ATOM     16  C   UNL     1     -10.510  12.646  67.656  0.00  0.00    +0.056 C 
BRANCH  16  17
ATOM     17  C   UNL     1     -11.664  12.486  68.607  0.00  0.00    +0.075 C 
BRANCH  17  19
ATOM     18  C   UNL     1     -11.175  10.390  67.785  0.00  0.00    +0.090 C 
ATOM     19  N   UNL     1     -12.075  11.100  68.573  0.00  0.00    -0.270 NA
ATOM     20  C   UNL     1     -12.120  10.648  69.953  0.00  0.00    +0.090 C 
ENDBRANCH  17  19
ENDBRANCH  16  17
ENDBRANCH   1  16
TORSDOF 5
ENDMDL
MODEL 6
REMARK VINA RESULT:      -5.5      2.499      3.747
REMARK  Name = 
REMARK  5 active torsions:
REMARK  status: ('A' for Active; 'I' for Inactive)
REMARK    1  A    between atoms: N_2  and  C_4
REMARK    2  A    between atoms: C_4  and  C_5
REMARK    3  A    between atoms: C_5  and  C_6
REMARK    4  A    between atoms: C_6  and  C_8
REMARK    5  A    between atoms: C_6  and  C_14
REMARK                            x       y       z     vdW  Elec       q    Type
REMARK                         _______ _______ _______ _____ _____    ______ ____
ROOT
ATOM      1  C   UNL     1     -10.886  13.644  68.380  0.00  0.00    +0.166 C 
ATOM      2  O   UNL     1      -9.729  14.309  68.762  0.00  0.00    -0.217 OA
ENDROOT
BRANCH   1   3
ATOM      3  C   UNL     1     -10.822  12.218  68.769  0.00  0.00    +0.020 A 
ATOM      4  C   UNL     1      -9.666  11.475  68.581  0.00  0.00    +0.056 A 
ATOM      5 CL   UNL     1      -8.610  11.973  67.285  0.00  0.00    -0.082 Cl
ATOM      6  C   UNL     1      -9.520  10.200  69.104  0.00  0.00    +0.011 A 
ATOM      7  C   UNL     1     -10.500   9.770  69.985  0.00  0.00    +0.001 A 
ATOM      8  C   UNL     1     -11.736  10.401  70.023  0.00  0.00    -0.000 A 
ATOM      9  C   UNL     1     -11.760  11.740  69.664  0.00  0.00    -0.001 A 
ENDBRANCH   1   3
BRANCH   1  10
ATOM     10  C   UNL     1     -11.100  13.716  66.902  0.00  0.00    +0.009 A 
ATOM     11  C   UNL     1     -10.589  14.831  66.262  0.00  0.00    -0.002 A 
ATOM     12  C   UNL     1     -11.109  15.184  65.022  0.00  0.00    -0.000 A 
ATOM     13  C   UNL     1     -12.154  14.457  64.512  0.00  0.00    -0.000 A 
ATOM     14  C   UNL     1     -12.398  13.175  64.986  0.00  0.00    -0.000 A 
ATOM     15  C   UNL     1     -12.056  12.922  66.303  0.00  0.00    -0.002 A 
ENDBRANCH   1  10
BRANCH   1  16
ATOM     16  C   UNL     1     -12.107  14.281  69.007  0.00  0.00    +0.056 C 
BRANCH  16  17
ATOM     17  C   UNL     1     -11.678  15.397  69.919  0.00  0.00    +0.075 C 
BRANCH  17  19
ATOM     18  C   UNL     1     -11.889  16.164  72.081  0.00  0.00    +0.090 C 
ATOM     19  N   UNL     1     -12.110  15.064  71.258  0.00  0.00    -0.270 NA
ATOM     20  C   UNL     1     -13.509  14.685  71.160  0.00  0.00    +0.090 C 
ENDBRANCH  17  19
ENDBRANCH  16  17
ENDBRANCH   1  16
TORSDOF 5
ENDMDL
MODEL 7
REMARK VINA RESULT:      -5.5      3.069      5.564
REMARK  Name = 
REMARK  5 active torsions:
REMARK  status: ('A' for Active; 'I' for Inactive)
REMARK    1  A    between atoms: N_2  and  C_4
REMARK    2  A    between atoms: C_4  and  C_5
REMARK    3  A    between atoms: C_5  and  C_6
REMARK    4  A    between atoms: C_6  and  C_8
REMARK    5  A    between atoms: C_6  and  C_14
REMARK                            x       y       z     vdW  Elec       q    Type
REMARK                         _______ _______ _______ _____ _____    ______ ____
ROOT
ATOM      1  C   UNL     1     -10.258  12.751  67.349  0.00  0.00    +0.166 C 
ATOM      2  O   UNL     1      -8.990  12.198  67.462  0.00  0.00    -0.217 OA
ENDROOT
BRANCH   1   3
ATOM      3  C   UNL     1     -11.128  12.297  68.458  0.00  0.00    +0.020 A 
ATOM      4  C   UNL     1     -11.201  10.957  68.808  0.00  0.00    +0.056 A 
ATOM      5 CL   UNL     1     -10.878   9.794  67.550  0.00  0.00    -0.082 Cl
ATOM      6  C   UNL     1     -11.857  10.533  69.953  0.00  0.00    +0.011 A 
ATOM      7  C   UNL     1     -12.274  11.517  70.835  0.00  0.00    +0.001 A 
ATOM      8  C   UNL     1     -12.391  12.835  70.413  0.00  0.00    -0.000 A 
ATOM      9  C   UNL     1     -11.554  13.232  69.382  0.00  0.00    -0.001 A 
ENDBRANCH   1   3
BRANCH   1  10
ATOM     10  C   UNL     1     -10.911  12.371  66.059  0.00  0.00    +0.009 A 
ATOM     11  C   UNL     1     -10.070  11.927  65.053  0.00  0.00    -0.002 A 
ATOM     12  C   UNL     1     -10.518  11.981  63.739  0.00  0.00    -0.000 A 
ATOM     13  C   UNL     1     -11.746  12.535  63.480  0.00  0.00    -0.000 A 
ATOM     14  C   UNL     1     -12.685  12.636  64.498  0.00  0.00    -0.000 A 
ATOM     15  C   UNL     1     -12.195  12.795  65.783  0.00  0.00    -0.002 A 
ENDBRANCH   1  10
BRANCH   1  16
ATOM     16  C   UNL     1     -10.191  14.263  67.351  0.00  0.00    +0.056 C 
BRANCH  16  17
ATOM     17  C   UNL     1      -8.797  14.702  66.995  0.00  0.00    +0.075 C 
BRANCH  17  19
ATOM     18  C   UNL     1     -10.231  16.075  65.826  0.00  0.00    +0.090 C 
ATOM     19  N   UNL     1      -8.900  15.689  65.944  0.00  0.00    -0.270 NA
ATOM     20  C   UNL     1      -8.010  16.778  66.309  0.00  0.00    +0.090 C 
ENDBRANCH  17  19
ENDBRANCH  16  17
ENDBRANCH   1  16
TORSDOF 5
ENDMDL
MODEL 8
REMARK VINA RESULT:      -5.4      2.755      5.743
REMARK  Name = 
REMARK  5 active torsions:
REMARK  status: ('A' for Active; 'I' for Inactive)
REMARK    1  A    between atoms: N_2  and  C_4
REMARK    2  A    between atoms: C_4  and  C_5
REMARK    3  A    between atoms: C_5  and  C_6
REMARK    4  A    between atoms: C_6  and  C_8
REMARK    5  A    between atoms: C_6  and  C_14
REMARK                            x       y       z     vdW  Elec       q    Type
REMARK                         _______ _______ _______ _____ _____    ______ ____
ROOT
ATOM      1  C   UNL     1     -10.610  13.695  67.533  0.00  0.00    +0.166 C 
ATOM      2  O   UNL     1      -9.671  13.049  66.740  0.00  0.00    -0.217 OA
ENDROOT
BRANCH   1   3
ATOM      3  C   UNL     1     -10.114  15.024  67.954  0.00  0.00    +0.020 A 
ATOM      4  C   UNL     1      -8.766  15.242  68.198  0.00  0.00    +0.056 A 
ATOM      5 CL   UNL     1      -7.825  13.866  68.711  0.00  0.00    -0.082 Cl
ATOM      6  C   UNL     1      -8.254  16.512  68.408  0.00  0.00    +0.011 A 
ATOM      7  C   UNL     1      -9.110  17.577  68.176  0.00  0.00    +0.001 A 
ATOM      8  C   UNL     1     -10.484  17.378  68.133  0.00  0.00    -0.000 A 
ATOM      9  C   UNL     1     -10.915  16.126  67.724  0.00  0.00    -0.001 A 
ENDBRANCH   1   3
BRANCH   1  10
ATOM     10  C   UNL     1     -10.927  12.906  68.763  0.00  0.00    +0.009 A 
ATOM     11  C   UNL     1     -10.524  11.581  68.764  0.00  0.00    -0.002 A 
ATOM     12  C   UNL     1     -11.146  10.696  69.635  0.00  0.00    -0.000 A 
ATOM     13  C   UNL     1     -12.182  11.150  70.411  0.00  0.00    -0.000 A 
ATOM     14  C   UNL     1     -12.322  12.511  70.647  0.00  0.00    -0.000 A 
ATOM     15  C   UNL     1     -11.877  13.365  69.652  0.00  0.00    -0.002 A 
ENDBRANCH   1  10
BRANCH   1  16
ATOM     16  C   UNL     1     -11.921  13.858  66.795  0.00  0.00    +0.056 C 
BRANCH  16  17
ATOM     17  C   UNL     1     -12.057  12.767  65.769  0.00  0.00    +0.075 C 
BRANCH  17  19
ATOM     18  C   UNL     1     -12.217  14.670  64.480  0.00  0.00    +0.090 C 
ATOM     19  N   UNL     1     -12.640  13.348  64.581  0.00  0.00    -0.270 NA
ATOM     20  C   UNL     1     -12.221  12.518  63.465  0.00  0.00    +0.090 C 
ENDBRANCH  17  19
ENDBRANCH  16  17
ENDBRANCH   1  16
TORSDOF 5
ENDMDL
MODEL 9
REMARK VINA RESULT:      -5.4      2.070      2.997
REMARK  Name = 
REMARK  5 active torsions:
REMARK  status: ('A' for Active; 'I' for Inactive)
REMARK    1  A    between atoms: N_2  and  C_4
REMARK    2  A    between atoms: C_4  and  C_5
REMARK    3  A    between atoms: C_5  and  C_6
REMARK    4  A    between atoms: C_6  and  C_8
REMARK    5  A    between atoms: C_6  and  C_14
REMARK                            x       y       z     vdW  Elec       q    Type
REMARK                         _______ _______ _______ _____ _____    ______ ____
ROOT
ATOM      1  C   UNL     1     -10.373  13.777  66.894  0.00  0.00    +0.166 C 
ATOM      2  O   UNL     1     -10.198  12.790  67.853  0.00  0.00    -0.217 OA
ENDROOT
BRANCH   1   3
ATOM      3  C   UNL     1     -10.749  13.182  65.592  0.00  0.00    +0.020 A 
ATOM      4  C   UNL     1     -10.338  11.904  65.244  0.00  0.00    +0.056 A 
ATOM      5 CL   UNL     1      -8.855  11.329  65.960  0.00  0.00    -0.082 Cl
ATOM      6  C   UNL     1     -10.828  11.256  64.121  0.00  0.00    +0.011 A 
ATOM      7  C   UNL     1     -11.888  11.861  63.464  0.00  0.00    +0.001 A 
ATOM      8  C   UNL     1     -12.169  13.205  63.671  0.00  0.00    -0.000 A 
ATOM      9  C   UNL     1     -11.815  13.729  64.905  0.00  0.00    -0.001 A 
ENDBRANCH   1   3
BRANCH   1  10
ATOM     10  C   UNL     1      -9.127  14.581  66.697  0.00  0.00    +0.009 A 
ATOM     11  C   UNL     1      -8.026  14.198  67.444  0.00  0.00    -0.002 A 
ATOM     12  C   UNL     1      -7.009  15.122  67.651  0.00  0.00    -0.000 A 
ATOM     13  C   UNL     1      -7.165  16.397  67.170  0.00  0.00    -0.000 A 
ATOM     14  C   UNL     1      -8.078  16.643  66.153  0.00  0.00    -0.000 A 
ATOM     15  C   UNL     1      -9.195  15.826  66.108  0.00  0.00    -0.002 A 
ENDBRANCH   1  10
BRANCH   1  16
ATOM     16  C   UNL     1     -11.439  14.763  67.322  0.00  0.00    +0.056 C 
BRANCH  16  17
ATOM     17  C   UNL     1     -11.750  14.563  68.779  0.00  0.00    +0.075 C 
BRANCH  17  19
ATOM     18  C   UNL     1     -12.563  15.680  70.622  0.00  0.00    +0.090 C 
ATOM     19  N   UNL     1     -12.015  15.861  69.357  0.00  0.00    -0.270 NA
ATOM     20  C   UNL     1     -10.750  16.575  69.369  0.00  0.00    +0.090 C 
ENDBRANCH  17  19
ENDBRANCH  16  17
ENDBRANCH   1  16
TORSDOF 5
ENDMDL
