MODEL 1
REMARK VINA RESULT:      -5.9      0.000      0.000
REMARK  Name = 
REMARK  12 active torsions:
REMARK  status: ('A' for Active; 'I' for Inactive)
REMARK    1  A    between atoms: N_4  and  C_5
REMARK    2  A    between atoms: N_4  and  C_10
REMARK    3  A    between atoms: C_5  and  C_6
REMARK    4  A    between atoms: C_6  and  C_8
REMARK    5  A    between atoms: C_13  and  C_14
REMARK    6  A    between atoms: N_16  and  C_17
REMARK    7  A    between atoms: C_17  and  C_18
REMARK    8  A    between atoms: C_18  and  C_20
REMARK    9  A    between atoms: C_24  and  C_25
REMARK   10  A    between atoms: N_27  and  C_28
REMARK   11  A    between atoms: C_28  and  C_29
REMARK   12  A    between atoms: C_29  and  C_31
REMARK                            x       y       z     vdW  Elec       q    Type
REMARK                         _______ _______ _______ _____ _____    ______ ____
ROOT
ATOM      1  C   UNL     1      -9.070  15.887  67.494  0.00  0.00    +0.065 A 
ATOM      2  C   UNL     1      -8.256  16.973  67.786  0.00  0.00    +0.049 A 
ATOM      3  I   UNL     1      -8.686  18.704  66.659  0.00  0.00    -0.041 I 
ATOM      4  C   UNL     1      -7.223  16.913  68.701  0.00  0.00    +0.067 A 
ATOM      5  C   UNL     1      -6.762  15.631  68.983  0.00  0.00    +0.040 A 
ATOM      6  I   UNL     1      -5.150  15.439  70.288  0.00  0.00    -0.042 I 
ATOM      7  C   UNL     1      -7.294  14.491  68.389  0.00  0.00    +0.067 A 
ATOM      8  C   UNL     1      -8.528  14.653  67.789  0.00  0.00    +0.049 A 
ATOM      9  I   UNL     1      -9.619  12.937  67.328  0.00  0.00    -0.041 I 
ENDROOT
BRANCH   1  12
ATOM     10  C   UNL     1     -11.150  16.164  68.798  0.00  0.00    +0.095 C 
ATOM     11  C   UNL     1     -11.080  16.135  68.641  0.00  0.00    +0.230 C 
ATOM     12  N   UNL     1     -10.489  16.090  67.397  0.00  0.00    -0.255 N 
ATOM     13  O   UNL     1     -10.773  16.493  69.688  0.00  0.00    -0.275 OA
BRANCH  12  14
ATOM     14  C   UNL     1     -10.845  16.740  66.192  0.00  0.00    +0.134 C 
BRANCH  14  15
ATOM     15  C   UNL     1     -10.715  15.645  64.965  0.00  0.00    +0.205 C 
ATOM     16  O   UNL     1     -11.363  16.582  63.955  0.00  0.00    -0.218 OA
BRANCH  15  17
ATOM     17  C   UNL     1     -12.137  14.873  65.318  0.00  0.00    +0.217 C 
ATOM     18  O   UNL     1     -12.566  14.585  64.011  0.00  0.00    -0.218 OA
ENDBRANCH  15  17
ENDBRANCH  14  15
ENDBRANCH  12  14
ENDBRANCH   1  12
BRANCH   4  19
ATOM     19  C   UNL     1      -6.260  18.023  68.704  0.00  0.00    +0.266 C 
ATOM     20  N   UNL     1      -6.094  18.920  69.800  0.00  0.00    -0.199 NA
ATOM     21  O   UNL     1      -5.248  17.932  67.944  0.00  0.00    -0.268 OA
BRANCH  20  22
ATOM     22  C   UNL     1      -4.747  19.291  70.221  0.00  0.00    +0.151 C 
BRANCH  22  23
ATOM     23  C   UNL     1      -4.957  20.008  71.694  0.00  0.00    +0.206 C 
ATOM     24  O   UNL     1      -6.319  20.572  71.322  0.00  0.00    -0.218 OA
BRANCH  23  25
ATOM     25  C   UNL     1      -4.190  21.386  71.206  0.00  0.00    +0.217 C 
ATOM     26  O   UNL     1      -4.393  22.214  72.323  0.00  0.00    -0.218 OA
ENDBRANCH  23  25
ENDBRANCH  22  23
ENDBRANCH  20  22
ENDBRANCH   4  19
BRANCH   7  27
ATOM     27  C   UNL     1      -6.474  13.308  68.167  0.00  0.00    +0.266 C 
ATOM     28  N   UNL     1      -6.372  12.231  69.104  0.00  0.00    -0.199 NA
ATOM     29  O   UNL     1      -5.700  13.345  67.163  0.00  0.00    -0.268 OA
BRANCH  28  30
ATOM     30  C   UNL     1      -5.162  11.482  69.045  0.00  0.00    +0.151 C 
BRANCH  30  31
ATOM     31  C   UNL     1      -4.533  11.420  70.570  0.00  0.00    +0.206 C 
ATOM     32  O   UNL     1      -5.804  11.881  71.272  0.00  0.00    -0.218 OA
BRANCH  31  33
ATOM     33  C   UNL     1      -4.957   9.832  70.742  0.00  0.00    +0.217 C 
ATOM     34  O   UNL     1      -5.937   9.881  71.732  0.00  0.00    -0.218 OA
ENDBRANCH  31  33
ENDBRANCH  30  31
ENDBRANCH  28  30
ENDBRANCH   7  27
TORSDOF 12
ENDMDL
MODEL 2
REMARK VINA RESULT:      -5.8      2.291      6.455
REMARK  Name = 
REMARK  12 active torsions:
REMARK  status: ('A' for Active; 'I' for Inactive)
REMARK    1  A    between atoms: N_4  and  C_5
REMARK    2  A    between atoms: N_4  and  C_10
REMARK    3  A    between atoms: C_5  and  C_6
REMARK    4  A    between atoms: C_6  and  C_8
REMARK    5  A    between atoms: C_13  and  C_14
REMARK    6  A    between atoms: N_16  and  C_17
REMARK    7  A    between atoms: C_17  and  C_18
REMARK    8  A    between atoms: C_18  and  C_20
REMARK    9  A    between atoms: C_24  and  C_25
REMARK   10  A    between atoms: N_27  and  C_28
REMARK   11  A    between atoms: C_28  and  C_29
REMARK   12  A    between atoms: C_29  and  C_31
REMARK                            x       y       z     vdW  Elec       q    Type
REMARK                         _______ _______ _______ _____ _____    ______ ____
ROOT
ATOM      1  C   UNL     1      -6.996  17.711  68.535  0.00  0.00    +0.065 A 
ATOM      2  C   UNL     1      -8.288  17.353  68.173  0.00  0.00    +0.049 A 
ATOM      3  I   UNL     1      -9.726  18.863  68.499  0.00  0.00    -0.041 I 
ATOM      4  C   UNL     1      -8.614  16.103  67.684  0.00  0.00    +0.067 A 
ATOM      5  C   UNL     1      -7.696  15.100  67.982  0.00  0.00    +0.040 A 
ATOM      6  I   UNL     1      -8.137  13.161  67.362  0.00  0.00    -0.042 I 
ATOM      7  C   UNL     1      -6.540  15.331  68.719  0.00  0.00    +0.067 A 
ATOM      8  C   UNL     1      -6.158  16.655  68.830  0.00  0.00    +0.049 A 
ATOM      9  I   UNL     1      -4.212  17.058  69.462  0.00  0.00    -0.041 I 
ENDROOT
BRANCH   1  12
ATOM     10  C   UNL     1      -6.368  19.966  69.326  0.00  0.00    +0.095 C 
ATOM     11  C   UNL     1      -6.401  19.864  69.187  0.00  0.00    +0.230 C 
ATOM     12  N   UNL     1      -6.489  18.991  68.126  0.00  0.00    -0.255 N 
ATOM     13  O   UNL     1      -6.186  19.776  70.312  0.00  0.00    -0.275 OA
BRANCH  12  14
ATOM     14  C   UNL     1      -5.700  18.892  66.955  0.00  0.00    +0.134 C 
BRANCH  14  15
ATOM     15  C   UNL     1      -6.557  19.549  65.707  0.00  0.00    +0.205 C 
ATOM     16  O   UNL     1      -6.845  18.189  65.086  0.00  0.00    -0.218 OA
BRANCH  15  17
ATOM     17  C   UNL     1      -5.228  19.819  64.756  0.00  0.00    +0.217 C 
ATOM     18  O   UNL     1      -5.679  19.218  63.567  0.00  0.00    -0.218 OA
ENDBRANCH  15  17
ENDBRANCH  14  15
ENDBRANCH  12  14
ENDBRANCH   1  12
BRANCH   4  19
ATOM     19  C   UNL     1     -10.040  15.756  67.620  0.00  0.00    +0.266 C 
ATOM     20  N   UNL     1     -10.759  15.603  66.397  0.00  0.00    -0.199 NA
ATOM     21  O   UNL     1     -10.545  15.136  68.605  0.00  0.00    -0.268 OA
BRANCH  20  22
ATOM     22  C   UNL     1     -11.677  14.479  66.245  0.00  0.00    +0.151 C 
BRANCH  22  23
ATOM     23  C   UNL     1     -11.443  13.961  64.695  0.00  0.00    +0.206 C 
ATOM     24  O   UNL     1     -12.562  14.831  64.144  0.00  0.00    -0.218 OA
BRANCH  23  25
ATOM     25  C   UNL     1     -12.462  12.679  64.899  0.00  0.00    +0.217 C 
ATOM     26  O   UNL     1     -12.863  12.443  63.572  0.00  0.00    -0.218 OA
ENDBRANCH  23  25
ENDBRANCH  22  23
ENDBRANCH  20  22
ENDBRANCH   4  19
BRANCH   7  27
ATOM     27  C   UNL     1      -5.955  14.284  69.545  0.00  0.00    +0.266 C 
ATOM     28  N   UNL     1      -6.237  14.128  70.939  0.00  0.00    -0.199 NA
ATOM     29  O   UNL     1      -5.030  13.601  69.009  0.00  0.00    -0.268 OA
BRANCH  28  30
ATOM     30  C   UNL     1      -5.215  13.495  71.703  0.00  0.00    +0.151 C 
BRANCH  30  31
ATOM     31  C   UNL     1      -4.932  14.427  73.036  0.00  0.00    +0.206 C 
ATOM     32  O   UNL     1      -6.139  13.928  73.822  0.00  0.00    -0.218 OA
BRANCH  31  33
ATOM     33  C   UNL     1      -3.958  13.273  73.707  0.00  0.00    +0.217 C 
ATOM     34  O   UNL     1      -4.777  12.146  73.714  0.00  0.00    -0.218 OA
ENDBRANCH  31  33
ENDBRANCH  30  31
ENDBRANCH  28  30
ENDBRANCH   7  27
TORSDOF 12
ENDMDL
MODEL 3
REMARK VINA RESULT:      -5.7      1.937      6.980
REMARK  Name = 
REMARK  12 active torsions:
REMARK  status: ('A' for Active; 'I' for Inactive)
REMARK    1  A    between atoms: N_4  and  C_5
REMARK    2  A    between atoms: N_4  and  C_10
REMARK    3  A    between atoms: C_5  and  C_6
REMARK    4  A    between atoms: C_6  and  C_8
REMARK    5  A    between atoms: C_13  and  C_14
REMARK    6  A    between atoms: N_16  and  C_17
REMARK    7  A    between atoms: C_17  and  C_18
REMARK    8  A    between atoms: C_18  and  C_20
REMARK    9  A    between atoms: C_24  and  C_25
REMARK   10  A    between atoms: N_27  and  C_28
REMARK   11  A    between atoms: C_28  and  C_29
REMARK   12  A    between atoms: C_29  and  C_31
REMARK                            x       y       z     vdW  Elec       q    Type
REMARK                         _______ _______ _______ _____ _____    ______ ____
ROOT
ATOM      1  C   UNL     1      -6.663  17.530  68.677  0.00  0.00    +0.065 A 
ATOM      2  C   UNL     1      -7.981  17.255  68.336  0.00  0.00    +0.049 A 
ATOM      3  I   UNL     1      -9.311  18.861  68.660  0.00  0.00    -0.041 I 
ATOM      4  C   UNL     1      -8.395  16.023  67.868  0.00  0.00    +0.067 A 
ATOM      5  C   UNL     1      -7.542  14.965  68.167  0.00  0.00    +0.040 A 
ATOM      6  I   UNL     1      -8.119  13.052  67.578  0.00  0.00    -0.042 I 
ATOM      7  C   UNL     1      -6.363  15.128  68.887  0.00  0.00    +0.067 A 
ATOM      8  C   UNL     1      -5.893  16.424  68.976  0.00  0.00    +0.049 A 
ATOM      9  I   UNL     1      -3.917  16.705  69.578  0.00  0.00    -0.041 I 
ENDROOT
BRANCH   1  12
ATOM     10  C   UNL     1      -5.795  18.763  66.720  0.00  0.00    +0.095 C 
ATOM     11  C   UNL     1      -5.807  18.757  66.894  0.00  0.00    +0.230 C 
ATOM     12  N   UNL     1      -6.078  18.768  68.245  0.00  0.00    -0.255 N 
ATOM     13  O   UNL     1      -6.280  18.280  65.963  0.00  0.00    -0.275 OA
BRANCH  12  14
ATOM     14  C   UNL     1      -6.432  19.842  69.097  0.00  0.00    +0.134 C 
BRANCH  14  15
ATOM     15  C   UNL     1      -5.401  19.832  70.384  0.00  0.00    +0.205 C 
ATOM     16  O   UNL     1      -6.384  20.577  71.278  0.00  0.00    -0.218 OA
BRANCH  15  17
ATOM     17  C   UNL     1      -4.604  21.212  69.933  0.00  0.00    +0.217 C 
ATOM     18  O   UNL     1      -4.466  21.814  71.195  0.00  0.00    -0.218 OA
ENDBRANCH  15  17
ENDBRANCH  14  15
ENDBRANCH  12  14
ENDBRANCH   1  12
BRANCH   4  19
ATOM     19  C   UNL     1      -9.842  15.771  67.825  0.00  0.00    +0.266 C 
ATOM     20  N   UNL     1     -10.584  15.639  66.614  0.00  0.00    -0.199 NA
ATOM     21  O   UNL     1     -10.376  15.209  68.830  0.00  0.00    -0.268 OA
BRANCH  20  22
ATOM     22  C   UNL     1     -11.576  14.575  66.497  0.00  0.00    +0.151 C 
BRANCH  22  23
ATOM     23  C   UNL     1     -11.333  13.947  64.989  0.00  0.00    +0.206 C 
ATOM     24  O   UNL     1     -12.668  14.457  64.468  0.00  0.00    -0.218 OA
BRANCH  23  25
ATOM     25  C   UNL     1     -11.989  12.495  65.416  0.00  0.00    +0.217 C 
ATOM     26  O   UNL     1     -13.171  12.502  64.654  0.00  0.00    -0.218 OA
ENDBRANCH  23  25
ENDBRANCH  22  23
ENDBRANCH  20  22
ENDBRANCH   4  19
BRANCH   7  27
ATOM     27  C   UNL     1      -5.838  14.055  69.719  0.00  0.00    +0.266 C 
ATOM     28  N   UNL     1      -6.043  13.980  71.134  0.00  0.00    -0.199 NA
ATOM     29  O   UNL     1      -5.028  13.257  69.156  0.00  0.00    -0.268 OA
BRANCH  28  30
ATOM     30  C   UNL     1      -5.045  13.268  71.859  0.00  0.00    +0.151 C 
BRANCH  30  31
ATOM     31  C   UNL     1      -4.723  14.118  73.237  0.00  0.00    +0.206 C 
ATOM     32  O   UNL     1      -6.096  13.908  73.863  0.00  0.00    -0.218 OA
BRANCH  31  33
ATOM     33  C   UNL     1      -4.121  12.777  73.992  0.00  0.00    +0.217 C 
ATOM     34  O   UNL     1      -5.241  12.263  74.644  0.00  0.00    -0.218 OA
ENDBRANCH  31  33
ENDBRANCH  30  31
ENDBRANCH  28  30
ENDBRANCH   7  27
TORSDOF 12
ENDMDL
MODEL 4
REMARK VINA RESULT:      -5.7      1.435      1.932
REMARK  Name = 
REMARK  12 active torsions:
REMARK  status: ('A' for Active; 'I' for Inactive)
REMARK    1  A    between atoms: N_4  and  C_5
REMARK    2  A    between atoms: N_4  and  C_10
REMARK    3  A    between atoms: C_5  and  C_6
REMARK    4  A    between atoms: C_6  and  C_8
REMARK    5  A    between atoms: C_13  and  C_14
REMARK    6  A    between atoms: N_16  and  C_17
REMARK    7  A    between atoms: C_17  and  C_18
REMARK    8  A    between atoms: C_18  and  C_20
REMARK    9  A    between atoms: C_24  and  C_25
REMARK   10  A    between atoms: N_27  and  C_28
REMARK   11  A    between atoms: C_28  and  C_29
REMARK   12  A    between atoms: C_29  and  C_31
REMARK                            x       y       z     vdW  Elec       q    Type
REMARK                         _______ _______ _______ _____ _____    ______ ____
ROOT
ATOM      1  C   UNL     1      -9.006  15.754  67.649  0.00  0.00    +0.065 A 
ATOM      2  C   UNL     1      -8.166  16.826  67.922  0.00  0.00    +0.049 A 
ATOM      3  I   UNL     1      -8.537  18.536  66.742  0.00  0.00    -0.041 I 
ATOM      4  C   UNL     1      -7.147  16.765  68.852  0.00  0.00    +0.067 A 
ATOM      5  C   UNL     1      -6.724  15.480  69.174  0.00  0.00    +0.040 A 
ATOM      6  I   UNL     1      -5.132  15.282  70.504  0.00  0.00    -0.042 I 
ATOM      7  C   UNL     1      -7.278  14.338  68.604  0.00  0.00    +0.067 A 
ATOM      8  C   UNL     1      -8.500  14.515  67.985  0.00  0.00    +0.049 A 
ATOM      9  I   UNL     1      -9.631  12.816  67.557  0.00  0.00    -0.041 I 
ENDROOT
BRANCH   1  12
ATOM     10  C   UNL     1     -11.103  16.066  68.919  0.00  0.00    +0.095 C 
ATOM     11  C   UNL     1     -11.030  16.037  68.762  0.00  0.00    +0.230 C 
ATOM     12  N   UNL     1     -10.417  15.991  67.529  0.00  0.00    -0.255 N 
ATOM     13  O   UNL     1     -10.734  16.377  69.818  0.00  0.00    -0.275 OA
BRANCH  12  14
ATOM     14  C   UNL     1     -10.736  16.662  66.325  0.00  0.00    +0.134 C 
BRANCH  14  15
ATOM     15  C   UNL     1     -10.638  15.570  65.092  0.00  0.00    +0.205 C 
ATOM     16  O   UNL     1     -11.240  16.538  64.082  0.00  0.00    -0.218 OA
BRANCH  15  17
ATOM     17  C   UNL     1     -12.093  14.853  65.428  0.00  0.00    +0.217 C 
ATOM     18  O   UNL     1     -12.590  14.732  64.119  0.00  0.00    -0.218 OA
ENDBRANCH  15  17
ENDBRANCH  14  15
ENDBRANCH  12  14
ENDBRANCH   1  12
BRANCH   4  19
ATOM     19  C   UNL     1      -6.155  17.849  68.836  0.00  0.00    +0.266 C 
ATOM     20  N   UNL     1      -6.027  18.816  69.876  0.00  0.00    -0.199 NA
ATOM     21  O   UNL     1      -5.103  17.681  68.146  0.00  0.00    -0.268 OA
BRANCH  20  22
ATOM     22  C   UNL     1      -4.697  19.183  70.351  0.00  0.00    +0.151 C 
BRANCH  22  23
ATOM     23  C   UNL     1      -4.971  20.006  71.755  0.00  0.00    +0.206 C 
ATOM     24  O   UNL     1      -6.339  20.495  71.304  0.00  0.00    -0.218 OA
BRANCH  23  25
ATOM     25  C   UNL     1      -4.233  21.365  71.181  0.00  0.00    +0.217 C 
ATOM     26  O   UNL     1      -4.361  22.226  72.285  0.00  0.00    -0.218 OA
ENDBRANCH  23  25
ENDBRANCH  22  23
ENDBRANCH  20  22
ENDBRANCH   4  19
BRANCH   7  27
ATOM     27  C   UNL     1      -6.487  13.129  68.426  0.00  0.00    +0.266 C 
ATOM     28  N   UNL     1      -5.758  12.830  67.231  0.00  0.00    -0.199 NA
ATOM     29  O   UNL     1      -6.607  12.245  69.329  0.00  0.00    -0.268 OA
BRANCH  28  30
ATOM     30  C   UNL     1      -5.542  11.446  66.977  0.00  0.00    +0.151 C 
BRANCH  30  31
ATOM     31  C   UNL     1      -6.729  10.930  65.953  0.00  0.00    +0.206 C 
ATOM     32  O   UNL     1      -5.784  10.488  64.842  0.00  0.00    -0.218 OA
BRANCH  31  33
ATOM     33  C   UNL     1      -6.729   9.418  66.621  0.00  0.00    +0.217 C 
ATOM     34  O   UNL     1      -7.716   9.515  67.599  0.00  0.00    -0.218 OA
ENDBRANCH  31  33
ENDBRANCH  30  31
ENDBRANCH  28  30
ENDBRANCH   7  27
TORSDOF 12
ENDMDL
MODEL 5
REMARK VINA RESULT:      -5.6      1.504      2.869
REMARK  Name = 
REMARK  12 active torsions:
REMARK  status: ('A' for Active; 'I' for Inactive)
REMARK    1  A    between atoms: N_4  and  C_5
REMARK    2  A    between atoms: N_4  and  C_10
REMARK    3  A    between atoms: C_5  and  C_6
REMARK    4  A    between atoms: C_6  and  C_8
REMARK    5  A    between atoms: C_13  and  C_14
REMARK    6  A    between atoms: N_16  and  C_17
REMARK    7  A    between atoms: C_17  and  C_18
REMARK    8  A    between atoms: C_18  and  C_20
REMARK    9  A    between atoms: C_24  and  C_25
REMARK   10  A    between atoms: N_27  and  C_28
REMARK   11  A    between atoms: C_28  and  C_29
REMARK   12  A    between atoms: C_29  and  C_31
REMARK                            x       y       z     vdW  Elec       q    Type
REMARK                         _______ _______ _______ _____ _____    ______ ____
ROOT
ATOM      1  C   UNL     1      -9.904  14.669  67.712  0.00  0.00    +0.065 A 
ATOM      2  C   UNL     1      -9.303  15.920  67.667  0.00  0.00    +0.049 A 
ATOM      3  I   UNL     1     -10.256  17.290  66.376  0.00  0.00    -0.041 I 
ATOM      4  C   UNL     1      -8.155  16.229  68.370  0.00  0.00    +0.067 A 
ATOM      5  C   UNL     1      -7.396  15.132  68.764  0.00  0.00    +0.040 A 
ATOM      6  I   UNL     1      -5.601  15.495  69.758  0.00  0.00    -0.042 I 
ATOM      7  C   UNL     1      -7.757  13.821  68.472  0.00  0.00    +0.067 A 
ATOM      8  C   UNL     1      -9.073  13.636  68.096  0.00  0.00    +0.049 A 
ATOM      9  I   UNL     1      -9.832  11.694  68.130  0.00  0.00    -0.041 I 
ENDROOT
BRANCH   1  12
ATOM     10  C   UNL     1     -12.014  14.216  66.510  0.00  0.00    +0.095 C 
ATOM     11  C   UNL     1     -11.940  14.278  66.655  0.00  0.00    +0.230 C 
ATOM     12  N   UNL     1     -11.331  14.589  67.851  0.00  0.00    -0.255 N 
ATOM     13  O   UNL     1     -11.670  13.653  65.730  0.00  0.00    -0.275 OA
BRANCH  12  14
ATOM     14  C   UNL     1     -11.712  14.280  69.179  0.00  0.00    +0.134 C 
BRANCH  14  15
ATOM     15  C   UNL     1     -12.159  15.685  69.919  0.00  0.00    +0.205 C 
ATOM     16  O   UNL     1     -11.007  15.619  70.913  0.00  0.00    -0.218 OA
BRANCH  15  17
ATOM     17  C   UNL     1     -13.230  14.959  70.954  0.00  0.00    +0.217 C 
ATOM     18  O   UNL     1     -13.408  16.013  71.867  0.00  0.00    -0.218 OA
ENDBRANCH  15  17
ENDBRANCH  14  15
ENDBRANCH  12  14
ENDBRANCH   1  12
BRANCH   4  19
ATOM     19  C   UNL     1      -7.461  17.474  68.013  0.00  0.00    +0.266 C 
ATOM     20  N   UNL     1      -7.362  18.600  68.883  0.00  0.00    -0.199 NA
ATOM     21  O   UNL     1      -6.550  17.413  67.131  0.00  0.00    -0.268 OA
BRANCH  20  22
ATOM     22  C   UNL     1      -6.086  19.296  69.007  0.00  0.00    +0.151 C 
BRANCH  22  23
ATOM     23  C   UNL     1      -6.090  19.899  70.544  0.00  0.00    +0.206 C 
ATOM     24  O   UNL     1      -5.411  21.194  70.131  0.00  0.00    -0.218 OA
BRANCH  23  25
ATOM     25  C   UNL     1      -4.645  19.186  70.899  0.00  0.00    +0.217 C 
ATOM     26  O   UNL     1      -4.394  19.715  72.178  0.00  0.00    -0.218 OA
ENDBRANCH  23  25
ENDBRANCH  22  23
ENDBRANCH  20  22
ENDBRANCH   4  19
BRANCH   7  27
ATOM     27  C   UNL     1      -6.748  12.786  68.295  0.00  0.00    +0.266 C 
ATOM     28  N   UNL     1      -6.367  11.870  69.327  0.00  0.00    -0.199 NA
ATOM     29  O   UNL     1      -6.080  12.836  67.218  0.00  0.00    -0.268 OA
BRANCH  28  30
ATOM     30  C   UNL     1      -5.046  11.348  69.223  0.00  0.00    +0.151 C 
BRANCH  30  31
ATOM     31  C   UNL     1      -4.347  11.448  70.716  0.00  0.00    +0.206 C 
ATOM     32  O   UNL     1      -5.580  12.003  71.419  0.00  0.00    -0.218 OA
BRANCH  31  33
ATOM     33  C   UNL     1      -4.777   9.895  71.084  0.00  0.00    +0.217 C 
ATOM     34  O   UNL     1      -5.624  10.063  72.178  0.00  0.00    -0.218 OA
ENDBRANCH  31  33
ENDBRANCH  30  31
ENDBRANCH  28  30
ENDBRANCH   7  27
TORSDOF 12
ENDMDL
MODEL 6
REMARK VINA RESULT:      -5.5      3.630      5.724
REMARK  Name = 
REMARK  12 active torsions:
REMARK  status: ('A' for Active; 'I' for Inactive)
REMARK    1  A    between atoms: N_4  and  C_5
REMARK    2  A    between atoms: N_4  and  C_10
REMARK    3  A    between atoms: C_5  and  C_6
REMARK    4  A    between atoms: C_6  and  C_8
REMARK    5  A    between atoms: C_13  and  C_14
REMARK    6  A    between atoms: N_16  and  C_17
REMARK    7  A    between atoms: C_17  and  C_18
REMARK    8  A    between atoms: C_18  and  C_20
REMARK    9  A    between atoms: C_24  and  C_25
REMARK   10  A    between atoms: N_27  and  C_28
REMARK   11  A    between atoms: C_28  and  C_29
REMARK   12  A    between atoms: C_29  and  C_31
REMARK                            x       y       z     vdW  Elec       q    Type
REMARK                         _______ _______ _______ _____ _____    ______ ____
ROOT
ATOM      1  C   UNL     1      -9.147  13.165  67.144  0.00  0.00    +0.065 A 
ATOM      2  C   UNL     1      -7.826  13.553  67.324  0.00  0.00    +0.049 A 
ATOM      3  I   UNL     1      -6.456  11.949  67.389  0.00  0.00    -0.041 I 
ATOM      4  C   UNL     1      -7.445  14.870  67.493  0.00  0.00    +0.067 A 
ATOM      5  C   UNL     1      -8.460  15.725  67.909  0.00  0.00    +0.040 A 
ATOM      6  I   UNL     1      -7.969  17.716  68.274  0.00  0.00    -0.042 I 
ATOM      7  C   UNL     1      -9.761  15.293  68.144  0.00  0.00    +0.067 A 
ATOM      8  C   UNL     1     -10.088  14.065  67.602  0.00  0.00    +0.049 A 
ATOM      9  I   UNL     1     -12.109  13.569  67.460  0.00  0.00    -0.041 I 
ENDROOT
BRANCH   1  12
ATOM     10  C   UNL     1      -9.708  10.792  66.742  0.00  0.00    +0.095 C 
ATOM     11  C   UNL     1      -9.660  10.944  66.671  0.00  0.00    +0.230 C 
ATOM     12  N   UNL     1      -9.454  12.195  66.130  0.00  0.00    -0.255 N 
ATOM     13  O   UNL     1     -10.086  10.531  67.653  0.00  0.00    -0.275 OA
BRANCH  12  14
ATOM     14  C   UNL     1     -10.018  12.798  64.981  0.00  0.00    +0.134 C 
BRANCH  14  15
ATOM     15  C   UNL     1     -10.801  11.626  64.124  0.00  0.00    +0.205 C 
ATOM     16  O   UNL     1      -9.793  11.678  62.983  0.00  0.00    -0.218 OA
BRANCH  15  17
ATOM     17  C   UNL     1     -11.849  12.673  63.384  0.00  0.00    +0.217 C 
ATOM     18  O   UNL     1     -13.053  12.223  63.951  0.00  0.00    -0.218 OA
ENDBRANCH  15  17
ENDBRANCH  14  15
ENDBRANCH  12  14
ENDBRANCH   1  12
BRANCH   4  19
ATOM     19  C   UNL     1      -6.077  15.120  67.965  0.00  0.00    +0.266 C 
ATOM     20  N   UNL     1      -5.068  15.738  67.167  0.00  0.00    -0.199 NA
ATOM     21  O   UNL     1      -5.889  15.221  69.216  0.00  0.00    -0.268 OA
BRANCH  20  22
ATOM     22  C   UNL     1      -4.212  16.757  67.764  0.00  0.00    +0.151 C 
BRANCH  22  23
ATOM     23  C   UNL     1      -3.873  17.792  66.523  0.00  0.00    +0.206 C 
ATOM     24  O   UNL     1      -4.980  17.234  65.642  0.00  0.00    -0.218 OA
BRANCH  23  25
ATOM     25  C   UNL     1      -2.761  16.759  65.876  0.00  0.00    +0.217 C 
ATOM     26  O   UNL     1      -3.172  16.730  64.533  0.00  0.00    -0.218 OA
ENDBRANCH  23  25
ENDBRANCH  22  23
ENDBRANCH  20  22
ENDBRANCH   4  19
BRANCH   7  27
ATOM     27  C   UNL     1     -10.605  15.953  69.131  0.00  0.00    +0.266 C 
ATOM     28  N   UNL     1     -10.700  15.535  70.496  0.00  0.00    -0.199 NA
ATOM     29  O   UNL     1     -11.404  16.832  68.683  0.00  0.00    -0.268 OA
BRANCH  28  30
ATOM     30  C   UNL     1     -11.922  15.859  71.151  0.00  0.00    +0.151 C 
BRANCH  30  31
ATOM     31  C   UNL     1     -12.652  14.443  71.585  0.00  0.00    +0.206 C 
ATOM     32  O   UNL     1     -12.631  14.720  73.083  0.00  0.00    -0.218 OA
BRANCH  31  33
ATOM     33  C   UNL     1     -14.158  15.106  71.435  0.00  0.00    +0.217 C 
ATOM     34  O   UNL     1     -14.212  15.991  72.510  0.00  0.00    -0.218 OA
ENDBRANCH  31  33
ENDBRANCH  30  31
ENDBRANCH  28  30
ENDBRANCH   7  27
TORSDOF 12
ENDMDL
MODEL 7
REMARK VINA RESULT:      -5.5      1.973      7.049
REMARK  Name = 
REMARK  12 active torsions:
REMARK  status: ('A' for Active; 'I' for Inactive)
REMARK    1  A    between atoms: N_4  and  C_5
REMARK    2  A    between atoms: N_4  and  C_10
REMARK    3  A    between atoms: C_5  and  C_6
REMARK    4  A    between atoms: C_6  and  C_8
REMARK    5  A    between atoms: C_13  and  C_14
REMARK    6  A    between atoms: N_16  and  C_17
REMARK    7  A    between atoms: C_17  and  C_18
REMARK    8  A    between atoms: C_18  and  C_20
REMARK    9  A    between atoms: C_24  and  C_25
REMARK   10  A    between atoms: N_27  and  C_28
REMARK   11  A    between atoms: C_28  and  C_29
REMARK   12  A    between atoms: C_29  and  C_31
REMARK                            x       y       z     vdW  Elec       q    Type
REMARK                         _______ _______ _______ _____ _____    ______ ____
ROOT
ATOM      1  C   UNL     1      -6.710  18.476  67.482  0.00  0.00    +0.065 A 
ATOM      2  C   UNL     1      -5.864  17.405  67.736  0.00  0.00    +0.049 A 
ATOM      3  I   UNL     1      -3.872  17.711  67.112  0.00  0.00    -0.041 I 
ATOM      4  C   UNL     1      -6.296  16.223  68.305  0.00  0.00    +0.067 A 
ATOM      5  C   UNL     1      -7.665  15.991  68.206  0.00  0.00    +0.040 A 
ATOM      6  I   UNL     1      -8.405  14.195  68.959  0.00  0.00    -0.042 I 
ATOM      7  C   UNL     1      -8.536  16.875  67.580  0.00  0.00    +0.067 A 
ATOM      8  C   UNL     1      -8.049  18.153  67.383  0.00  0.00    +0.049 A 
ATOM      9  I   UNL     1      -9.417  19.659  66.929  0.00  0.00    -0.041 I 
ENDROOT
BRANCH   1  12
ATOM     10  C   UNL     1      -5.962  20.638  66.549  0.00  0.00    +0.095 C 
ATOM     11  C   UNL     1      -5.977  20.539  66.692  0.00  0.00    +0.230 C 
ATOM     12  N   UNL     1      -6.272  19.802  67.818  0.00  0.00    -0.255 N 
ATOM     13  O   UNL     1      -6.371  20.592  65.615  0.00  0.00    -0.275 OA
BRANCH  12  14
ATOM     14  C   UNL     1      -6.769  20.215  69.077  0.00  0.00    +0.134 C 
BRANCH  14  15
ATOM     15  C   UNL     1      -5.669  19.779  70.227  0.00  0.00    +0.205 C 
ATOM     16  O   UNL     1      -6.455  20.452  71.345  0.00  0.00    -0.218 OA
BRANCH  15  17
ATOM     17  C   UNL     1      -4.689  21.092  69.984  0.00  0.00    +0.217 C 
ATOM     18  O   UNL     1      -4.721  21.638  71.279  0.00  0.00    -0.218 OA
ENDBRANCH  15  17
ENDBRANCH  14  15
ENDBRANCH  12  14
ENDBRANCH   1  12
BRANCH   4  19
ATOM     19  C   UNL     1      -5.382  15.074  68.249  0.00  0.00    +0.266 C 
ATOM     20  N   UNL     1      -4.789  14.481  69.403  0.00  0.00    -0.199 NA
ATOM     21  O   UNL     1      -5.461  14.301  67.245  0.00  0.00    -0.268 OA
BRANCH  20  22
ATOM     22  C   UNL     1      -4.740  13.027  69.512  0.00  0.00    +0.151 C 
BRANCH  22  23
ATOM     23  C   UNL     1      -4.528  12.741  71.124  0.00  0.00    +0.206 C 
ATOM     24  O   UNL     1      -5.755  11.847  71.215  0.00  0.00    -0.218 OA
BRANCH  23  25
ATOM     25  C   UNL     1      -5.399  14.077  71.545  0.00  0.00    +0.217 C 
ATOM     26  O   UNL     1      -5.769  13.751  72.861  0.00  0.00    -0.218 OA
ENDBRANCH  23  25
ENDBRANCH  22  23
ENDBRANCH  20  22
ENDBRANCH   4  19
BRANCH   7  27
ATOM     27  C   UNL     1      -9.747  16.399  66.927  0.00  0.00    +0.266 C 
ATOM     28  N   UNL     1      -9.762  15.810  65.622  0.00  0.00    -0.199 NA
ATOM     29  O   UNL     1     -10.841  16.687  67.501  0.00  0.00    -0.268 OA
BRANCH  28  30
ATOM     30  C   UNL     1     -10.988  15.936  64.909  0.00  0.00    +0.151 C 
BRANCH  30  31
ATOM     31  C   UNL     1     -11.845  14.542  65.130  0.00  0.00    +0.206 C 
ATOM     32  O   UNL     1     -12.512  14.561  63.760  0.00  0.00    -0.218 OA
BRANCH  31  33
ATOM     33  C   UNL     1     -10.598  13.618  64.563  0.00  0.00    +0.217 C 
ATOM     34  O   UNL     1     -11.233  12.767  63.660  0.00  0.00    -0.218 OA
ENDBRANCH  31  33
ENDBRANCH  30  31
ENDBRANCH  28  30
ENDBRANCH   7  27
TORSDOF 12
ENDMDL
MODEL 8
REMARK VINA RESULT:      -5.5      3.334      7.075
REMARK  Name = 
REMARK  12 active torsions:
REMARK  status: ('A' for Active; 'I' for Inactive)
REMARK    1  A    between atoms: N_4  and  C_5
REMARK    2  A    between atoms: N_4  and  C_10
REMARK    3  A    between atoms: C_5  and  C_6
REMARK    4  A    between atoms: C_6  and  C_8
REMARK    5  A    between atoms: C_13  and  C_14
REMARK    6  A    between atoms: N_16  and  C_17
REMARK    7  A    between atoms: C_17  and  C_18
REMARK    8  A    between atoms: C_18  and  C_20
REMARK    9  A    between atoms: C_24  and  C_25
REMARK   10  A    between atoms: N_27  and  C_28
REMARK   11  A    between atoms: C_28  and  C_29
REMARK   12  A    between atoms: C_29  and  C_31
REMARK                            x       y       z     vdW  Elec       q    Type
REMARK                         _______ _______ _______ _____ _____    ______ ____
ROOT
ATOM      1  C   UNL     1     -10.030  13.308  68.052  0.00  0.00    +0.065 A 
ATOM      2  C   UNL     1     -10.223  12.001  68.478  0.00  0.00    +0.049 A 
ATOM      3  I   UNL     1     -11.991  11.708  69.593  0.00  0.00    -0.041 I 
ATOM      4  C   UNL     1      -9.316  10.988  68.235  0.00  0.00    +0.067 A 
ATOM      5  C   UNL     1      -8.025  11.416  67.940  0.00  0.00    +0.040 A 
ATOM      6  I   UNL     1      -6.562   9.964  67.639  0.00  0.00    -0.042 I 
ATOM      7  C   UNL     1      -7.668  12.759  67.896  0.00  0.00    +0.067 A 
ATOM      8  C   UNL     1      -8.718  13.653  67.799  0.00  0.00    +0.049 A 
ATOM      9  I   UNL     1      -8.283  15.610  67.226  0.00  0.00    -0.041 I 
ENDROOT
BRANCH   1  12
ATOM     10  C   UNL     1     -11.700  15.094  68.409  0.00  0.00    +0.095 C 
ATOM     11  C   UNL     1     -11.650  14.959  68.309  0.00  0.00    +0.230 C 
ATOM     12  N   UNL     1     -11.129  14.013  67.454  0.00  0.00    -0.255 N 
ATOM     13  O   UNL     1     -11.235  15.645  69.131  0.00  0.00    -0.275 OA
BRANCH  12  14
ATOM     14  C   UNL     1     -11.053  14.001  66.041  0.00  0.00    +0.134 C 
BRANCH  14  15
ATOM     15  C   UNL     1     -12.547  13.619  65.454  0.00  0.00    +0.205 C 
ATOM     16  O   UNL     1     -12.374  12.137  65.761  0.00  0.00    -0.218 OA
BRANCH  15  17
ATOM     17  C   UNL     1     -12.042  13.460  63.885  0.00  0.00    +0.217 C 
ATOM     18  O   UNL     1     -12.797  12.332  63.520  0.00  0.00    -0.218 OA
ENDBRANCH  15  17
ENDBRANCH  14  15
ENDBRANCH  12  14
ENDBRANCH   1  12
BRANCH   4  19
ATOM     19  C   UNL     1      -9.488   9.735  68.982  0.00  0.00    +0.266 C 
ATOM     20  N   UNL     1      -9.187   9.597  70.370  0.00  0.00    -0.199 NA
ATOM     21  O   UNL     1     -10.330   8.893  68.544  0.00  0.00    -0.268 OA
BRANCH  20  22
ATOM     22  C   UNL     1     -10.116   8.876  71.233  0.00  0.00    +0.151 C 
BRANCH  22  23
ATOM     23  C   UNL     1      -9.164   7.829  72.083  0.00  0.00    +0.206 C 
ATOM     24  O   UNL     1      -9.573   6.634  71.236  0.00  0.00    -0.218 OA
BRANCH  23  25
ATOM     25  C   UNL     1     -10.357   7.531  73.183  0.00  0.00    +0.217 C 
ATOM     26  O   UNL     1     -11.452   8.161  72.566  0.00  0.00    -0.218 OA
ENDBRANCH  23  25
ENDBRANCH  22  23
ENDBRANCH  20  22
ENDBRANCH   4  19
BRANCH   7  27
ATOM     27  C   UNL     1      -6.315  13.187  68.224  0.00  0.00    +0.266 C 
ATOM     28  N   UNL     1      -5.884  13.492  69.554  0.00  0.00    -0.199 NA
ATOM     29  O   UNL     1      -5.559  13.450  67.240  0.00  0.00    -0.268 OA
BRANCH  28  30
ATOM     30  C   UNL     1      -4.799  14.410  69.649  0.00  0.00    +0.151 C 
BRANCH  30  31
ATOM     31  C   UNL     1      -4.920  15.184  71.102  0.00  0.00    +0.206 C 
ATOM     32  O   UNL     1      -3.450  15.578  71.182  0.00  0.00    -0.218 OA
BRANCH  31  33
ATOM     33  C   UNL     1      -5.312  16.614  70.373  0.00  0.00    +0.217 C 
ATOM     34  O   UNL     1      -4.986  17.555  71.348  0.00  0.00    -0.218 OA
ENDBRANCH  31  33
ENDBRANCH  30  31
ENDBRANCH  28  30
ENDBRANCH   7  27
TORSDOF 12
ENDMDL
MODEL 9
REMARK VINA RESULT:      -5.5      4.406      9.686
REMARK  Name = 
REMARK  12 active torsions:
REMARK  status: ('A' for Active; 'I' for Inactive)
REMARK    1  A    between atoms: N_4  and  C_5
REMARK    2  A    between atoms: N_4  and  C_10
REMARK    3  A    between atoms: C_5  and  C_6
REMARK    4  A    between atoms: C_6  and  C_8
REMARK    5  A    between atoms: C_13  and  C_14
REMARK    6  A    between atoms: N_16  and  C_17
REMARK    7  A    between atoms: C_17  and  C_18
REMARK    8  A    between atoms: C_18  and  C_20
REMARK    9  A    between atoms: C_24  and  C_25
REMARK   10  A    between atoms: N_27  and  C_28
REMARK   11  A    between atoms: C_28  and  C_29
REMARK   12  A    between atoms: C_29  and  C_31
REMARK                            x       y       z     vdW  Elec       q    Type
REMARK                         _______ _______ _______ _____ _____    ______ ____
ROOT
ATOM      1  C   UNL     1      -7.599  11.169  68.057  0.00  0.00    +0.065 A 
ATOM      2  C   UNL     1      -8.134   9.903  68.255  0.00  0.00    +0.049 A 
ATOM      3  I   UNL     1      -7.024   8.346  67.362  0.00  0.00    -0.041 I 
ATOM      4  C   UNL     1      -9.314   9.684  68.938  0.00  0.00    +0.067 A 
ATOM      5  C   UNL     1     -10.152  10.791  69.030  0.00  0.00    +0.040 A 
ATOM      6  I   UNL     1     -11.996  10.543  69.967  0.00  0.00    -0.042 I 
ATOM      7  C   UNL     1      -9.834  12.026  68.475  0.00  0.00    +0.067 A 
ATOM      8  C   UNL     1      -8.503  12.207  68.149  0.00  0.00    +0.049 A 
ATOM      9  I   UNL     1      -7.842  14.153  67.797  0.00  0.00    -0.041 I 
ENDROOT
BRANCH   1  12
ATOM     10  C   UNL     1      -5.427  11.460  66.916  0.00  0.00    +0.095 C 
ATOM     11  C   UNL     1      -5.508  11.429  67.067  0.00  0.00    +0.230 C 
ATOM     12  N   UNL     1      -6.191  11.367  68.262  0.00  0.00    -0.255 N 
ATOM     13  O   UNL     1      -5.736  11.804  66.006  0.00  0.00    -0.275 OA
BRANCH  12  14
ATOM     14  C   UNL     1      -5.925  11.999  69.500  0.00  0.00    +0.134 C 
BRANCH  14  15
ATOM     15  C   UNL     1      -4.967  10.992  70.389  0.00  0.00    +0.205 C 
ATOM     16  O   UNL     1      -6.118  10.563  71.289  0.00  0.00    -0.218 OA
BRANCH  15  17
ATOM     17  C   UNL     1      -4.456  12.174  71.431  0.00  0.00    +0.217 C 
ATOM     18  O   UNL     1      -5.676  12.843  71.627  0.00  0.00    -0.218 OA
ENDBRANCH  15  17
ENDBRANCH  14  15
ENDBRANCH  12  14
ENDBRANCH   1  12
BRANCH   4  19
ATOM     19  C   UNL     1      -9.921   8.351  68.824  0.00  0.00    +0.266 C 
ATOM     20  N   UNL     1     -10.098   7.469  69.932  0.00  0.00    -0.199 NA
ATOM     21  O   UNL     1     -10.711   8.138  67.855  0.00  0.00    -0.268 OA
BRANCH  20  22
ATOM     22  C   UNL     1     -11.359   6.748  70.075  0.00  0.00    +0.151 C 
BRANCH  22  23
ATOM     23  C   UNL     1     -11.260   6.032  71.560  0.00  0.00    +0.206 C 
ATOM     24  O   UNL     1     -12.605   6.580  72.009  0.00  0.00    -0.218 OA
BRANCH  23  25
ATOM     25  C   UNL     1     -10.455   7.321  72.202  0.00  0.00    +0.217 C 
ATOM     26  O   UNL     1     -10.753   7.169  73.567  0.00  0.00    -0.218 OA
ENDBRANCH  23  25
ENDBRANCH  22  23
ENDBRANCH  20  22
ENDBRANCH   4  19
BRANCH   7  27
ATOM     27  C   UNL     1     -10.875  12.932  68.011  0.00  0.00    +0.266 C 
ATOM     28  N   UNL     1     -11.485  12.838  66.720  0.00  0.00    -0.199 NA
ATOM     29  O   UNL     1     -11.109  13.938  68.748  0.00  0.00    -0.268 OA
BRANCH  28  30
ATOM     30  C   UNL     1     -12.012  14.056  66.203  0.00  0.00    +0.151 C 
BRANCH  30  31
ATOM     31  C   UNL     1     -11.310  14.324  64.733  0.00  0.00    +0.206 C 
ATOM     32  O   UNL     1     -12.553  14.921  64.083  0.00  0.00    -0.218 OA
BRANCH  31  33
ATOM     33  C   UNL     1     -10.776  15.818  65.195  0.00  0.00    +0.217 C 
ATOM     34  O   UNL     1     -11.303  16.651  64.209  0.00  0.00    -0.218 OA
ENDBRANCH  31  33
ENDBRANCH  30  31
ENDBRANCH  28  30
ENDBRANCH   7  27
TORSDOF 12
ENDMDL
