MODEL 1
REMARK VINA RESULT:      -4.6      0.000      0.000
REMARK  Name = 
REMARK  15 active torsions:
REMARK  status: ('A' for Active; 'I' for Inactive)
REMARK    1  A    between atoms: C_2  and  C_3
REMARK    2  A    between atoms: C_3  and  C_4
REMARK    3  A    between atoms: C_4  and  C_5
REMARK    4  A    between atoms: C_5  and  C_6
REMARK    5  A    between atoms: C_6  and  C_7
REMARK    6  A    between atoms: C_7  and  C_8
REMARK    7  A    between atoms: C_8  and  C_9
REMARK    8  A    between atoms: C_9  and  C_10
REMARK    9  A    between atoms: C_10  and  C_11
REMARK   10  A    between atoms: C_11  and  C_12
REMARK   11  A    between atoms: C_12  and  C_13
REMARK   12  A    between atoms: C_13  and  C_14
REMARK   13  A    between atoms: C_14  and  C_15
REMARK   14  A    between atoms: C_15  and  C_16
REMARK   15  A    between atoms: C_16  and  N_17
REMARK                            x       y       z     vdW  Elec       q    Type
REMARK                         _______ _______ _______ _____ _____    ______ ____
ROOT
ATOM      1  C   UNL     1     -12.217  12.659  65.385  0.00  0.00    +0.000 C 
ENDROOT
BRANCH   1   2
ATOM      2  C   UNL     1     -12.134  13.915  66.204  0.00  0.00    +0.000 C 
BRANCH   2   3
ATOM      3  C   UNL     1     -10.711  14.258  66.597  0.00  0.00    +0.000 C 
BRANCH   3   4
ATOM      4  C   UNL     1     -10.699  15.584  67.349  0.00  0.00    +0.007 C 
BRANCH   4   5
ATOM      5  C   UNL     1     -11.673  15.571  68.506  0.00  0.00    +0.085 C 
BRANCH   5   6
ATOM      6  C   UNL     1     -11.150  14.815  69.698  0.00  0.00    +0.322 C 
BRANCH   6   7
ATOM      7  N   UNL     1     -11.988  14.970  70.872  0.00  0.00    -0.160 N 
ATOM      8  C   UNL     1     -11.656  15.846  71.850  0.00  0.00    +0.290 A 
ATOM      9  C   UNL     1     -12.540  16.015  72.908  0.00  0.00    +0.076 A 
ATOM     10  C   UNL     1     -13.885  15.709  72.745  0.00  0.00    +0.013 A 
ATOM     11  C   UNL     1     -14.146  14.674  71.855  0.00  0.00    +0.076 A 
ATOM     12  C   UNL     1     -13.135  14.269  70.995  0.00  0.00    +0.290 A 
ENDBRANCH   6   7
ENDBRANCH   5   6
ENDBRANCH   4   5
ENDBRANCH   3   4
ENDBRANCH   2   3
ENDBRANCH   1   2
BRANCH   1  13
ATOM     13  C   UNL     1     -11.850  12.931  63.940  0.00  0.00    +0.000 C 
BRANCH  13  14
ATOM     14  C   UNL     1     -10.629  12.107  63.571  0.00  0.00    +0.000 C 
BRANCH  14  15
ATOM     15  C   UNL     1     -10.596  10.929  64.533  0.00  0.00    +0.000 C 
BRANCH  15  16
ATOM     16  C   UNL     1      -9.123  10.673  64.830  0.00  0.00    +0.000 C 
BRANCH  16  17
ATOM     17  C   UNL     1      -8.914  11.021  66.286  0.00  0.00    +0.000 C 
BRANCH  17  18
ATOM     18  C   UNL     1      -9.964  10.311  67.126  0.00  0.00    +0.000 C 
BRANCH  18  19
ATOM     19  C   UNL     1     -10.165  11.161  68.374  0.00  0.00    +0.000 C 
BRANCH  19  20
ATOM     20  C   UNL     1     -11.652  11.124  68.700  0.00  0.00    +0.000 C 
BRANCH  20  22
ATOM     21  C   UNL     1     -11.088   9.735  70.650  0.00  0.00    +0.000 C 
ATOM     22  C   UNL     1     -11.853  10.967  70.182  0.00  0.00    +0.000 C 
ENDBRANCH  20  22
ENDBRANCH  19  20
ENDBRANCH  18  19
ENDBRANCH  17  18
ENDBRANCH  16  17
ENDBRANCH  15  16
ENDBRANCH  14  15
ENDBRANCH  13  14
ENDBRANCH   1  13
TORSDOF 15
ENDMDL
MODEL 2
REMARK VINA RESULT:      -4.5      2.630      4.907
REMARK  Name = 
REMARK  15 active torsions:
REMARK  status: ('A' for Active; 'I' for Inactive)
REMARK    1  A    between atoms: C_2  and  C_3
REMARK    2  A    between atoms: C_3  and  C_4
REMARK    3  A    between atoms: C_4  and  C_5
REMARK    4  A    between atoms: C_5  and  C_6
REMARK    5  A    between atoms: C_6  and  C_7
REMARK    6  A    between atoms: C_7  and  C_8
REMARK    7  A    between atoms: C_8  and  C_9
REMARK    8  A    between atoms: C_9  and  C_10
REMARK    9  A    between atoms: C_10  and  C_11
REMARK   10  A    between atoms: C_11  and  C_12
REMARK   11  A    between atoms: C_12  and  C_13
REMARK   12  A    between atoms: C_13  and  C_14
REMARK   13  A    between atoms: C_14  and  C_15
REMARK   14  A    between atoms: C_15  and  C_16
REMARK   15  A    between atoms: C_16  and  N_17
REMARK                            x       y       z     vdW  Elec       q    Type
REMARK                         _______ _______ _______ _____ _____    ______ ____
ROOT
ATOM      1  C   UNL     1      -9.322  11.167  65.895  0.00  0.00    +0.000 C 
ENDROOT
BRANCH   1   2
ATOM      2  C   UNL     1     -10.470  10.857  64.978  0.00  0.00    +0.000 C 
BRANCH   2   3
ATOM      3  C   UNL     1     -10.498  11.760  63.760  0.00  0.00    +0.000 C 
BRANCH   3   4
ATOM      4  C   UNL     1     -11.918  12.270  63.542  0.00  0.00    +0.007 C 
BRANCH   4   5
ATOM      5  C   UNL     1     -12.561  12.685  64.847  0.00  0.00    +0.085 C 
BRANCH   5   6
ATOM      6  C   UNL     1     -12.387  14.152  65.140  0.00  0.00    +0.322 C 
BRANCH   6   7
ATOM      7  N   UNL     1     -11.394  14.405  66.167  0.00  0.00    -0.160 N 
ATOM      8  C   UNL     1     -11.657  14.133  67.467  0.00  0.00    +0.290 A 
ATOM      9  C   UNL     1     -10.639  14.313  68.395  0.00  0.00    +0.076 A 
ATOM     10  C   UNL     1      -9.313  14.284  67.985  0.00  0.00    +0.013 A 
ATOM     11  C   UNL     1      -9.089  14.746  66.693  0.00  0.00    +0.076 A 
ATOM     12  C   UNL     1     -10.175  14.884  65.841  0.00  0.00    +0.290 A 
ENDBRANCH   6   7
ENDBRANCH   5   6
ENDBRANCH   4   5
ENDBRANCH   3   4
ENDBRANCH   2   3
ENDBRANCH   1   2
BRANCH   1  13
ATOM     13  C   UNL     1      -9.631  10.733  67.314  0.00  0.00    +0.000 C 
BRANCH  13  14
ATOM     14  C   UNL     1     -11.099  10.356  67.413  0.00  0.00    +0.000 C 
BRANCH  14  15
ATOM     15  C   UNL     1     -11.536  10.696  68.830  0.00  0.00    +0.000 C 
BRANCH  15  16
ATOM     16  C   UNL     1     -10.428  10.184  69.744  0.00  0.00    +0.000 C 
BRANCH  16  17
ATOM     17  C   UNL     1     -10.883   8.836  70.254  0.00  0.00    +0.000 C 
BRANCH  17  18
ATOM     18  C   UNL     1     -10.856   8.842  71.775  0.00  0.00    +0.000 C 
BRANCH  18  19
ATOM     19  C   UNL     1     -12.135   8.156  72.233  0.00  0.00    +0.000 C 
BRANCH  19  20
ATOM     20  C   UNL     1     -13.237   9.206  72.202  0.00  0.00    +0.000 C 
BRANCH  20  22
ATOM     21  C   UNL     1     -14.520   7.155  71.759  0.00  0.00    +0.000 C 
ATOM     22  C   UNL     1     -14.456   8.658  71.513  0.00  0.00    +0.000 C 
ENDBRANCH  20  22
ENDBRANCH  19  20
ENDBRANCH  18  19
ENDBRANCH  17  18
ENDBRANCH  16  17
ENDBRANCH  15  16
ENDBRANCH  14  15
ENDBRANCH  13  14
ENDBRANCH   1  13
TORSDOF 15
ENDMDL
MODEL 3
REMARK VINA RESULT:      -4.5      1.851      4.446
REMARK  Name = 
REMARK  15 active torsions:
REMARK  status: ('A' for Active; 'I' for Inactive)
REMARK    1  A    between atoms: C_2  and  C_3
REMARK    2  A    between atoms: C_3  and  C_4
REMARK    3  A    between atoms: C_4  and  C_5
REMARK    4  A    between atoms: C_5  and  C_6
REMARK    5  A    between atoms: C_6  and  C_7
REMARK    6  A    between atoms: C_7  and  C_8
REMARK    7  A    between atoms: C_8  and  C_9
REMARK    8  A    between atoms: C_9  and  C_10
REMARK    9  A    between atoms: C_10  and  C_11
REMARK   10  A    between atoms: C_11  and  C_12
REMARK   11  A    between atoms: C_12  and  C_13
REMARK   12  A    between atoms: C_13  and  C_14
REMARK   13  A    between atoms: C_14  and  C_15
REMARK   14  A    between atoms: C_15  and  C_16
REMARK   15  A    between atoms: C_16  and  N_17
REMARK                            x       y       z     vdW  Elec       q    Type
REMARK                         _______ _______ _______ _____ _____    ______ ____
ROOT
ATOM      1  C   UNL     1     -11.158  11.436  65.497  0.00  0.00    +0.000 C 
ENDROOT
BRANCH   1   2
ATOM      2  C   UNL     1     -11.179  11.494  66.997  0.00  0.00    +0.000 C 
BRANCH   2   3
ATOM      3  C   UNL     1      -9.861  11.968  67.578  0.00  0.00    +0.000 C 
BRANCH   3   4
ATOM      4  C   UNL     1     -10.104  13.194  68.450  0.00  0.00    +0.007 C 
BRANCH   4   5
ATOM      5  C   UNL     1     -11.487  13.168  69.064  0.00  0.00    +0.085 C 
BRANCH   5   6
ATOM      6  C   UNL     1     -12.052  14.546  69.283  0.00  0.00    +0.322 C 
BRANCH   6   7
ATOM      7  N   UNL     1     -12.447  14.778  70.659  0.00  0.00    -0.160 N 
ATOM      8  C   UNL     1     -13.062  13.808  71.377  0.00  0.00    +0.290 A 
ATOM      9  C   UNL     1     -13.338  14.056  72.716  0.00  0.00    +0.076 A 
ATOM     10  C   UNL     1     -12.603  15.006  73.412  0.00  0.00    +0.013 A 
ATOM     11  C   UNL     1     -12.149  16.073  72.645  0.00  0.00    +0.076 A 
ATOM     12  C   UNL     1     -12.177  15.955  71.263  0.00  0.00    +0.290 A 
ENDBRANCH   6   7
ENDBRANCH   5   6
ENDBRANCH   4   5
ENDBRANCH   3   4
ENDBRANCH   2   3
ENDBRANCH   1   2
BRANCH   1  13
ATOM     13  C   UNL     1     -12.206  12.357  64.906  0.00  0.00    +0.000 C 
BRANCH  13  14
ATOM     14  C   UNL     1     -11.530  13.611  64.379  0.00  0.00    +0.000 C 
BRANCH  14  15
ATOM     15  C   UNL     1     -11.739  14.689  65.431  0.00  0.00    +0.000 C 
BRANCH  15  16
ATOM     16  C   UNL     1     -10.745  15.796  65.099  0.00  0.00    +0.000 C 
BRANCH  16  17
ATOM     17  C   UNL     1      -9.494  15.500  65.893  0.00  0.00    +0.000 C 
BRANCH  17  18
ATOM     18  C   UNL     1      -8.924  16.804  66.434  0.00  0.00    +0.000 C 
BRANCH  18  19
ATOM     19  C   UNL     1      -9.218  16.816  67.928  0.00  0.00    +0.000 C 
BRANCH  19  20
ATOM     20  C   UNL     1     -10.465  17.666  68.127  0.00  0.00    +0.000 C 
BRANCH  20  22
ATOM     21  C   UNL     1      -9.516  19.925  67.915  0.00  0.00    +0.000 C 
ATOM     22  C   UNL     1     -10.407  18.885  67.248  0.00  0.00    +0.000 C 
ENDBRANCH  20  22
ENDBRANCH  19  20
ENDBRANCH  18  19
ENDBRANCH  17  18
ENDBRANCH  16  17
ENDBRANCH  15  16
ENDBRANCH  14  15
ENDBRANCH  13  14
ENDBRANCH   1  13
TORSDOF 15
ENDMDL
MODEL 4
REMARK VINA RESULT:      -4.5      1.388      4.012
REMARK  Name = 
REMARK  15 active torsions:
REMARK  status: ('A' for Active; 'I' for Inactive)
REMARK    1  A    between atoms: C_2  and  C_3
REMARK    2  A    between atoms: C_3  and  C_4
REMARK    3  A    between atoms: C_4  and  C_5
REMARK    4  A    between atoms: C_5  and  C_6
REMARK    5  A    between atoms: C_6  and  C_7
REMARK    6  A    between atoms: C_7  and  C_8
REMARK    7  A    between atoms: C_8  and  C_9
REMARK    8  A    between atoms: C_9  and  C_10
REMARK    9  A    between atoms: C_10  and  C_11
REMARK   10  A    between atoms: C_11  and  C_12
REMARK   11  A    between atoms: C_12  and  C_13
REMARK   12  A    between atoms: C_13  and  C_14
REMARK   13  A    between atoms: C_14  and  C_15
REMARK   14  A    between atoms: C_15  and  C_16
REMARK   15  A    between atoms: C_16  and  N_17
REMARK                            x       y       z     vdW  Elec       q    Type
REMARK                         _______ _______ _______ _____ _____    ______ ____
ROOT
ATOM      1  C   UNL     1      -9.185  11.166  65.703  0.00  0.00    +0.000 C 
ENDROOT
BRANCH   1   2
ATOM      2  C   UNL     1      -9.642  11.313  67.125  0.00  0.00    +0.000 C 
BRANCH   2   3
ATOM      3  C   UNL     1     -11.153  11.327  67.250  0.00  0.00    +0.000 C 
BRANCH   3   4
ATOM      4  C   UNL     1     -11.543  11.887  68.613  0.00  0.00    +0.007 C 
BRANCH   4   5
ATOM      5  C   UNL     1     -11.071  13.315  68.778  0.00  0.00    +0.085 C 
BRANCH   5   6
ATOM      6  C   UNL     1     -12.194  14.265  69.099  0.00  0.00    +0.322 C 
BRANCH   6   7
ATOM      7  N   UNL     1     -12.283  14.569  70.515  0.00  0.00    -0.160 N 
ATOM      8  C   UNL     1     -11.770  15.721  71.010  0.00  0.00    +0.290 A 
ATOM      9  C   UNL     1     -11.961  16.000  72.357  0.00  0.00    +0.076 A 
ATOM     10  C   UNL     1     -13.019  15.417  73.043  0.00  0.00    +0.013 A 
ATOM     11  C   UNL     1     -13.382  14.153  72.595  0.00  0.00    +0.076 A 
ATOM     12  C   UNL     1     -12.913  13.727  71.361  0.00  0.00    +0.290 A 
ENDBRANCH   6   7
ENDBRANCH   5   6
ENDBRANCH   4   5
ENDBRANCH   3   4
ENDBRANCH   2   3
ENDBRANCH   1   2
BRANCH   1  13
ATOM     13  C   UNL     1     -10.083  10.213  64.941  0.00  0.00    +0.000 C 
BRANCH  13  14
ATOM     14  C   UNL     1     -10.301  10.745  63.536  0.00  0.00    +0.000 C 
BRANCH  14  15
ATOM     15  C   UNL     1     -10.354  12.261  63.652  0.00  0.00    +0.000 C 
BRANCH  15  16
ATOM     16  C   UNL     1     -11.831  12.634  63.577  0.00  0.00    +0.000 C 
BRANCH  16  17
ATOM     17  C   UNL     1     -12.053  13.713  64.611  0.00  0.00    +0.000 C 
BRANCH  17  18
ATOM     18  C   UNL     1     -10.706  14.253  65.067  0.00  0.00    +0.000 C 
BRANCH  18  19
ATOM     19  C   UNL     1     -10.813  15.771  65.027  0.00  0.00    +0.000 C 
BRANCH  19  20
ATOM     20  C   UNL     1     -10.351  16.284  66.384  0.00  0.00    +0.000 C 
BRANCH  20  22
ATOM     21  C   UNL     1      -8.685  18.085  66.568  0.00  0.00    +0.000 C 
ATOM     22  C   UNL     1     -10.159  17.775  66.336  0.00  0.00    +0.000 C 
ENDBRANCH  20  22
ENDBRANCH  19  20
ENDBRANCH  18  19
ENDBRANCH  17  18
ENDBRANCH  16  17
ENDBRANCH  15  16
ENDBRANCH  14  15
ENDBRANCH  13  14
ENDBRANCH   1  13
TORSDOF 15
ENDMDL
MODEL 5
REMARK VINA RESULT:      -4.4      1.832      4.710
REMARK  Name = 
REMARK  15 active torsions:
REMARK  status: ('A' for Active; 'I' for Inactive)
REMARK    1  A    between atoms: C_2  and  C_3
REMARK    2  A    between atoms: C_3  and  C_4
REMARK    3  A    between atoms: C_4  and  C_5
REMARK    4  A    between atoms: C_5  and  C_6
REMARK    5  A    between atoms: C_6  and  C_7
REMARK    6  A    between atoms: C_7  and  C_8
REMARK    7  A    between atoms: C_8  and  C_9
REMARK    8  A    between atoms: C_9  and  C_10
REMARK    9  A    between atoms: C_10  and  C_11
REMARK   10  A    between atoms: C_11  and  C_12
REMARK   11  A    between atoms: C_12  and  C_13
REMARK   12  A    between atoms: C_13  and  C_14
REMARK   13  A    between atoms: C_14  and  C_15
REMARK   14  A    between atoms: C_15  and  C_16
REMARK   15  A    between atoms: C_16  and  N_17
REMARK                            x       y       z     vdW  Elec       q    Type
REMARK                         _______ _______ _______ _____ _____    ______ ____
ROOT
ATOM      1  C   UNL     1      -9.736  10.721  65.607  0.00  0.00    +0.000 C 
ENDROOT
BRANCH   1   2
ATOM      2  C   UNL     1     -10.303  10.622  64.220  0.00  0.00    +0.000 C 
BRANCH   2   3
ATOM      3  C   UNL     1     -10.610  11.980  63.620  0.00  0.00    +0.000 C 
BRANCH   3   4
ATOM      4  C   UNL     1     -12.120  12.153  63.505  0.00  0.00    +0.007 C 
BRANCH   4   5
ATOM      5  C   UNL     1     -12.694  12.819  64.737  0.00  0.00    +0.085 C 
BRANCH   5   6
ATOM      6  C   UNL     1     -12.099  14.178  64.994  0.00  0.00    +0.322 C 
BRANCH   6   7
ATOM      7  N   UNL     1     -11.213  14.194  66.142  0.00  0.00    -0.160 N 
ATOM      8  C   UNL     1     -11.679  13.905  67.381  0.00  0.00    +0.290 A 
ATOM      9  C   UNL     1     -10.769  13.850  68.429  0.00  0.00    +0.076 A 
ATOM     10  C   UNL     1      -9.427  13.607  68.171  0.00  0.00    +0.013 A 
ATOM     11  C   UNL     1      -8.968  14.089  66.952  0.00  0.00    +0.076 A 
ATOM     12  C   UNL     1      -9.899  14.464  65.994  0.00  0.00    +0.290 A 
ENDBRANCH   6   7
ENDBRANCH   5   6
ENDBRANCH   4   5
ENDBRANCH   3   4
ENDBRANCH   2   3
ENDBRANCH   1   2
BRANCH   1  13
ATOM     13  C   UNL     1     -10.803  10.454  66.648  0.00  0.00    +0.000 C 
BRANCH  13  14
ATOM     14  C   UNL     1     -10.433   9.210  67.437  0.00  0.00    +0.000 C 
BRANCH  14  15
ATOM     15  C   UNL     1      -9.138   9.531  68.167  0.00  0.00    +0.000 C 
BRANCH  15  16
ATOM     16  C   UNL     1      -9.551  10.105  69.518  0.00  0.00    +0.000 C 
BRANCH  16  17
ATOM     17  C   UNL     1     -10.210   8.977  70.278  0.00  0.00    +0.000 C 
BRANCH  17  18
ATOM     18  C   UNL     1     -11.324   9.543  71.147  0.00  0.00    +0.000 C 
BRANCH  18  19
ATOM     19  C   UNL     1     -11.769  10.841  70.487  0.00  0.00    +0.000 C 
BRANCH  19  20
ATOM     20  C   UNL     1     -12.849  11.442  71.376  0.00  0.00    +0.000 C 
BRANCH  20  22
ATOM     21  C   UNL     1     -13.654  13.535  72.387  0.00  0.00    +0.000 C 
ATOM     22  C   UNL     1     -12.870  12.938  71.224  0.00  0.00    +0.000 C 
ENDBRANCH  20  22
ENDBRANCH  19  20
ENDBRANCH  18  19
ENDBRANCH  17  18
ENDBRANCH  16  17
ENDBRANCH  15  16
ENDBRANCH  14  15
ENDBRANCH  13  14
ENDBRANCH   1  13
TORSDOF 15
ENDMDL
MODEL 6
REMARK VINA RESULT:      -4.4      1.832      5.702
REMARK  Name = 
REMARK  15 active torsions:
REMARK  status: ('A' for Active; 'I' for Inactive)
REMARK    1  A    between atoms: C_2  and  C_3
REMARK    2  A    between atoms: C_3  and  C_4
REMARK    3  A    between atoms: C_4  and  C_5
REMARK    4  A    between atoms: C_5  and  C_6
REMARK    5  A    between atoms: C_6  and  C_7
REMARK    6  A    between atoms: C_7  and  C_8
REMARK    7  A    between atoms: C_8  and  C_9
REMARK    8  A    between atoms: C_9  and  C_10
REMARK    9  A    between atoms: C_10  and  C_11
REMARK   10  A    between atoms: C_11  and  C_12
REMARK   11  A    between atoms: C_12  and  C_13
REMARK   12  A    between atoms: C_13  and  C_14
REMARK   13  A    between atoms: C_14  and  C_15
REMARK   14  A    between atoms: C_15  and  C_16
REMARK   15  A    between atoms: C_16  and  N_17
REMARK                            x       y       z     vdW  Elec       q    Type
REMARK                         _______ _______ _______ _____ _____    ______ ____
ROOT
ATOM      1  C   UNL     1     -12.413  12.586  64.688  0.00  0.00    +0.000 C 
ENDROOT
BRANCH   1   2
ATOM      2  C   UNL     1     -11.885  11.814  63.513  0.00  0.00    +0.000 C 
BRANCH   2   3
ATOM      3  C   UNL     1     -10.373  11.866  63.419  0.00  0.00    +0.000 C 
BRANCH   3   4
ATOM      4  C   UNL     1      -9.820  10.446  63.372  0.00  0.00    +0.007 C 
BRANCH   4   5
ATOM      5  C   UNL     1      -8.833  10.202  64.492  0.00  0.00    +0.085 C 
BRANCH   5   6
ATOM      6  C   UNL     1      -9.478   9.612  65.717  0.00  0.00    +0.322 C 
BRANCH   6   7
ATOM      7  N   UNL     1      -9.948  10.622  66.646  0.00  0.00    -0.160 N 
ATOM      8  C   UNL     1     -11.142  10.487  67.272  0.00  0.00    +0.290 A 
ATOM      9  C   UNL     1     -11.500  11.442  68.215  0.00  0.00    +0.076 A 
ATOM     10  C   UNL     1     -10.521  12.194  68.849  0.00  0.00    +0.013 A 
ATOM     11  C   UNL     1      -9.390  12.448  68.082  0.00  0.00    +0.076 A 
ATOM     12  C   UNL     1      -9.188  11.702  66.930  0.00  0.00    +0.290 A 
ENDBRANCH   6   7
ENDBRANCH   5   6
ENDBRANCH   4   5
ENDBRANCH   3   4
ENDBRANCH   2   3
ENDBRANCH   1   2
BRANCH   1  13
ATOM     13  C   UNL     1     -11.929  14.021  64.654  0.00  0.00    +0.000 C 
BRANCH  13  14
ATOM     14  C   UNL     1     -11.795  14.538  66.076  0.00  0.00    +0.000 C 
BRANCH  14  15
ATOM     15  C   UNL     1     -10.436  15.214  66.163  0.00  0.00    +0.000 C 
BRANCH  15  16
ATOM     16  C   UNL     1     -10.555  16.251  67.275  0.00  0.00    +0.000 C 
BRANCH  16  17
ATOM     17  C   UNL     1     -11.559  15.704  68.264  0.00  0.00    +0.000 C 
BRANCH  17  18
ATOM     18  C   UNL     1     -11.188  16.170  69.663  0.00  0.00    +0.000 C 
BRANCH  18  19
ATOM     19  C   UNL     1     -12.010  15.329  70.631  0.00  0.00    +0.000 C 
BRANCH  19  20
ATOM     20  C   UNL     1     -11.762  15.888  72.025  0.00  0.00    +0.000 C 
BRANCH  20  22
ATOM     21  C   UNL     1     -12.530  15.594  74.343  0.00  0.00    +0.000 C 
ATOM     22  C   UNL     1     -12.976  15.683  72.889  0.00  0.00    +0.000 C 
ENDBRANCH  20  22
ENDBRANCH  19  20
ENDBRANCH  18  19
ENDBRANCH  17  18
ENDBRANCH  16  17
ENDBRANCH  15  16
ENDBRANCH  14  15
ENDBRANCH  13  14
ENDBRANCH   1  13
TORSDOF 15
ENDMDL
MODEL 7
REMARK VINA RESULT:      -4.4      2.014      7.155
REMARK  Name = 
REMARK  15 active torsions:
REMARK  status: ('A' for Active; 'I' for Inactive)
REMARK    1  A    between atoms: C_2  and  C_3
REMARK    2  A    between atoms: C_3  and  C_4
REMARK    3  A    between atoms: C_4  and  C_5
REMARK    4  A    between atoms: C_5  and  C_6
REMARK    5  A    between atoms: C_6  and  C_7
REMARK    6  A    between atoms: C_7  and  C_8
REMARK    7  A    between atoms: C_8  and  C_9
REMARK    8  A    between atoms: C_9  and  C_10
REMARK    9  A    between atoms: C_10  and  C_11
REMARK   10  A    between atoms: C_11  and  C_12
REMARK   11  A    between atoms: C_12  and  C_13
REMARK   12  A    between atoms: C_13  and  C_14
REMARK   13  A    between atoms: C_14  and  C_15
REMARK   14  A    between atoms: C_15  and  C_16
REMARK   15  A    between atoms: C_16  and  N_17
REMARK                            x       y       z     vdW  Elec       q    Type
REMARK                         _______ _______ _______ _____ _____    ______ ____
ROOT
ATOM      1  C   UNL     1     -11.057   8.857  71.229  0.00  0.00    +0.000 C 
ENDROOT
BRANCH   1   2
ATOM      2  C   UNL     1     -10.396   7.994  70.193  0.00  0.00    +0.000 C 
BRANCH   2   3
ATOM      3  C   UNL     1      -9.820   8.803  69.048  0.00  0.00    +0.000 C 
BRANCH   3   4
ATOM      4  C   UNL     1      -9.883   7.981  67.766  0.00  0.00    +0.007 C 
BRANCH   4   5
ATOM      5  C   UNL     1     -10.291   8.833  66.584  0.00  0.00    +0.085 C 
BRANCH   5   6
ATOM      6  C   UNL     1     -10.086  10.304  66.830  0.00  0.00    +0.322 C 
BRANCH   6   7
ATOM      7  N   UNL     1     -10.656  11.132  65.785  0.00  0.00    -0.160 N 
ATOM      8  C   UNL     1     -10.358  10.908  64.482  0.00  0.00    +0.290 A 
ATOM      9  C   UNL     1     -11.001  11.676  63.520  0.00  0.00    +0.076 A 
ATOM     10  C   UNL     1     -12.220  12.274  63.809  0.00  0.00    +0.013 A 
ATOM     11  C   UNL     1     -12.391  12.643  65.138  0.00  0.00    +0.076 A 
ATOM     12  C   UNL     1     -11.524  12.122  66.087  0.00  0.00    +0.290 A 
ENDBRANCH   6   7
ENDBRANCH   5   6
ENDBRANCH   4   5
ENDBRANCH   3   4
ENDBRANCH   2   3
ENDBRANCH   1   2
BRANCH   1  13
ATOM     13  C   UNL     1     -11.937   9.905  70.579  0.00  0.00    +0.000 C 
BRANCH  13  14
ATOM     14  C   UNL     1     -12.817  10.547  71.638  0.00  0.00    +0.000 C 
BRANCH  14  15
ATOM     15  C   UNL     1     -12.941  12.016  71.263  0.00  0.00    +0.000 C 
BRANCH  15  16
ATOM     16  C   UNL     1     -12.026  12.219  70.060  0.00  0.00    +0.000 C 
BRANCH  16  17
ATOM     17  C   UNL     1     -12.025  13.702  69.769  0.00  0.00    +0.000 C 
BRANCH  17  18
ATOM     18  C   UNL     1     -11.901  14.468  71.077  0.00  0.00    +0.000 C 
BRANCH  18  19
ATOM     19  C   UNL     1     -12.970  15.552  71.045  0.00  0.00    +0.000 C 
BRANCH  19  20
ATOM     20  C   UNL     1     -13.754  15.439  72.346  0.00  0.00    +0.000 C 
BRANCH  20  22
ATOM     21  C   UNL     1     -12.463  16.174  74.306  0.00  0.00    +0.000 C 
ATOM     22  C   UNL     1     -12.852  14.972  73.455  0.00  0.00    +0.000 C 
ENDBRANCH  20  22
ENDBRANCH  19  20
ENDBRANCH  18  19
ENDBRANCH  17  18
ENDBRANCH  16  17
ENDBRANCH  15  16
ENDBRANCH  14  15
ENDBRANCH  13  14
ENDBRANCH   1  13
TORSDOF 15
ENDMDL
MODEL 8
REMARK VINA RESULT:      -4.4      2.567      5.547
REMARK  Name = 
REMARK  15 active torsions:
REMARK  status: ('A' for Active; 'I' for Inactive)
REMARK    1  A    between atoms: C_2  and  C_3
REMARK    2  A    between atoms: C_3  and  C_4
REMARK    3  A    between atoms: C_4  and  C_5
REMARK    4  A    between atoms: C_5  and  C_6
REMARK    5  A    between atoms: C_6  and  C_7
REMARK    6  A    between atoms: C_7  and  C_8
REMARK    7  A    between atoms: C_8  and  C_9
REMARK    8  A    between atoms: C_9  and  C_10
REMARK    9  A    between atoms: C_10  and  C_11
REMARK   10  A    between atoms: C_11  and  C_12
REMARK   11  A    between atoms: C_12  and  C_13
REMARK   12  A    between atoms: C_13  and  C_14
REMARK   13  A    between atoms: C_14  and  C_15
REMARK   14  A    between atoms: C_15  and  C_16
REMARK   15  A    between atoms: C_16  and  N_17
REMARK                            x       y       z     vdW  Elec       q    Type
REMARK                         _______ _______ _______ _____ _____    ______ ____
ROOT
ATOM      1  C   UNL     1     -10.701  10.261  68.232  0.00  0.00    +0.000 C 
ENDROOT
BRANCH   1   2
ATOM      2  C   UNL     1     -11.638  11.434  68.197  0.00  0.00    +0.000 C 
BRANCH   2   3
ATOM      3  C   UNL     1     -11.184  12.565  69.098  0.00  0.00    +0.000 C 
BRANCH   3   4
ATOM      4  C   UNL     1     -11.790  13.876  68.609  0.00  0.00    +0.007 C 
BRANCH   4   5
ATOM      5  C   UNL     1     -10.766  14.718  67.880  0.00  0.00    +0.085 C 
BRANCH   5   6
ATOM      6  C   UNL     1     -11.185  15.058  66.475  0.00  0.00    +0.322 C 
BRANCH   6   7
ATOM      7  N   UNL     1     -11.338  13.884  65.636  0.00  0.00    -0.160 N 
ATOM      8  C   UNL     1     -12.563  13.482  65.222  0.00  0.00    +0.290 A 
ATOM      9  C   UNL     1     -12.641  12.404  64.350  0.00  0.00    +0.076 A 
ATOM     10  C   UNL     1     -11.551  12.073  63.556  0.00  0.00    +0.013 A 
ATOM     11  C   UNL     1     -10.311  12.351  64.118  0.00  0.00    +0.076 A 
ATOM     12  C   UNL     1     -10.256  13.189  65.222  0.00  0.00    +0.290 A 
ENDBRANCH   6   7
ENDBRANCH   5   6
ENDBRANCH   4   5
ENDBRANCH   3   4
ENDBRANCH   2   3
ENDBRANCH   1   2
BRANCH   1  13
ATOM     13  C   UNL     1     -10.385   9.779  66.831  0.00  0.00    +0.000 C 
BRANCH  13  14
ATOM     14  C   UNL     1     -10.434   8.262  66.800  0.00  0.00    +0.000 C 
BRANCH  14  15
ATOM     15  C   UNL     1     -10.398   7.799  68.249  0.00  0.00    +0.000 C 
BRANCH  15  16
ATOM     16  C   UNL     1     -10.933   6.372  68.245  0.00  0.00    +0.000 C 
BRANCH  16  17
ATOM     17  C   UNL     1     -11.042   5.952  69.693  0.00  0.00    +0.000 C 
BRANCH  17  18
ATOM     18  C   UNL     1     -11.318   7.179  70.550  0.00  0.00    +0.000 C 
BRANCH  18  19
ATOM     19  C   UNL     1     -12.558   6.860  71.374  0.00  0.00    +0.000 C 
BRANCH  19  20
ATOM     20  C   UNL     1     -13.210   8.190  71.727  0.00  0.00    +0.000 C 
BRANCH  20  22
ATOM     21  C   UNL     1     -12.998  10.638  71.626  0.00  0.00    +0.000 C 
ATOM     22  C   UNL     1     -12.249   9.319  71.478  0.00  0.00    +0.000 C 
ENDBRANCH  20  22
ENDBRANCH  19  20
ENDBRANCH  18  19
ENDBRANCH  17  18
ENDBRANCH  16  17
ENDBRANCH  15  16
ENDBRANCH  14  15
ENDBRANCH  13  14
ENDBRANCH   1  13
TORSDOF 15
ENDMDL
MODEL 9
REMARK VINA RESULT:      -4.3      2.003      5.043
REMARK  Name = 
REMARK  15 active torsions:
REMARK  status: ('A' for Active; 'I' for Inactive)
REMARK    1  A    between atoms: C_2  and  C_3
REMARK    2  A    between atoms: C_3  and  C_4
REMARK    3  A    between atoms: C_4  and  C_5
REMARK    4  A    between atoms: C_5  and  C_6
REMARK    5  A    between atoms: C_6  and  C_7
REMARK    6  A    between atoms: C_7  and  C_8
REMARK    7  A    between atoms: C_8  and  C_9
REMARK    8  A    between atoms: C_9  and  C_10
REMARK    9  A    between atoms: C_10  and  C_11
REMARK   10  A    between atoms: C_11  and  C_12
REMARK   11  A    between atoms: C_12  and  C_13
REMARK   12  A    between atoms: C_13  and  C_14
REMARK   13  A    between atoms: C_14  and  C_15
REMARK   14  A    between atoms: C_15  and  C_16
REMARK   15  A    between atoms: C_16  and  N_17
REMARK                            x       y       z     vdW  Elec       q    Type
REMARK                         _______ _______ _______ _____ _____    ______ ____
ROOT
ATOM      1  C   UNL     1      -9.529  10.790  65.463  0.00  0.00    +0.000 C 
ENDROOT
BRANCH   1   2
ATOM      2  C   UNL     1      -9.536   9.605  66.385  0.00  0.00    +0.000 C 
BRANCH   2   3
ATOM      3  C   UNL     1     -10.747   9.587  67.297  0.00  0.00    +0.000 C 
BRANCH   3   4
ATOM      4  C   UNL     1     -10.944  10.971  67.904  0.00  0.00    +0.007 C 
BRANCH   4   5
ATOM      5  C   UNL     1     -11.849  10.918  69.116  0.00  0.00    +0.085 C 
BRANCH   5   6
ATOM      6  C   UNL     1     -11.193  10.264  70.303  0.00  0.00    +0.322 C 
BRANCH   6   7
ATOM      7  N   UNL     1     -12.049   9.288  70.950  0.00  0.00    -0.160 N 
ATOM      8  C   UNL     1     -13.248   9.651  71.465  0.00  0.00    +0.290 A 
ATOM      9  C   UNL     1     -14.064   8.659  71.994  0.00  0.00    +0.076 A 
ATOM     10  C   UNL     1     -13.910   7.342  71.584  0.00  0.00    +0.013 A 
ATOM     11  C   UNL     1     -12.612   6.984  71.236  0.00  0.00    +0.076 A 
ATOM     12  C   UNL     1     -11.683   7.991  71.020  0.00  0.00    +0.290 A 
ENDBRANCH   6   7
ENDBRANCH   5   6
ENDBRANCH   4   5
ENDBRANCH   3   4
ENDBRANCH   2   3
ENDBRANCH   1   2
BRANCH   1  13
ATOM     13  C   UNL     1      -9.998  10.399  64.076  0.00  0.00    +0.000 C 
BRANCH  13  14
ATOM     14  C   UNL     1     -11.008  11.420  63.583  0.00  0.00    +0.000 C 
BRANCH  14  15
ATOM     15  C   UNL     1     -10.956  12.585  64.559  0.00  0.00    +0.000 C 
BRANCH  15  16
ATOM     16  C   UNL     1     -12.407  12.908  64.900  0.00  0.00    +0.000 C 
BRANCH  16  17
ATOM     17  C   UNL     1     -12.374  13.750  66.155  0.00  0.00    +0.000 C 
BRANCH  17  18
ATOM     18  C   UNL     1     -11.127  14.621  66.141  0.00  0.00    +0.000 C 
BRANCH  18  19
ATOM     19  C   UNL     1     -10.609  14.657  67.573  0.00  0.00    +0.000 C 
BRANCH  19  20
ATOM     20  C   UNL     1     -11.829  14.675  68.484  0.00  0.00    +0.000 C 
BRANCH  20  22
ATOM     21  C   UNL     1     -12.557  14.170  70.779  0.00  0.00    +0.000 C 
ATOM     22  C   UNL     1     -11.398  14.672  69.925  0.00  0.00    +0.000 C 
ENDBRANCH  20  22
ENDBRANCH  19  20
ENDBRANCH  18  19
ENDBRANCH  17  18
ENDBRANCH  16  17
ENDBRANCH  15  16
ENDBRANCH  14  15
ENDBRANCH  13  14
ENDBRANCH   1  13
TORSDOF 15
ENDMDL
