MODEL 1
REMARK VINA RESULT:      -7.7      0.000      0.000
REMARK  Name = 
REMARK  6 active torsions:
REMARK  status: ('A' for Active; 'I' for Inactive)
REMARK    1  A    between atoms: C_5  and  C_6
REMARK    2  A    between atoms: C_9  and  C_10
REMARK    3  A    between atoms: C_13  and  N_14
REMARK    4  A    between atoms: C_16  and  C_17
REMARK    5  A    between atoms: C_17  and  O_18
REMARK    6  A    between atoms: O_18  and  P_19
REMARK                            x       y       z     vdW  Elec       q    Type
REMARK                         _______ _______ _______ _____ _____    ______ ____
ROOT
ATOM      1  C   UNL     1     -11.476  11.768  69.097  0.00  0.00    +0.029 A 
ATOM      2  C   UNL     1     -11.659  11.657  67.724  0.00  0.00    +0.141 A 
ATOM      3  F   UNL     1     -11.271  10.492  67.142  0.00  0.00    -0.204 F 
ATOM      4  C   UNL     1     -11.748  12.793  66.965  0.00  0.00    +0.045 A 
ATOM      5  C   UNL     1     -11.797  14.073  67.505  0.00  0.00    +0.059 A 
ATOM      6  C   UNL     1     -12.042  14.105  68.874  0.00  0.00    +0.015 A 
ATOM      7  C   UNL     1     -11.934  12.957  69.651  0.00  0.00    +0.004 A 
ENDROOT
BRANCH   1  11
ATOM      8  C   UNL     1     -10.689   8.710  71.935  0.00  0.00    +0.120 A 
ATOM      9  N   UNL     1      -9.775   9.158  71.066  0.00  0.00    -0.241 NA
ATOM     10  C   UNL     1     -10.097   9.956  70.018  0.00  0.00    +0.099 A 
ATOM     11  C   UNL     1     -11.349  10.546  69.903  0.00  0.00    +0.021 A 
ATOM     12  C   UNL     1     -12.243  10.251  70.926  0.00  0.00    +0.003 A 
ATOM     13  C   UNL     1     -11.978   9.201  71.782  0.00  0.00    +0.022 A 
BRANCH   8  17
ATOM     14  C   UNL     1      -9.813   5.745  75.616  0.00  0.00    +0.180 C 
ATOM     15  N   UNL     1     -10.064   6.086  74.245  0.00  0.00    -0.149 N 
ATOM     16  N   UNL     1      -9.585   7.093  73.520  0.00  0.00    -0.128 NA
ATOM     17  C   UNL     1     -10.450   7.382  72.517  0.00  0.00    +0.223 A 
ATOM     18  N   UNL     1     -11.350   6.371  72.567  0.00  0.00    -0.106 NA
ATOM     19  N   UNL     1     -10.910   5.456  73.430  0.00  0.00    -0.045 NA
ENDBRANCH   8  17
ENDBRANCH   1  11
BRANCH   5  20
ATOM     20  N   UNL     1     -11.160  15.188  66.868  0.00  0.00    -0.221 N 
ATOM     21  C   UNL     1     -10.939  15.347  65.459  0.00  0.00    +0.409 C 
ATOM     22  O   UNL     1     -11.815  14.998  64.610  0.00  0.00    -0.226 OA
ATOM     23  O   UNL     1      -9.683  15.890  65.227  0.00  0.00    -0.434 OA
ATOM     24  C   UNL     1      -8.940  15.209  66.428  0.00  0.00    +0.221 C 
ATOM     25  C   UNL     1     -10.036  15.863  67.517  0.00  0.00    +0.148 C 
BRANCH  24  26
ATOM     26  C   UNL     1      -7.891  16.505  66.598  0.00  0.00    +0.199 C 
BRANCH  26  27
ATOM     27  O   UNL     1      -8.378  17.475  65.766  0.00  0.00    -0.266 OA
BRANCH  27  28
ATOM     28  P   UNL     1      -8.286  19.035  66.395  0.00  0.00    +0.533 P 
ATOM     29  O   UNL     1      -7.863  18.925  68.014  0.00  0.00    -0.115 OA
ATOM     30  O   UNL     1      -9.830  19.722  66.203  0.00  0.00    -0.115 OA
ATOM     31  O   UNL     1      -7.249  19.804  65.611  0.00  0.00    -0.222 OA
ENDBRANCH  27  28
ENDBRANCH  26  27
ENDBRANCH  24  26
ENDBRANCH   5  20
TORSDOF 6
ENDMDL
MODEL 2
REMARK VINA RESULT:      -7.7      0.962      1.167
REMARK  Name = 
REMARK  6 active torsions:
REMARK  status: ('A' for Active; 'I' for Inactive)
REMARK    1  A    between atoms: C_5  and  C_6
REMARK    2  A    between atoms: C_9  and  C_10
REMARK    3  A    between atoms: C_13  and  N_14
REMARK    4  A    between atoms: C_16  and  C_17
REMARK    5  A    between atoms: C_17  and  O_18
REMARK    6  A    between atoms: O_18  and  P_19
REMARK                            x       y       z     vdW  Elec       q    Type
REMARK                         _______ _______ _______ _____ _____    ______ ____
ROOT
ATOM      1  C   UNL     1     -11.648  11.952  69.171  0.00  0.00    +0.029 A 
ATOM      2  C   UNL     1     -11.780  11.886  67.789  0.00  0.00    +0.141 A 
ATOM      3  F   UNL     1     -11.492  10.698  67.197  0.00  0.00    -0.204 F 
ATOM      4  C   UNL     1     -11.715  13.039  67.053  0.00  0.00    +0.045 A 
ATOM      5  C   UNL     1     -11.653  14.306  67.620  0.00  0.00    +0.059 A 
ATOM      6  C   UNL     1     -11.954  14.340  68.977  0.00  0.00    +0.015 A 
ATOM      7  C   UNL     1     -12.001  13.173  69.732  0.00  0.00    +0.004 A 
ENDROOT
BRANCH   1  11
ATOM      8  C   UNL     1     -11.350   8.789  71.988  0.00  0.00    +0.120 A 
ATOM      9  N   UNL     1     -10.331   9.182  71.215  0.00  0.00    -0.241 NA
ATOM     10  C   UNL     1     -10.496  10.022  70.163  0.00  0.00    +0.099 A 
ATOM     11  C   UNL     1     -11.686  10.709  69.954  0.00  0.00    +0.021 A 
ATOM     12  C   UNL     1     -12.687  10.464  70.886  0.00  0.00    +0.003 A 
ATOM     13  C   UNL     1     -12.580   9.381  71.734  0.00  0.00    +0.022 A 
BRANCH   8  17
ATOM     14  C   UNL     1     -10.042   4.166  71.849  0.00  0.00    +0.180 C 
ATOM     15  N   UNL     1     -10.625   5.342  72.431  0.00  0.00    -0.149 N 
ATOM     16  N   UNL     1     -11.391   6.273  71.871  0.00  0.00    -0.128 NA
ATOM     17  C   UNL     1     -11.265   7.437  72.555  0.00  0.00    +0.223 A 
ATOM     18  N   UNL     1     -10.552   7.088  73.653  0.00  0.00    -0.106 NA
ATOM     19  N   UNL     1     -10.446   5.760  73.683  0.00  0.00    -0.045 NA
ENDBRANCH   8  17
ENDBRANCH   1  11
BRANCH   5  20
ATOM     20  N   UNL     1     -10.875  15.360  67.036  0.00  0.00    -0.221 N 
ATOM     21  C   UNL     1     -10.608  15.541  65.637  0.00  0.00    +0.409 C 
ATOM     22  O   UNL     1     -11.501  15.330  64.762  0.00  0.00    -0.226 OA
ATOM     23  O   UNL     1      -9.292  15.937  65.446  0.00  0.00    -0.434 OA
ATOM     24  C   UNL     1      -8.659  15.129  66.632  0.00  0.00    +0.221 C 
ATOM     25  C   UNL     1      -9.692  15.871  67.727  0.00  0.00    +0.148 C 
BRANCH  24  26
ATOM     26  C   UNL     1      -7.467  16.283  66.868  0.00  0.00    +0.199 C 
BRANCH  26  27
ATOM     27  O   UNL     1      -8.129  17.405  67.285  0.00  0.00    -0.266 OA
BRANCH  27  28
ATOM     28  P   UNL     1      -7.676  18.814  66.479  0.00  0.00    +0.533 P 
ATOM     29  O   UNL     1      -6.727  19.730  67.513  0.00  0.00    -0.115 OA
ATOM     30  O   UNL     1      -9.117  19.622  66.079  0.00  0.00    -0.115 OA
ATOM     31  O   UNL     1      -6.909  18.425  65.236  0.00  0.00    -0.222 OA
ENDBRANCH  27  28
ENDBRANCH  26  27
ENDBRANCH  24  26
ENDBRANCH   5  20
TORSDOF 6
ENDMDL
MODEL 3
REMARK VINA RESULT:      -7.6      1.562      2.105
REMARK  Name = 
REMARK  6 active torsions:
REMARK  status: ('A' for Active; 'I' for Inactive)
REMARK    1  A    between atoms: C_5  and  C_6
REMARK    2  A    between atoms: C_9  and  C_10
REMARK    3  A    between atoms: C_13  and  N_14
REMARK    4  A    between atoms: C_16  and  C_17
REMARK    5  A    between atoms: C_17  and  O_18
REMARK    6  A    between atoms: O_18  and  P_19
REMARK                            x       y       z     vdW  Elec       q    Type
REMARK                         _______ _______ _______ _____ _____    ______ ____
ROOT
ATOM      1  C   UNL     1     -11.558  12.942  68.956  0.00  0.00    +0.029 A 
ATOM      2  C   UNL     1     -11.692  13.033  67.575  0.00  0.00    +0.141 A 
ATOM      3  F   UNL     1     -11.511  11.893  66.861  0.00  0.00    -0.204 F 
ATOM      4  C   UNL     1     -11.522  14.247  66.964  0.00  0.00    +0.045 A 
ATOM      5  C   UNL     1     -11.347  15.437  67.660  0.00  0.00    +0.059 A 
ATOM      6  C   UNL     1     -11.647  15.355  69.015  0.00  0.00    +0.015 A 
ATOM      7  C   UNL     1     -11.802  14.124  69.645  0.00  0.00    +0.004 A 
ENDROOT
BRANCH   1  11
ATOM      8  C   UNL     1     -11.433   9.434  71.343  0.00  0.00    +0.120 A 
ATOM      9  N   UNL     1     -10.492   9.743  70.443  0.00  0.00    -0.241 NA
ATOM     10  C   UNL     1     -10.657  10.730  69.528  0.00  0.00    +0.099 A 
ATOM     11  C   UNL     1     -11.710  11.633  69.604  0.00  0.00    +0.021 A 
ATOM     12  C   UNL     1     -12.580  11.444  70.672  0.00  0.00    +0.003 A 
ATOM     13  C   UNL     1     -12.550  10.256  71.375  0.00  0.00    +0.022 A 
BRANCH   8  17
ATOM     14  C   UNL     1     -10.166   4.807  71.035  0.00  0.00    +0.180 C 
ATOM     15  N   UNL     1     -10.885   5.932  71.562  0.00  0.00    -0.149 N 
ATOM     16  N   UNL     1     -11.453   6.950  70.923  0.00  0.00    -0.128 NA
ATOM     17  C   UNL     1     -11.520   8.024  71.747  0.00  0.00    +0.223 A 
ATOM     18  N   UNL     1     -11.152   7.527  72.953  0.00  0.00    -0.106 NA
ATOM     19  N   UNL     1     -11.067   6.201  72.855  0.00  0.00    -0.045 NA
ENDBRANCH   8  17
ENDBRANCH   1  11
BRANCH   5  20
ATOM     20  N   UNL     1     -10.475  16.472  67.184  0.00  0.00    -0.221 N 
ATOM     21  C   UNL     1     -10.070  16.679  65.823  0.00  0.00    +0.409 C 
ATOM     22  O   UNL     1     -10.884  16.529  64.862  0.00  0.00    -0.226 OA
ATOM     23  O   UNL     1      -8.727  17.024  65.768  0.00  0.00    -0.434 OA
ATOM     24  C   UNL     1      -8.243  16.158  66.983  0.00  0.00    +0.221 C 
ATOM     25  C   UNL     1      -9.344  16.913  67.999  0.00  0.00    +0.148 C 
BRANCH  24  26
ATOM     26  C   UNL     1      -7.033  17.254  67.365  0.00  0.00    +0.199 C 
BRANCH  26  27
ATOM     27  O   UNL     1      -7.631  18.483  67.315  0.00  0.00    -0.266 OA
BRANCH  27  28
ATOM     28  P   UNL     1      -6.719  19.723  68.000  0.00  0.00    +0.533 P 
ATOM     29  O   UNL     1      -7.181  21.170  67.291  0.00  0.00    -0.115 OA
ATOM     30  O   UNL     1      -5.091  19.361  67.669  0.00  0.00    -0.115 OA
ATOM     31  O   UNL     1      -6.980  19.738  69.489  0.00  0.00    -0.222 OA
ENDBRANCH  27  28
ENDBRANCH  26  27
ENDBRANCH  24  26
ENDBRANCH   5  20
TORSDOF 6
ENDMDL
MODEL 4
REMARK VINA RESULT:      -7.5      2.445      3.207
REMARK  Name = 
REMARK  6 active torsions:
REMARK  status: ('A' for Active; 'I' for Inactive)
REMARK    1  A    between atoms: C_5  and  C_6
REMARK    2  A    between atoms: C_9  and  C_10
REMARK    3  A    between atoms: C_13  and  N_14
REMARK    4  A    between atoms: C_16  and  C_17
REMARK    5  A    between atoms: C_17  and  O_18
REMARK    6  A    between atoms: O_18  and  P_19
REMARK                            x       y       z     vdW  Elec       q    Type
REMARK                         _______ _______ _______ _____ _____    ______ ____
ROOT
ATOM      1  C   UNL     1     -11.851  10.226  70.996  0.00  0.00    +0.029 A 
ATOM      2  C   UNL     1     -11.576  10.693  69.716  0.00  0.00    +0.141 A 
ATOM      3  F   UNL     1     -10.733   9.949  68.955  0.00  0.00    -0.204 F 
ATOM      4  C   UNL     1     -11.737  12.024  69.438  0.00  0.00    +0.045 A 
ATOM      5  C   UNL     1     -12.289  12.932  70.335  0.00  0.00    +0.059 A 
ATOM      6  C   UNL     1     -12.933  12.344  71.418  0.00  0.00    +0.015 A 
ATOM      7  C   UNL     1     -12.756  10.997  71.715  0.00  0.00    +0.004 A 
ENDROOT
BRANCH   1  11
ATOM      8  C   UNL     1     -11.441   6.329  72.629  0.00  0.00    +0.120 A 
ATOM      9  N   UNL     1     -10.520   7.289  72.780  0.00  0.00    -0.241 NA
ATOM     10  C   UNL     1     -10.546   8.441  72.065  0.00  0.00    +0.099 A 
ATOM     11  C   UNL     1     -11.646   8.804  71.298  0.00  0.00    +0.021 A 
ATOM     12  C   UNL     1     -12.703   7.901  71.308  0.00  0.00    +0.003 A 
ATOM     13  C   UNL     1     -12.503   6.621  71.785  0.00  0.00    +0.022 A 
BRANCH   8  17
ATOM     14  C   UNL     1      -8.163   2.822  72.383  0.00  0.00    +0.180 C 
ATOM     15  N   UNL     1      -9.440   3.396  72.698  0.00  0.00    -0.149 N 
ATOM     16  N   UNL     1     -10.187   4.239  71.991  0.00  0.00    -0.128 NA
ATOM     17  C   UNL     1     -10.989   4.945  72.826  0.00  0.00    +0.223 A 
ATOM     18  N   UNL     1     -10.822   4.335  74.024  0.00  0.00    -0.106 NA
ATOM     19  N   UNL     1     -10.111   3.224  73.836  0.00  0.00    -0.045 NA
ENDBRANCH   8  17
ENDBRANCH   1  11
BRANCH   5  20
ATOM     20  N   UNL     1     -11.816  14.283  70.432  0.00  0.00    -0.221 N 
ATOM     21  C   UNL     1     -12.628  15.466  70.445  0.00  0.00    +0.409 C 
ATOM     22  O   UNL     1     -13.729  15.505  71.074  0.00  0.00    -0.226 OA
ATOM     23  O   UNL     1     -12.035  16.464  69.685  0.00  0.00    -0.434 OA
ATOM     24  C   UNL     1     -11.387  15.537  68.598  0.00  0.00    +0.221 C 
ATOM     25  C   UNL     1     -10.567  14.674  69.780  0.00  0.00    +0.148 C 
BRANCH  24  26
ATOM     26  C   UNL     1     -10.101  16.588  68.375  0.00  0.00    +0.199 C 
BRANCH  26  27
ATOM     27  O   UNL     1      -9.878  16.604  67.025  0.00  0.00    -0.266 OA
BRANCH  27  28
ATOM     28  P   UNL     1     -10.158  18.097  66.297  0.00  0.00    +0.533 P 
ATOM     29  O   UNL     1     -11.046  19.043  67.359  0.00  0.00    -0.115 OA
ATOM     30  O   UNL     1     -11.028  17.780  64.871  0.00  0.00    -0.115 OA
ATOM     31  O   UNL     1      -8.822  18.733  65.988  0.00  0.00    -0.222 OA
ENDBRANCH  27  28
ENDBRANCH  26  27
ENDBRANCH  24  26
ENDBRANCH   5  20
TORSDOF 6
ENDMDL
MODEL 5
REMARK VINA RESULT:      -7.3      1.240      1.638
REMARK  Name = 
REMARK  6 active torsions:
REMARK  status: ('A' for Active; 'I' for Inactive)
REMARK    1  A    between atoms: C_5  and  C_6
REMARK    2  A    between atoms: C_9  and  C_10
REMARK    3  A    between atoms: C_13  and  N_14
REMARK    4  A    between atoms: C_16  and  C_17
REMARK    5  A    between atoms: C_17  and  O_18
REMARK    6  A    between atoms: O_18  and  P_19
REMARK                            x       y       z     vdW  Elec       q    Type
REMARK                         _______ _______ _______ _____ _____    ______ ____
ROOT
ATOM      1  C   UNL     1     -11.286  11.226  69.011  0.00  0.00    +0.029 A 
ATOM      2  C   UNL     1     -11.390  10.975  67.647  0.00  0.00    +0.141 A 
ATOM      3  F   UNL     1     -11.121   9.711  67.230  0.00  0.00    -0.204 F 
ATOM      4  C   UNL     1     -11.280  12.015  66.763  0.00  0.00    +0.045 A 
ATOM      5  C   UNL     1     -11.198  13.346  67.155  0.00  0.00    +0.059 A 
ATOM      6  C   UNL     1     -11.526  13.572  68.487  0.00  0.00    +0.015 A 
ATOM      7  C   UNL     1     -11.619  12.520  69.392  0.00  0.00    +0.004 A 
ENDROOT
BRANCH   1  11
ATOM      8  C   UNL     1     -11.155   8.482  72.247  0.00  0.00    +0.120 A 
ATOM      9  N   UNL     1     -10.094   8.764  71.481  0.00  0.00    -0.241 NA
ATOM     10  C   UNL     1     -10.200   9.451  70.317  0.00  0.00    +0.099 A 
ATOM     11  C   UNL     1     -11.372  10.103  69.954  0.00  0.00    +0.021 A 
ATOM     12  C   UNL     1     -12.422   9.989  70.858  0.00  0.00    +0.003 A 
ATOM     13  C   UNL     1     -12.366   9.033  71.852  0.00  0.00    +0.022 A 
BRANCH   8  17
ATOM     14  C   UNL     1     -10.333   3.761  72.638  0.00  0.00    +0.180 C 
ATOM     15  N   UNL     1     -10.700   5.067  73.109  0.00  0.00    -0.149 N 
ATOM     16  N   UNL     1     -11.454   5.996  72.529  0.00  0.00    -0.128 NA
ATOM     17  C   UNL     1     -11.108   7.220  72.998  0.00  0.00    +0.223 A 
ATOM     18  N   UNL     1     -10.263   6.945  74.021  0.00  0.00    -0.106 NA
ATOM     19  N   UNL     1     -10.281   5.631  74.241  0.00  0.00    -0.045 NA
ENDBRANCH   8  17
ENDBRANCH   1  11
BRANCH   5  20
ATOM     20  N   UNL     1     -10.380  14.292  66.452  0.00  0.00    -0.221 N 
ATOM     21  C   UNL     1      -9.017  14.625  66.755  0.00  0.00    +0.409 C 
ATOM     22  O   UNL     1      -8.184  13.736  67.108  0.00  0.00    -0.226 OA
ATOM     23  O   UNL     1      -8.813  15.991  66.618  0.00  0.00    -0.434 OA
ATOM     24  C   UNL     1     -10.234  16.458  67.091  0.00  0.00    +0.221 C 
ATOM     25  C   UNL     1     -10.969  15.517  65.913  0.00  0.00    +0.148 C 
BRANCH  24  26
ATOM     26  C   UNL     1     -10.195  17.803  66.092  0.00  0.00    +0.199 C 
BRANCH  26  27
ATOM     27  O   UNL     1      -8.889  18.209  66.084  0.00  0.00    -0.266 OA
BRANCH  27  28
ATOM     28  P   UNL     1      -8.573  19.540  67.067  0.00  0.00    +0.533 P 
ATOM     29  O   UNL     1      -8.217  18.984  68.608  0.00  0.00    -0.115 OA
ATOM     30  O   UNL     1      -9.984  20.489  67.059  0.00  0.00    -0.115 OA
ATOM     31  O   UNL     1      -7.406  20.299  66.478  0.00  0.00    -0.222 OA
ENDBRANCH  27  28
ENDBRANCH  26  27
ENDBRANCH  24  26
ENDBRANCH   5  20
TORSDOF 6
ENDMDL
MODEL 6
REMARK VINA RESULT:      -7.2      6.437     11.871
REMARK  Name = 
REMARK  6 active torsions:
REMARK  status: ('A' for Active; 'I' for Inactive)
REMARK    1  A    between atoms: C_5  and  C_6
REMARK    2  A    between atoms: C_9  and  C_10
REMARK    3  A    between atoms: C_13  and  N_14
REMARK    4  A    between atoms: C_16  and  C_17
REMARK    5  A    between atoms: C_17  and  O_18
REMARK    6  A    between atoms: O_18  and  P_19
REMARK                            x       y       z     vdW  Elec       q    Type
REMARK                         _______ _______ _______ _____ _____    ______ ____
ROOT
ATOM      1  C   UNL     1      -8.039  19.152  66.742  0.00  0.00    +0.029 A 
ATOM      2  C   UNL     1      -7.741  18.323  67.817  0.00  0.00    +0.141 A 
ATOM      3  F   UNL     1      -6.461  17.881  67.921  0.00  0.00    -0.204 F 
ATOM      4  C   UNL     1      -8.749  17.616  68.418  0.00  0.00    +0.045 A 
ATOM      5  C   UNL     1     -10.092  17.776  68.099  0.00  0.00    +0.059 A 
ATOM      6  C   UNL     1     -10.367  18.907  67.337  0.00  0.00    +0.015 A 
ATOM      7  C   UNL     1      -9.348  19.616  66.709  0.00  0.00    +0.004 A 
ENDROOT
BRANCH   1  11
ATOM      8  C   UNL     1      -4.417  20.888  65.367  0.00  0.00    +0.120 A 
ATOM      9  N   UNL     1      -5.041  21.280  66.484  0.00  0.00    -0.241 NA
ATOM     10  C   UNL     1      -6.304  20.890  66.788  0.00  0.00    +0.099 A 
ATOM     11  C   UNL     1      -6.950  19.884  66.081  0.00  0.00    +0.021 A 
ATOM     12  C   UNL     1      -6.217  19.320  65.043  0.00  0.00    +0.003 A 
ATOM     13  C   UNL     1      -5.084  19.959  64.582  0.00  0.00    +0.022 A 
BRANCH   8  17
ATOM     14  C   UNL     1      -3.222  24.357  62.261  0.00  0.00    +0.180 C 
ATOM     15  N   UNL     1      -2.999  23.433  63.336  0.00  0.00    -0.149 N 
ATOM     16  N   UNL     1      -3.382  22.166  63.458  0.00  0.00    -0.128 NA
ATOM     17  C   UNL     1      -3.471  21.842  64.771  0.00  0.00    +0.223 A 
ATOM     18  N   UNL     1      -2.929  22.911  65.403  0.00  0.00    -0.106 NA
ATOM     19  N   UNL     1      -2.388  23.713  64.487  0.00  0.00    -0.045 NA
ENDBRANCH   8  17
ENDBRANCH   1  11
BRANCH   5  20
ATOM     20  N   UNL     1     -11.005  16.670  68.088  0.00  0.00    -0.221 N 
ATOM     21  C   UNL     1     -11.440  15.919  69.230  0.00  0.00    +0.409 C 
ATOM     22  O   UNL     1     -11.697  16.488  70.335  0.00  0.00    -0.226 OA
ATOM     23  O   UNL     1     -11.501  14.567  68.924  0.00  0.00    -0.434 OA
ATOM     24  C   UNL     1     -10.289  14.528  67.929  0.00  0.00    +0.221 C 
ATOM     25  C   UNL     1     -10.993  15.718  66.978  0.00  0.00    +0.148 C 
BRANCH  24  26
ATOM     26  C   UNL     1     -10.985  13.298  67.028  0.00  0.00    +0.199 C 
BRANCH  26  27
ATOM     27  O   UNL     1     -12.036  13.880  66.374  0.00  0.00    -0.266 OA
BRANCH  27  28
ATOM     28  P   UNL     1     -12.155  13.460  64.747  0.00  0.00    +0.533 P 
ATOM     29  O   UNL     1     -10.657  12.906  64.235  0.00  0.00    -0.115 OA
ATOM     30  O   UNL     1     -12.610  14.873  63.919  0.00  0.00    -0.115 OA
ATOM     31  O   UNL     1     -13.209  12.386  64.609  0.00  0.00    -0.222 OA
ENDBRANCH  27  28
ENDBRANCH  26  27
ENDBRANCH  24  26
ENDBRANCH   5  20
TORSDOF 6
ENDMDL
MODEL 7
REMARK VINA RESULT:      -7.2      6.924     10.899
REMARK  Name = 
REMARK  6 active torsions:
REMARK  status: ('A' for Active; 'I' for Inactive)
REMARK    1  A    between atoms: C_5  and  C_6
REMARK    2  A    between atoms: C_9  and  C_10
REMARK    3  A    between atoms: C_13  and  N_14
REMARK    4  A    between atoms: C_16  and  C_17
REMARK    5  A    between atoms: C_17  and  O_18
REMARK    6  A    between atoms: O_18  and  P_19
REMARK                            x       y       z     vdW  Elec       q    Type
REMARK                         _______ _______ _______ _____ _____    ______ ____
ROOT
ATOM      1  C   UNL     1     -11.507  11.947  69.577  0.00  0.00    +0.029 A 
ATOM      2  C   UNL     1     -12.388  11.752  70.634  0.00  0.00    +0.141 A 
ATOM      3  F   UNL     1     -12.877  12.864  71.242  0.00  0.00    -0.204 F 
ATOM      4  C   UNL     1     -12.367  10.565  71.316  0.00  0.00    +0.045 A 
ATOM      5  C   UNL     1     -11.595   9.475  70.930  0.00  0.00    +0.059 A 
ATOM      6  C   UNL     1     -11.071   9.572  69.646  0.00  0.00    +0.015 A 
ATOM      7  C   UNL     1     -11.074  10.781  68.958  0.00  0.00    +0.004 A 
ENDROOT
BRANCH   1  11
ATOM      8  C   UNL     1     -10.747  15.488  67.363  0.00  0.00    +0.120 A 
ATOM      9  N   UNL     1     -10.317  15.300  68.616  0.00  0.00    -0.241 NA
ATOM     10  C   UNL     1     -10.760  14.279  69.392  0.00  0.00    +0.099 A 
ATOM     11  C   UNL     1     -11.511  13.234  68.869  0.00  0.00    +0.021 A 
ATOM     12  C   UNL     1     -11.783  13.317  67.509  0.00  0.00    +0.003 A 
ATOM     13  C   UNL     1     -11.586  14.512  66.846  0.00  0.00    +0.022 A 
BRANCH   8  17
ATOM     14  C   UNL     1      -9.650  20.161  67.626  0.00  0.00    +0.180 C 
ATOM     15  N   UNL     1     -10.273  18.995  67.066  0.00  0.00    -0.149 N 
ATOM     16  N   UNL     1     -10.882  17.984  67.678  0.00  0.00    -0.128 NA
ATOM     17  C   UNL     1     -10.826  16.879  66.895  0.00  0.00    +0.223 A 
ATOM     18  N   UNL     1     -10.338  17.342  65.720  0.00  0.00    -0.106 NA
ATOM     19  N   UNL     1     -10.300  18.673  65.774  0.00  0.00    -0.045 NA
ENDBRANCH   8  17
ENDBRANCH   1  11
BRANCH   5  20
ATOM     20  N   UNL     1     -10.973   8.610  71.891  0.00  0.00    -0.221 N 
ATOM     21  C   UNL     1      -9.581   8.267  71.947  0.00  0.00    +0.409 C 
ATOM     22  O   UNL     1      -8.679   9.130  71.715  0.00  0.00    -0.226 OA
ATOM     23  O   UNL     1      -9.427   6.923  72.256  0.00  0.00    -0.434 OA
ATOM     24  C   UNL     1     -10.703   6.395  71.511  0.00  0.00    +0.221 C 
ATOM     25  C   UNL     1     -11.684   7.433  72.391  0.00  0.00    +0.148 C 
BRANCH  24  26
ATOM     26  C   UNL     1     -10.911   5.151  72.615  0.00  0.00    +0.199 C 
BRANCH  26  27
ATOM     27  O   UNL     1     -10.658   5.708  73.838  0.00  0.00    -0.266 OA
BRANCH  27  28
ATOM     28  P   UNL     1      -9.881   4.675  74.919  0.00  0.00    +0.533 P 
ATOM     29  O   UNL     1     -10.526   3.138  74.734  0.00  0.00    -0.115 OA
ATOM     30  O   UNL     1     -10.185   5.291  76.474  0.00  0.00    -0.115 OA
ATOM     31  O   UNL     1      -8.402   4.686  74.609  0.00  0.00    -0.222 OA
ENDBRANCH  27  28
ENDBRANCH  26  27
ENDBRANCH  24  26
ENDBRANCH   5  20
TORSDOF 6
ENDMDL
MODEL 8
REMARK VINA RESULT:      -7.1      3.322      4.651
REMARK  Name = 
REMARK  6 active torsions:
REMARK  status: ('A' for Active; 'I' for Inactive)
REMARK    1  A    between atoms: C_5  and  C_6
REMARK    2  A    between atoms: C_9  and  C_10
REMARK    3  A    between atoms: C_13  and  N_14
REMARK    4  A    between atoms: C_16  and  C_17
REMARK    5  A    between atoms: C_17  and  O_18
REMARK    6  A    between atoms: O_18  and  P_19
REMARK                            x       y       z     vdW  Elec       q    Type
REMARK                         _______ _______ _______ _____ _____    ______ ____
ROOT
ATOM      1  C   UNL     1     -10.453  14.727  67.585  0.00  0.00    +0.029 A 
ATOM      2  C   UNL     1     -10.326  15.400  66.375  0.00  0.00    +0.141 A 
ATOM      3  F   UNL     1      -9.761  14.718  65.346  0.00  0.00    -0.204 F 
ATOM      4  C   UNL     1     -10.306  16.769  66.368  0.00  0.00    +0.045 A 
ATOM      5  C   UNL     1     -10.538  17.544  67.499  0.00  0.00    +0.059 A 
ATOM      6  C   UNL     1     -11.076  16.842  68.572  0.00  0.00    +0.015 A 
ATOM      7  C   UNL     1     -11.080  15.451  68.591  0.00  0.00    +0.004 A 
ENDROOT
BRANCH   1  11
ATOM      8  C   UNL     1     -10.326  10.563  68.404  0.00  0.00    +0.120 A 
ATOM      9  N   UNL     1      -9.237  11.342  68.390  0.00  0.00    -0.241 NA
ATOM     10  C   UNL     1      -9.254  12.607  67.900  0.00  0.00    +0.099 A 
ATOM     11  C   UNL     1     -10.441  13.258  67.591  0.00  0.00    +0.021 A 
ATOM     12  C   UNL     1     -11.599  12.520  67.807  0.00  0.00    +0.003 A 
ATOM     13  C   UNL     1     -11.514  11.156  67.999  0.00  0.00    +0.022 A 
BRANCH   8  17
ATOM     14  C   UNL     1     -11.127   5.955  69.514  0.00  0.00    +0.180 C 
ATOM     15  N   UNL     1     -10.530   7.039  68.786  0.00  0.00    -0.149 N 
ATOM     16  N   UNL     1     -10.056   8.199  69.230  0.00  0.00    -0.128 NA
ATOM     17  C   UNL     1     -10.106   9.120  68.237  0.00  0.00    +0.223 A 
ATOM     18  N   UNL     1     -10.439   8.395  67.142  0.00  0.00    -0.106 NA
ATOM     19  N   UNL     1     -10.392   7.103  67.462  0.00  0.00    -0.045 NA
ENDBRANCH   8  17
ENDBRANCH   1  11
BRANCH   5  20
ATOM     20  N   UNL     1      -9.836  18.773  67.731  0.00  0.00    -0.221 N 
ATOM     21  C   UNL     1      -9.496  19.755  66.742  0.00  0.00    +0.409 C 
ATOM     22  O   UNL     1     -10.302  20.061  65.811  0.00  0.00    -0.226 OA
ATOM     23  O   UNL     1      -8.219  20.247  66.971  0.00  0.00    -0.434 OA
ATOM     24  C   UNL     1      -7.586  18.924  67.528  0.00  0.00    +0.221 C 
ATOM     25  C   UNL     1      -8.761  18.830  68.722  0.00  0.00    +0.148 C 
BRANCH  24  26
ATOM     26  C   UNL     1      -6.539  19.769  68.527  0.00  0.00    +0.199 C 
BRANCH  26  27
ATOM     27  O   UNL     1      -6.084  18.850  69.432  0.00  0.00    -0.266 OA
BRANCH  27  28
ATOM     28  P   UNL     1      -5.040  19.482  70.593  0.00  0.00    +0.533 P 
ATOM     29  O   UNL     1      -3.471  19.354  70.016  0.00  0.00    -0.115 OA
ATOM     30  O   UNL     1      -5.262  18.550  71.998  0.00  0.00    -0.115 OA
ATOM     31  O   UNL     1      -5.416  20.926  70.835  0.00  0.00    -0.222 OA
ENDBRANCH  27  28
ENDBRANCH  26  27
ENDBRANCH  24  26
ENDBRANCH   5  20
TORSDOF 6
ENDMDL
MODEL 9
REMARK VINA RESULT:      -7.1      1.664      2.492
REMARK  Name = 
REMARK  6 active torsions:
REMARK  status: ('A' for Active; 'I' for Inactive)
REMARK    1  A    between atoms: C_5  and  C_6
REMARK    2  A    between atoms: C_9  and  C_10
REMARK    3  A    between atoms: C_13  and  N_14
REMARK    4  A    between atoms: C_16  and  C_17
REMARK    5  A    between atoms: C_17  and  O_18
REMARK    6  A    between atoms: O_18  and  P_19
REMARK                            x       y       z     vdW  Elec       q    Type
REMARK                         _______ _______ _______ _____ _____    ______ ____
ROOT
ATOM      1  C   UNL     1     -10.913  10.181  69.940  0.00  0.00    +0.029 A 
ATOM      2  C   UNL     1     -11.790  11.134  70.443  0.00  0.00    +0.141 A 
ATOM      3  F   UNL     1     -12.790  10.689  71.246  0.00  0.00    -0.204 F 
ATOM      4  C   UNL     1     -11.932  12.328  69.787  0.00  0.00    +0.045 A 
ATOM      5  C   UNL     1     -11.146  12.704  68.704  0.00  0.00    +0.059 A 
ATOM      6  C   UNL     1     -10.018  11.914  68.515  0.00  0.00    +0.015 A 
ATOM      7  C   UNL     1      -9.879  10.692  69.164  0.00  0.00    +0.004 A 
ENDROOT
BRANCH   1  11
ATOM      8  C   UNL     1     -11.041   6.784  72.482  0.00  0.00    +0.120 A 
ATOM      9  N   UNL     1     -10.311   7.874  72.750  0.00  0.00    -0.241 NA
ATOM     10  C   UNL     1     -10.090   8.845  71.830  0.00  0.00    +0.099 A 
ATOM     11  C   UNL     1     -10.787   8.890  70.628  0.00  0.00    +0.021 A 
ATOM     12  C   UNL     1     -11.710   7.867  70.437  0.00  0.00    +0.003 A 
ATOM     13  C   UNL     1     -11.667   6.749  71.244  0.00  0.00    +0.022 A 
BRANCH   8  17
ATOM     14  C   UNL     1      -9.923   4.223  76.395  0.00  0.00    +0.180 C 
ATOM     15  N   UNL     1     -10.162   4.433  74.994  0.00  0.00    -0.149 N 
ATOM     16  N   UNL     1      -9.794   5.445  74.214  0.00  0.00    -0.128 NA
ATOM     17  C   UNL     1     -10.648   5.544  73.166  0.00  0.00    +0.223 A 
ATOM     18  N   UNL     1     -11.405   4.425  73.261  0.00  0.00    -0.106 NA
ATOM     19  N   UNL     1     -10.880   3.639  74.201  0.00  0.00    -0.045 NA
ENDBRANCH   8  17
ENDBRANCH   1  11
BRANCH   5  20
ATOM     20  N   UNL     1     -11.682  13.458  67.606  0.00  0.00    -0.221 N 
ATOM     21  C   UNL     1     -11.770  13.022  66.242  0.00  0.00    +0.409 C 
ATOM     22  O   UNL     1     -12.089  11.829  65.950  0.00  0.00    -0.226 OA
ATOM     23  O   UNL     1     -11.448  14.062  65.383  0.00  0.00    -0.434 OA
ATOM     24  C   UNL     1     -10.372  14.753  66.291  0.00  0.00    +0.221 C 
ATOM     25  C   UNL     1     -11.481  14.905  67.541  0.00  0.00    +0.148 C 
BRANCH  24  26
ATOM     26  C   UNL     1     -10.741  16.272  65.686  0.00  0.00    +0.199 C 
BRANCH  26  27
ATOM     27  O   UNL     1      -9.564  16.967  65.713  0.00  0.00    -0.266 OA
BRANCH  27  28
ATOM     28  P   UNL     1      -9.492  18.157  66.903  0.00  0.00    +0.533 P 
ATOM     29  O   UNL     1      -8.809  19.533  66.231  0.00  0.00    -0.115 OA
ATOM     30  O   UNL     1      -8.523  17.531  68.152  0.00  0.00    -0.115 OA
ATOM     31  O   UNL     1     -10.897  18.428  67.390  0.00  0.00    -0.222 OA
ENDBRANCH  27  28
ENDBRANCH  26  27
ENDBRANCH  24  26
ENDBRANCH   5  20
TORSDOF 6
ENDMDL
