MODEL 1
REMARK VINA RESULT:      -4.4      0.000      0.000
REMARK  Name = 
REMARK  3 active torsions:
REMARK  status: ('A' for Active; 'I' for Inactive)
REMARK    1  A    between atoms: C_2  and  C_4
REMARK    2  A    between atoms: N_6  and  C_7
REMARK    3  A    between atoms: C_7  and  C_8
REMARK                            x       y       z     vdW  Elec       q    Type
REMARK                         _______ _______ _______ _____ _____    ______ ____
ROOT
ATOM      1  C   UNL     1     -10.077  17.431  66.848  0.00  0.00    +0.252 C 
ATOM      2  N   UNL     1      -9.924  16.575  65.731  0.00  0.00    -0.192 NA
ATOM      3  O   UNL     1     -10.877  17.218  67.748  0.00  0.00    -0.272 OA
ENDROOT
BRANCH   1   5
ATOM      4  C   UNL     1     -10.453  19.667  66.126  0.00  0.00    +0.022 C 
ATOM      5  C   UNL     1      -9.280  18.758  66.697  0.00  0.00    +0.136 C 
ATOM      6  S   UNL     1      -9.543  19.297  68.513  0.00  0.00    -0.073 S 
ENDBRANCH   1   5
BRANCH   2   7
ATOM      7  C   UNL     1     -10.741  15.401  65.571  0.00  0.00    +0.228 C 
BRANCH   7   8
ATOM      8  C   UNL     1     -11.707  15.589  64.454  0.00  0.00    +0.387 C 
ATOM      9  O   UNL     1     -12.489  14.512  64.101  0.00  0.00    -0.244 OA
ATOM     10  O   UNL     1     -11.708  16.703  63.886  0.00  0.00    -0.244 OA
ENDBRANCH   7   8
ENDBRANCH   2   7
TORSDOF 3
ENDMDL
MODEL 2
REMARK VINA RESULT:      -4.3      2.308      4.376
REMARK  Name = 
REMARK  3 active torsions:
REMARK  status: ('A' for Active; 'I' for Inactive)
REMARK    1  A    between atoms: C_2  and  C_4
REMARK    2  A    between atoms: N_6  and  C_7
REMARK    3  A    between atoms: C_7  and  C_8
REMARK                            x       y       z     vdW  Elec       q    Type
REMARK                         _______ _______ _______ _____ _____    ______ ____
ROOT
ATOM      1  C   UNL     1     -11.075  15.881  64.944  0.00  0.00    +0.252 C 
ATOM      2  N   UNL     1     -10.307  15.979  66.129  0.00  0.00    -0.192 NA
ATOM      3  O   UNL     1     -11.295  16.834  64.210  0.00  0.00    -0.272 OA
ENDROOT
BRANCH   1   5
ATOM      4  C   UNL     1     -10.470  13.600  64.633  0.00  0.00    +0.022 C 
ATOM      5  C   UNL     1     -11.772  14.498  64.797  0.00  0.00    +0.136 C 
ATOM      6  S   UNL     1     -11.920  14.204  66.682  0.00  0.00    -0.073 S 
ENDBRANCH   1   5
BRANCH   2   7
ATOM      7  C   UNL     1      -9.761  17.238  66.564  0.00  0.00    +0.228 C 
BRANCH   7   8
ATOM      8  C   UNL     1     -10.643  17.863  67.586  0.00  0.00    +0.387 C 
ATOM      9  O   UNL     1     -11.040  17.081  68.648  0.00  0.00    -0.244 OA
ATOM     10  O   UNL     1     -10.998  19.045  67.384  0.00  0.00    -0.244 OA
ENDBRANCH   7   8
ENDBRANCH   2   7
TORSDOF 3
ENDMDL
MODEL 3
REMARK VINA RESULT:      -4.3      2.248      3.071
REMARK  Name = 
REMARK  3 active torsions:
REMARK  status: ('A' for Active; 'I' for Inactive)
REMARK    1  A    between atoms: C_2  and  C_4
REMARK    2  A    between atoms: N_6  and  C_7
REMARK    3  A    between atoms: C_7  and  C_8
REMARK                            x       y       z     vdW  Elec       q    Type
REMARK                         _______ _______ _______ _____ _____    ______ ____
ROOT
ATOM      1  C   UNL     1     -10.870  16.054  65.107  0.00  0.00    +0.252 C 
ATOM      2  N   UNL     1     -11.385  14.746  65.269  0.00  0.00    -0.192 NA
ATOM      3  O   UNL     1     -11.236  16.810  64.218  0.00  0.00    -0.272 OA
ENDROOT
BRANCH   1   5
ATOM      4  C   UNL     1     -10.037  17.820  66.468  0.00  0.00    +0.022 C 
ATOM      5  C   UNL     1      -9.656  16.337  66.037  0.00  0.00    +0.136 C 
ATOM      6  S   UNL     1     -10.452  15.525  67.575  0.00  0.00    -0.073 S 
ENDBRANCH   1   5
BRANCH   2   7
ATOM      7  C   UNL     1     -12.363  14.208  64.359  0.00  0.00    +0.228 C 
BRANCH   7   8
ATOM      8  C   UNL     1     -12.528  12.746  64.578  0.00  0.00    +0.387 C 
ATOM      9  O   UNL     1     -12.960  11.987  63.514  0.00  0.00    -0.244 OA
ATOM     10  O   UNL     1     -12.303  12.316  65.731  0.00  0.00    -0.244 OA
ENDBRANCH   7   8
ENDBRANCH   2   7
TORSDOF 3
ENDMDL
MODEL 4
REMARK VINA RESULT:      -4.3      2.077      2.728
REMARK  Name = 
REMARK  3 active torsions:
REMARK  status: ('A' for Active; 'I' for Inactive)
REMARK    1  A    between atoms: C_2  and  C_4
REMARK    2  A    between atoms: N_6  and  C_7
REMARK    3  A    between atoms: C_7  and  C_8
REMARK                            x       y       z     vdW  Elec       q    Type
REMARK                         _______ _______ _______ _____ _____    ______ ____
ROOT
ATOM      1  C   UNL     1     -10.730  16.466  65.354  0.00  0.00    +0.252 C 
ATOM      2  N   UNL     1     -10.596  15.116  65.759  0.00  0.00    -0.192 NA
ATOM      3  O   UNL     1     -11.223  16.796  64.284  0.00  0.00    -0.272 OA
ENDROOT
BRANCH   1   5
ATOM      4  C   UNL     1     -10.524  16.865  67.691  0.00  0.00    +0.022 C 
ATOM      5  C   UNL     1     -10.000  17.452  66.309  0.00  0.00    +0.136 C 
ATOM      6  S   UNL     1      -8.367  16.456  66.333  0.00  0.00    -0.073 S 
ENDBRANCH   1   5
BRANCH   2   7
ATOM      7  C   UNL     1     -11.008  14.034  64.904  0.00  0.00    +0.228 C 
BRANCH   7   8
ATOM      8  C   UNL     1     -12.262  13.417  65.415  0.00  0.00    +0.387 C 
ATOM      9  O   UNL     1     -12.162  12.194  66.040  0.00  0.00    -0.244 OA
ATOM     10  O   UNL     1     -13.327  14.036  65.200  0.00  0.00    -0.244 OA
ENDBRANCH   7   8
ENDBRANCH   2   7
TORSDOF 3
ENDMDL
MODEL 5
REMARK VINA RESULT:      -4.1      3.383      5.030
REMARK  Name = 
REMARK  3 active torsions:
REMARK  status: ('A' for Active; 'I' for Inactive)
REMARK    1  A    between atoms: C_2  and  C_4
REMARK    2  A    between atoms: N_6  and  C_7
REMARK    3  A    between atoms: C_7  and  C_8
REMARK                            x       y       z     vdW  Elec       q    Type
REMARK                         _______ _______ _______ _____ _____    ______ ____
ROOT
ATOM      1  C   UNL     1     -12.143  13.570  65.088  0.00  0.00    +0.252 C 
ATOM      2  N   UNL     1     -10.944  14.165  65.548  0.00  0.00    -0.192 NA
ATOM      3  O   UNL     1     -13.243  14.083  65.239  0.00  0.00    -0.272 OA
ENDROOT
BRANCH   1   5
ATOM      4  C   UNL     1     -10.629  12.374  63.695  0.00  0.00    +0.022 C 
ATOM      5  C   UNL     1     -11.931  12.118  64.571  0.00  0.00    +0.136 C 
ATOM      6  S   UNL     1     -10.960  11.549  66.119  0.00  0.00    -0.073 S 
ENDBRANCH   1   5
BRANCH   2   7
ATOM      7  C   UNL     1     -10.954  15.414  66.262  0.00  0.00    +0.228 C 
BRANCH   7   8
ATOM      8  C   UNL     1     -10.474  16.517  65.386  0.00  0.00    +0.387 C 
ATOM      9  O   UNL     1     -11.252  16.855  64.302  0.00  0.00    -0.244 OA
ATOM     10  O   UNL     1      -9.370  17.031  65.675  0.00  0.00    -0.244 OA
ENDBRANCH   7   8
ENDBRANCH   2   7
TORSDOF 3
ENDMDL
MODEL 6
REMARK VINA RESULT:      -4.0      5.255      6.650
REMARK  Name = 
REMARK  3 active torsions:
REMARK  status: ('A' for Active; 'I' for Inactive)
REMARK    1  A    between atoms: C_2  and  C_4
REMARK    2  A    between atoms: N_6  and  C_7
REMARK    3  A    between atoms: C_7  and  C_8
REMARK                            x       y       z     vdW  Elec       q    Type
REMARK                         _______ _______ _______ _____ _____    ______ ____
ROOT
ATOM      1  C   UNL     1     -11.456  15.309  69.747  0.00  0.00    +0.252 C 
ATOM      2  N   UNL     1     -11.436  15.106  71.148  0.00  0.00    -0.192 NA
ATOM      3  O   UNL     1     -12.088  16.210  69.212  0.00  0.00    -0.272 OA
ENDROOT
BRANCH   1   5
ATOM      4  C   UNL     1     -11.738  12.971  69.408  0.00  0.00    +0.022 C 
ATOM      5  C   UNL     1     -10.770  14.153  68.966  0.00  0.00    +0.136 C 
ATOM      6  S   UNL     1     -11.701  14.504  67.332  0.00  0.00    -0.073 S 
ENDBRANCH   1   5
BRANCH   2   7
ATOM      7  C   UNL     1     -12.200  15.942  72.036  0.00  0.00    +0.228 C 
BRANCH   7   8
ATOM      8  C   UNL     1     -13.470  15.268  72.420  0.00  0.00    +0.387 C 
ATOM      9  O   UNL     1     -14.649  15.840  71.996  0.00  0.00    -0.244 OA
ATOM     10  O   UNL     1     -13.377  14.249  73.139  0.00  0.00    -0.244 OA
ENDBRANCH   7   8
ENDBRANCH   2   7
TORSDOF 3
ENDMDL
MODEL 7
REMARK VINA RESULT:      -4.0      1.406      1.744
REMARK  Name = 
REMARK  3 active torsions:
REMARK  status: ('A' for Active; 'I' for Inactive)
REMARK    1  A    between atoms: C_2  and  C_4
REMARK    2  A    between atoms: N_6  and  C_7
REMARK    3  A    between atoms: C_7  and  C_8
REMARK                            x       y       z     vdW  Elec       q    Type
REMARK                         _______ _______ _______ _____ _____    ______ ____
ROOT
ATOM      1  C   UNL     1      -9.073  17.446  66.430  0.00  0.00    +0.252 C 
ATOM      2  N   UNL     1     -10.239  16.653  66.312  0.00  0.00    -0.192 NA
ATOM      3  O   UNL     1      -8.032  17.196  65.839  0.00  0.00    -0.272 OA
ENDROOT
BRANCH   1   5
ATOM      4  C   UNL     1     -10.498  19.265  67.000  0.00  0.00    +0.022 C 
ATOM      5  C   UNL     1      -9.197  18.528  67.540  0.00  0.00    +0.136 C 
ATOM      6  S   UNL     1     -10.156  17.395  68.747  0.00  0.00    -0.073 S 
ENDBRANCH   1   5
BRANCH   2   7
ATOM      7  C   UNL     1     -10.256  15.464  65.500  0.00  0.00    +0.228 C 
BRANCH   7   8
ATOM      8  C   UNL     1     -11.416  15.487  64.568  0.00  0.00    +0.387 C 
ATOM      9  O   UNL     1     -11.671  16.662  63.898  0.00  0.00    -0.244 OA
ATOM     10  O   UNL     1     -12.105  14.446  64.494  0.00  0.00    -0.244 OA
ENDBRANCH   7   8
ENDBRANCH   2   7
TORSDOF 3
ENDMDL
MODEL 8
REMARK VINA RESULT:      -4.0      6.148      6.664
REMARK  Name = 
REMARK  3 active torsions:
REMARK  status: ('A' for Active; 'I' for Inactive)
REMARK    1  A    between atoms: C_2  and  C_4
REMARK    2  A    between atoms: N_6  and  C_7
REMARK    3  A    between atoms: C_7  and  C_8
REMARK                            x       y       z     vdW  Elec       q    Type
REMARK                         _______ _______ _______ _____ _____    ______ ____
ROOT
ATOM      1  C   UNL     1     -13.354  13.987  72.082  0.00  0.00    +0.252 C 
ATOM      2  N   UNL     1     -12.417  13.640  71.080  0.00  0.00    -0.192 NA
ATOM      3  O   UNL     1     -14.122  13.180  72.587  0.00  0.00    -0.272 OA
ENDROOT
BRANCH   1   5
ATOM      4  C   UNL     1     -12.754  15.584  73.741  0.00  0.00    +0.022 C 
ATOM      5  C   UNL     1     -13.443  15.523  72.309  0.00  0.00    +0.136 C 
ATOM      6  S   UNL     1     -11.832  15.910  71.352  0.00  0.00    -0.073 S 
ENDBRANCH   1   5
BRANCH   2   7
ATOM      7  C   UNL     1     -12.336  12.298  70.564  0.00  0.00    +0.228 C 
BRANCH   7   8
ATOM      8  C   UNL     1     -11.788  12.305  69.180  0.00  0.00    +0.387 C 
ATOM      9  O   UNL     1     -12.157  11.277  68.343  0.00  0.00    -0.244 OA
ATOM     10  O   UNL     1     -10.993  13.226  68.890  0.00  0.00    -0.244 OA
ENDBRANCH   7   8
ENDBRANCH   2   7
TORSDOF 3
ENDMDL
MODEL 9
REMARK VINA RESULT:      -4.0      2.828      4.654
REMARK  Name = 
REMARK  3 active torsions:
REMARK  status: ('A' for Active; 'I' for Inactive)
REMARK    1  A    between atoms: C_2  and  C_4
REMARK    2  A    between atoms: N_6  and  C_7
REMARK    3  A    between atoms: C_7  and  C_8
REMARK                            x       y       z     vdW  Elec       q    Type
REMARK                         _______ _______ _______ _____ _____    ______ ____
ROOT
ATOM      1  C   UNL     1     -10.686  16.441  65.043  0.00  0.00    +0.252 C 
ATOM      2  N   UNL     1     -10.130  17.323  66.000  0.00  0.00    -0.192 NA
ATOM      3  O   UNL     1     -11.441  16.810  64.153  0.00  0.00    -0.272 OA
ENDROOT
BRANCH   1   5
ATOM      4  C   UNL     1     -10.870  14.956  66.894  0.00  0.00    +0.022 C 
ATOM      5  C   UNL     1     -10.406  14.947  65.373  0.00  0.00    +0.136 C 
ATOM      6  S   UNL     1     -12.089  14.329  64.706  0.00  0.00    -0.073 S 
ENDBRANCH   1   5
BRANCH   2   7
ATOM      7  C   UNL     1     -10.454  18.726  66.002  0.00  0.00    +0.228 C 
BRANCH   7   8
ATOM      8  C   UNL     1      -9.268  19.532  66.397  0.00  0.00    +0.387 C 
ATOM      9  O   UNL     1      -8.072  19.256  65.773  0.00  0.00    -0.244 OA
ATOM     10  O   UNL     1      -9.433  20.377  67.304  0.00  0.00    -0.244 OA
ENDBRANCH   7   8
ENDBRANCH   2   7
TORSDOF 3
ENDMDL
