MODEL 1
REMARK VINA RESULT:      -5.7      0.000      0.000
REMARK  Name = 
REMARK  2 active torsions:
REMARK  status: ('A' for Active; 'I' for Inactive)
REMARK    1  A    between atoms: C_2  and  C_3
REMARK    2  A    between atoms: C_3  and  C_4
REMARK                            x       y       z     vdW  Elec       q    Type
REMARK                         _______ _______ _______ _____ _____    ______ ____
ROOT
ATOM      1  C   UNL     1     -11.031  13.362  65.715  0.00  0.00    +0.159 C 
ATOM      2  C   UNL     1     -10.187  14.570  65.787  0.00  0.00    +0.254 C 
ATOM      3  O   UNL     1      -9.139  14.494  66.477  0.00  0.00    -0.272 OA
ATOM      4  N   UNL     1     -10.418  15.642  64.909  0.00  0.00    -0.181 NA
ATOM      5  C   UNL     1     -11.703  15.879  64.315  0.00  0.00    +0.229 C 
ATOM      6  N   UNL     1     -12.542  14.720  64.236  0.00  0.00    -0.181 NA
ATOM      7  C   UNL     1     -12.339  13.601  65.073  0.00  0.00    +0.254 C 
ATOM      8  O   UNL     1     -13.070  12.597  64.872  0.00  0.00    -0.272 OA
ENDROOT
BRANCH   1   9
ATOM      9  C   UNL     1     -10.330  12.255  64.992  0.00  0.00    -0.006 A 
ATOM     10  C   UNL     1      -9.962  11.127  65.714  0.00  0.00    -0.003 A 
ATOM     11  C   UNL     1      -9.929   9.908  65.046  0.00  0.00    -0.000 A 
ATOM     12  C   UNL     1      -9.499   9.963  63.726  0.00  0.00    -0.000 A 
ATOM     13  C   UNL     1      -9.655  11.148  63.021  0.00  0.00    -0.000 A 
ATOM     14  C   UNL     1     -10.241  12.254  63.611  0.00  0.00    -0.003 A 
ENDBRANCH   1   9
BRANCH   1  16
ATOM     15  C   UNL     1     -11.983  13.868  67.948  0.00  0.00    +0.001 C 
ATOM     16  C   UNL     1     -11.190  12.875  67.153  0.00  0.00    +0.022 C 
ENDBRANCH   1  16
TORSDOF 2
ENDMDL
MODEL 2
REMARK VINA RESULT:      -5.7      0.933      3.986
REMARK  Name = 
REMARK  2 active torsions:
REMARK  status: ('A' for Active; 'I' for Inactive)
REMARK    1  A    between atoms: C_2  and  C_3
REMARK    2  A    between atoms: C_3  and  C_4
REMARK                            x       y       z     vdW  Elec       q    Type
REMARK                         _______ _______ _______ _____ _____    ______ ____
ROOT
ATOM      1  C   UNL     1     -11.186  13.186  65.595  0.00  0.00    +0.159 C 
ATOM      2  C   UNL     1     -12.356  13.483  64.747  0.00  0.00    +0.254 C 
ATOM      3  O   UNL     1     -13.215  12.574  64.619  0.00  0.00    -0.272 OA
ATOM      4  N   UNL     1     -12.609  14.803  64.338  0.00  0.00    -0.181 NA
ATOM      5  C   UNL     1     -11.567  15.785  64.236  0.00  0.00    +0.229 C 
ATOM      6  N   UNL     1     -10.420  15.516  65.051  0.00  0.00    -0.181 NA
ATOM      7  C   UNL     1     -10.131  14.214  65.516  0.00  0.00    +0.254 C 
ATOM      8  O   UNL     1      -9.150  14.090  66.295  0.00  0.00    -0.272 OA
ENDROOT
BRANCH   1   9
ATOM      9  C   UNL     1     -11.588  13.011  67.026  0.00  0.00    -0.006 A 
ATOM     10  C   UNL     1     -11.445  11.755  67.602  0.00  0.00    -0.003 A 
ATOM     11  C   UNL     1     -11.179  11.690  68.965  0.00  0.00    -0.000 A 
ATOM     12  C   UNL     1     -11.805  12.656  69.742  0.00  0.00    -0.000 A 
ATOM     13  C   UNL     1     -12.161  13.860  69.152  0.00  0.00    -0.000 A 
ATOM     14  C   UNL     1     -11.888  14.106  67.818  0.00  0.00    -0.003 A 
ENDBRANCH   1   9
BRANCH   1  16
ATOM     15  C   UNL     1     -10.174  11.897  63.735  0.00  0.00    +0.001 C 
ATOM     16  C   UNL     1     -10.678  11.819  65.145  0.00  0.00    +0.022 C 
ENDBRANCH   1  16
TORSDOF 2
ENDMDL
MODEL 3
REMARK VINA RESULT:      -5.6      1.787      3.848
REMARK  Name = 
REMARK  2 active torsions:
REMARK  status: ('A' for Active; 'I' for Inactive)
REMARK    1  A    between atoms: C_2  and  C_3
REMARK    2  A    between atoms: C_3  and  C_4
REMARK                            x       y       z     vdW  Elec       q    Type
REMARK                         _______ _______ _______ _____ _____    ______ ____
ROOT
ATOM      1  C   UNL     1     -11.322  13.641  66.115  0.00  0.00    +0.159 C 
ATOM      2  C   UNL     1     -10.122  12.929  65.635  0.00  0.00    +0.254 C 
ATOM      3  O   UNL     1      -9.052  13.124  66.265  0.00  0.00    -0.272 OA
ATOM      4  N   UNL     1     -10.250  11.891  64.696  0.00  0.00    -0.181 NA
ATOM      5  C   UNL     1     -11.360  11.813  63.790  0.00  0.00    +0.229 C 
ATOM      6  N   UNL     1     -12.537  12.499  64.235  0.00  0.00    -0.181 NA
ATOM      7  C   UNL     1     -12.473  13.531  65.198  0.00  0.00    +0.254 C 
ATOM      8  O   UNL     1     -13.566  14.016  65.589  0.00  0.00    -0.272 OA
ENDROOT
BRANCH   1   9
ATOM      9  C   UNL     1     -11.732  13.156  67.469  0.00  0.00    -0.006 A 
ATOM     10  C   UNL     1     -11.827  11.785  67.677  0.00  0.00    -0.003 A 
ATOM     11  C   UNL     1     -11.562  11.300  68.952  0.00  0.00    -0.000 A 
ATOM     12  C   UNL     1     -11.980  12.112  69.999  0.00  0.00    -0.000 A 
ATOM     13  C   UNL     1     -12.106  13.476  69.777  0.00  0.00    -0.000 A 
ATOM     14  C   UNL     1     -11.807  14.026  68.543  0.00  0.00    -0.003 A 
ENDBRANCH   1   9
BRANCH   1  16
ATOM     15  C   UNL     1     -10.801  15.788  64.988  0.00  0.00    +0.001 C 
ATOM     16  C   UNL     1     -10.897  15.094  66.314  0.00  0.00    +0.022 C 
ENDBRANCH   1  16
TORSDOF 2
ENDMDL
MODEL 4
REMARK VINA RESULT:      -5.2      3.426      4.810
REMARK  Name = 
REMARK  2 active torsions:
REMARK  status: ('A' for Active; 'I' for Inactive)
REMARK    1  A    between atoms: C_2  and  C_3
REMARK    2  A    between atoms: C_3  and  C_4
REMARK                            x       y       z     vdW  Elec       q    Type
REMARK                         _______ _______ _______ _____ _____    ______ ____
ROOT
ATOM      1  C   UNL     1      -8.998  17.315  67.086  0.00  0.00    +0.159 C 
ATOM      2  C   UNL     1      -8.457  18.357  66.193  0.00  0.00    +0.254 C 
ATOM      3  O   UNL     1      -7.387  18.092  65.589  0.00  0.00    -0.272 OA
ATOM      4  N   UNL     1      -9.249  19.463  65.844  0.00  0.00    -0.181 NA
ATOM      5  C   UNL     1     -10.323  19.927  66.675  0.00  0.00    +0.229 C 
ATOM      6  N   UNL     1     -10.864  18.931  67.553  0.00  0.00    -0.181 NA
ATOM      7  C   UNL     1     -10.125  17.784  67.916  0.00  0.00    +0.254 C 
ATOM      8  O   UNL     1     -10.714  16.924  68.621  0.00  0.00    -0.272 OA
ENDROOT
BRANCH   1   9
ATOM      9  C   UNL     1      -9.434  16.112  66.310  0.00  0.00    -0.006 A 
ATOM     10  C   UNL     1      -8.864  14.884  66.622  0.00  0.00    -0.003 A 
ATOM     11  C   UNL     1      -9.634  13.742  66.435  0.00  0.00    -0.000 A 
ATOM     12  C   UNL     1     -10.479  13.766  65.333  0.00  0.00    -0.000 A 
ATOM     13  C   UNL     1     -10.911  14.993  64.849  0.00  0.00    -0.000 A 
ATOM     14  C   UNL     1     -10.522  16.174  65.457  0.00  0.00    -0.003 A 
ENDBRANCH   1   9
BRANCH   1  16
ATOM     15  C   UNL     1      -7.374  17.951  68.848  0.00  0.00    +0.001 C 
ATOM     16  C   UNL     1      -7.825  16.845  67.942  0.00  0.00    +0.022 C 
ENDBRANCH   1  16
TORSDOF 2
ENDMDL
MODEL 5
REMARK VINA RESULT:      -5.1      1.823      4.456
REMARK  Name = 
REMARK  2 active torsions:
REMARK  status: ('A' for Active; 'I' for Inactive)
REMARK    1  A    between atoms: C_2  and  C_3
REMARK    2  A    between atoms: C_3  and  C_4
REMARK                            x       y       z     vdW  Elec       q    Type
REMARK                         _______ _______ _______ _____ _____    ______ ____
ROOT
ATOM      1  C   UNL     1     -11.300  13.389  66.121  0.00  0.00    +0.159 C 
ATOM      2  C   UNL     1     -12.457  13.422  65.206  0.00  0.00    +0.254 C 
ATOM      3  O   UNL     1     -13.501  13.983  65.625  0.00  0.00    -0.272 OA
ATOM      4  N   UNL     1     -12.291  13.083  63.852  0.00  0.00    -0.181 NA
ATOM      5  C   UNL     1     -11.234  12.222  63.405  0.00  0.00    +0.229 C 
ATOM      6  N   UNL     1     -10.100  12.173  64.279  0.00  0.00    -0.181 NA
ATOM      7  C   UNL     1     -10.200  12.531  65.642  0.00  0.00    +0.254 C 
ATOM      8  O   UNL     1      -9.134  12.539  66.310  0.00  0.00    -0.272 OA
ENDROOT
BRANCH   1   9
ATOM      9  C   UNL     1     -10.769  14.766  66.369  0.00  0.00    -0.006 A 
ATOM     10  C   UNL     1     -10.420  15.545  65.272  0.00  0.00    -0.003 A 
ATOM     11  C   UNL     1     -10.555  16.924  65.384  0.00  0.00    -0.000 A 
ATOM     12  C   UNL     1     -10.261  17.453  66.634  0.00  0.00    -0.000 A 
ATOM     13  C   UNL     1     -10.392  16.641  67.752  0.00  0.00    -0.000 A 
ATOM     14  C   UNL     1     -10.822  15.331  67.631  0.00  0.00    -0.003 A 
ENDBRANCH   1   9
BRANCH   1  16
ATOM     15  C   UNL     1     -11.726  11.422  67.568  0.00  0.00    +0.001 C 
ATOM     16  C   UNL     1     -11.842  12.913  67.466  0.00  0.00    +0.022 C 
ENDBRANCH   1  16
TORSDOF 2
ENDMDL
MODEL 6
REMARK VINA RESULT:      -5.1      2.352      3.257
REMARK  Name = 
REMARK  2 active torsions:
REMARK  status: ('A' for Active; 'I' for Inactive)
REMARK    1  A    between atoms: C_2  and  C_3
REMARK    2  A    between atoms: C_3  and  C_4
REMARK                            x       y       z     vdW  Elec       q    Type
REMARK                         _______ _______ _______ _____ _____    ______ ____
ROOT
ATOM      1  C   UNL     1     -10.462  14.975  66.700  0.00  0.00    +0.159 C 
ATOM      2  C   UNL     1      -9.416  14.288  67.481  0.00  0.00    +0.254 C 
ATOM      3  O   UNL     1      -9.775  13.305  68.176  0.00  0.00    -0.272 OA
ATOM      4  N   UNL     1      -8.061  14.566  67.235  0.00  0.00    -0.181 NA
ATOM      5  C   UNL     1      -7.626  15.811  66.671  0.00  0.00    +0.229 C 
ATOM      6  N   UNL     1      -8.627  16.497  65.908  0.00  0.00    -0.181 NA
ATOM      7  C   UNL     1     -10.003  16.239  66.092  0.00  0.00    +0.254 C 
ATOM      8  O   UNL     1     -10.803  16.826  65.318  0.00  0.00    -0.272 OA
ENDROOT
BRANCH   1   9
ATOM      9  C   UNL     1     -11.003  14.087  65.624  0.00  0.00    -0.006 A 
ATOM     10  C   UNL     1     -10.120  13.593  64.671  0.00  0.00    -0.003 A 
ATOM     11  C   UNL     1     -10.394  12.351  64.111  0.00  0.00    -0.000 A 
ATOM     12  C   UNL     1     -11.740  12.072  63.908  0.00  0.00    -0.000 A 
ATOM     13  C   UNL     1     -12.682  12.708  64.703  0.00  0.00    -0.000 A 
ATOM     14  C   UNL     1     -12.295  13.594  65.693  0.00  0.00    -0.003 A 
ENDBRANCH   1   9
BRANCH   1  16
ATOM     15  C   UNL     1     -11.264  16.261  68.663  0.00  0.00    +0.001 C 
ATOM     16  C   UNL     1     -11.624  15.203  67.664  0.00  0.00    +0.022 C 
ENDBRANCH   1  16
TORSDOF 2
ENDMDL
MODEL 7
REMARK VINA RESULT:      -5.1      4.882      7.073
REMARK  Name = 
REMARK  2 active torsions:
REMARK  status: ('A' for Active; 'I' for Inactive)
REMARK    1  A    between atoms: C_2  and  C_3
REMARK    2  A    between atoms: C_3  and  C_4
REMARK                            x       y       z     vdW  Elec       q    Type
REMARK                         _______ _______ _______ _____ _____    ______ ____
ROOT
ATOM      1  C   UNL     1      -8.923  18.257  67.341  0.00  0.00    +0.159 C 
ATOM      2  C   UNL     1      -8.382  17.618  66.127  0.00  0.00    +0.254 C 
ATOM      3  O   UNL     1      -7.487  18.242  65.503  0.00  0.00    -0.272 OA
ATOM      4  N   UNL     1      -8.670  16.270  65.855  0.00  0.00    -0.181 NA
ATOM      5  C   UNL     1      -9.844  15.622  66.365  0.00  0.00    +0.229 C 
ATOM      6  N   UNL     1     -10.389  16.227  67.544  0.00  0.00    -0.181 NA
ATOM      7  C   UNL     1     -10.111  17.569  67.884  0.00  0.00    +0.254 C 
ATOM      8  O   UNL     1     -10.563  17.987  68.981  0.00  0.00    -0.272 OA
ENDROOT
BRANCH   1   9
ATOM      9  C   UNL     1      -7.883  18.349  68.412  0.00  0.00    -0.006 A 
ATOM     10  C   UNL     1      -7.266  17.177  68.834  0.00  0.00    -0.003 A 
ATOM     11  C   UNL     1      -5.953  17.258  69.283  0.00  0.00    -0.000 A 
ATOM     12  C   UNL     1      -5.633  18.411  69.988  0.00  0.00    -0.000 A 
ATOM     13  C   UNL     1      -6.368  19.564  69.753  0.00  0.00    -0.000 A 
ATOM     14  C   UNL     1      -7.392  19.576  68.822  0.00  0.00    -0.003 A 
ENDBRANCH   1   9
BRANCH   1  16
ATOM     15  C   UNL     1     -10.459  19.745  66.085  0.00  0.00    +0.001 C 
ATOM     16  C   UNL     1      -9.236  19.700  66.952  0.00  0.00    +0.022 C 
ENDBRANCH   1  16
TORSDOF 2
ENDMDL
MODEL 8
REMARK VINA RESULT:      -5.1      4.912      7.088
REMARK  Name = 
REMARK  2 active torsions:
REMARK  status: ('A' for Active; 'I' for Inactive)
REMARK    1  A    between atoms: C_2  and  C_3
REMARK    2  A    between atoms: C_3  and  C_4
REMARK                            x       y       z     vdW  Elec       q    Type
REMARK                         _______ _______ _______ _____ _____    ______ ____
ROOT
ATOM      1  C   UNL     1      -8.889  17.672  67.493  0.00  0.00    +0.159 C 
ATOM      2  C   UNL     1     -10.243  17.993  67.983  0.00  0.00    +0.254 C 
ATOM      3  O   UNL     1     -10.665  17.337  68.969  0.00  0.00    -0.272 OA
ATOM      4  N   UNL     1     -10.896  19.152  67.531  0.00  0.00    -0.181 NA
ATOM      5  C   UNL     1     -10.587  19.760  66.269  0.00  0.00    +0.229 C 
ATOM      6  N   UNL     1      -9.276  19.461  65.773  0.00  0.00    -0.181 NA
ATOM      7  C   UNL     1      -8.560  18.326  66.212  0.00  0.00    +0.254 C 
ATOM      8  O   UNL     1      -7.384  18.192  65.785  0.00  0.00    -0.272 OA
ENDROOT
BRANCH   1   9
ATOM      9  C   UNL     1      -7.848  18.036  68.505  0.00  0.00    -0.006 A 
ATOM     10  C   UNL     1      -7.013  17.032  68.982  0.00  0.00    -0.003 A 
ATOM     11  C   UNL     1      -5.723  17.385  69.361  0.00  0.00    -0.000 A 
ATOM     12  C   UNL     1      -5.598  18.630  69.965  0.00  0.00    -0.000 A 
ATOM     13  C   UNL     1      -6.540  19.608  69.681  0.00  0.00    -0.000 A 
ATOM     14  C   UNL     1      -7.578  19.360  68.800  0.00  0.00    -0.003 A 
ENDBRANCH   1   9
BRANCH   1  16
ATOM     15  C   UNL     1      -9.514  15.703  66.121  0.00  0.00    +0.001 C 
ATOM     16  C   UNL     1      -8.833  16.150  67.380  0.00  0.00    +0.022 C 
ENDBRANCH   1  16
TORSDOF 2
ENDMDL
MODEL 9
REMARK VINA RESULT:      -5.1      2.931      4.078
REMARK  Name = 
REMARK  2 active torsions:
REMARK  status: ('A' for Active; 'I' for Inactive)
REMARK    1  A    between atoms: C_2  and  C_3
REMARK    2  A    between atoms: C_3  and  C_4
REMARK                            x       y       z     vdW  Elec       q    Type
REMARK                         _______ _______ _______ _____ _____    ______ ____
ROOT
ATOM      1  C   UNL     1     -10.478  14.834  67.931  0.00  0.00    +0.159 C 
ATOM      2  C   UNL     1     -11.043  16.123  68.373  0.00  0.00    +0.254 C 
ATOM      3  O   UNL     1     -10.723  17.144  67.713  0.00  0.00    -0.272 OA
ATOM      4  N   UNL     1     -12.090  16.147  69.310  0.00  0.00    -0.181 NA
ATOM      5  C   UNL     1     -12.300  15.081  70.247  0.00  0.00    +0.229 C 
ATOM      6  N   UNL     1     -11.758  13.818  69.840  0.00  0.00    -0.181 NA
ATOM      7  C   UNL     1     -10.724  13.732  68.881  0.00  0.00    +0.254 C 
ATOM      8  O   UNL     1     -10.372  12.578  68.523  0.00  0.00    -0.272 OA
ENDROOT
BRANCH   1   9
ATOM      9  C   UNL     1     -11.007  14.445  66.587  0.00  0.00    -0.006 A 
ATOM     10  C   UNL     1     -10.102  14.278  65.546  0.00  0.00    -0.003 A 
ATOM     11  C   UNL     1     -10.412  13.352  64.556  0.00  0.00    -0.000 A 
ATOM     12  C   UNL     1     -11.757  13.262  64.223  0.00  0.00    -0.000 A 
ATOM     13  C   UNL     1     -12.706  13.624  65.170  0.00  0.00    -0.000 A 
ATOM     14  C   UNL     1     -12.325  14.053  66.429  0.00  0.00    -0.003 A 
ENDBRANCH   1   9
BRANCH   1  16
ATOM     15  C   UNL     1      -8.304  15.240  69.053  0.00  0.00    +0.001 C 
ATOM     16  C   UNL     1      -8.985  15.079  67.727  0.00  0.00    +0.022 C 
ENDBRANCH   1  16
TORSDOF 2
ENDMDL
