MODEL 1
REMARK VINA RESULT:      -6.7      0.000      0.000
REMARK  Name = 
REMARK  13 active torsions:
REMARK  status: ('A' for Active; 'I' for Inactive)
REMARK    1  A    between atoms: O_2  and  C_3
REMARK    2  A    between atoms: N_5  and  C_6
REMARK    3  A    between atoms: C_6  and  C_7
REMARK    4  A    between atoms: C_6  and  C_63
REMARK    5  A    between atoms: C_13  and  C_14
REMARK    6  A    between atoms: C_16  and  C_17
REMARK    7  A    between atoms: C_25  and  C_26
REMARK    8  A    between atoms: C_35  and  C_36
REMARK    9  A    between atoms: C_39  and  C_40
REMARK   10  A    between atoms: C_45  and  C_47
REMARK   11  A    between atoms: C_47  and  N_48
REMARK   12  A    between atoms: C_47  and  C_53
REMARK   13  A    between atoms: C_49  and  O_51
REMARK                            x       y       z     vdW  Elec       q    Type
REMARK                         _______ _______ _______ _____ _____    ______ ____
ROOT
ATOM      1  C   UNL     1     -10.012   7.644  71.801  0.00  0.00    +0.019 A 
ATOM      2  C   UNL     1     -10.695   8.813  72.113  0.00  0.00    +0.003 A 
ATOM      3  C   UNL     1     -11.416   9.437  71.098  0.00  0.00    +0.017 A 
ATOM      4  C   UNL     1     -11.892  10.734  70.936  0.00  0.00    +0.019 A 
ATOM      5  C   UNL     1     -11.578  11.141  69.642  0.00  0.00    +0.066 A 
ATOM      6  C   UNL     1     -11.823  12.368  68.950  0.00  0.00    +0.050 A 
ATOM      7  C   UNL     1     -11.688  12.421  67.582  0.00  0.00    +0.142 A 
ATOM      8  C   UNL     1     -12.003  13.653  67.012  0.00  0.00    +0.039 A 
ATOM      9  C   UNL     1     -11.500  14.734  67.734  0.00  0.00    +0.022 A 
ATOM     10  C   UNL     1     -11.947  14.756  69.050  0.00  0.00    +0.002 A 
ATOM     11  O   UNL     1     -11.586  11.241  66.953  0.00  0.00    -0.454 OA
ATOM     12  C   UNL     1     -10.609  10.163  67.551  0.00  0.00    +0.280 C 
ATOM     13  C   UNL     1     -12.034  13.525  69.688  0.00  0.00    +0.005 A 
ATOM     14  N   UNL     1     -11.399  10.060  68.950  0.00  0.00    -0.291 N 
ATOM     15  C   UNL     1     -11.206   9.012  69.790  0.00  0.00    +0.063 A 
ATOM     16  C   UNL     1     -10.892   7.673  69.592  0.00  0.00    +0.017 A 
ATOM     17  C   UNL     1     -10.526   6.946  70.715  0.00  0.00    +0.003 A 
ENDROOT
BRANCH  12  18
ATOM     18  C   UNL     1      -9.496  11.271  68.095  0.00  0.00    +0.040 A 
ATOM     19  C   UNL     1      -8.919  11.777  66.927  0.00  0.00    +0.001 A 
ATOM     20  C   UNL     1      -7.542  11.981  66.837  0.00  0.00    -0.000 A 
ATOM     21  C   UNL     1      -6.975  12.203  68.090  0.00  0.00    -0.000 A 
ATOM     22  C   UNL     1      -7.460  11.499  69.187  0.00  0.00    -0.000 A 
ATOM     23  C   UNL     1      -8.537  10.662  68.908  0.00  0.00    +0.001 A 
ENDBRANCH  12  18
BRANCH   9  24
ATOM     24  C   UNL     1     -10.938  15.930  67.171  0.00  0.00    +0.102 A 
ATOM     25  N   UNL     1     -10.328  16.999  67.746  0.00  0.00    -0.227 NA
ATOM     26  C   UNL     1      -9.212  17.139  67.037  0.00  0.00    +0.157 A 
ATOM     27  N   UNL     1      -9.598  16.990  65.750  0.00  0.00    -0.226 NA
ATOM     28  C   UNL     1     -10.566  16.043  65.834  0.00  0.00    +0.119 A 
BRANCH  26  29
ATOM     29  C   UNL     1      -8.074  18.253  67.366  0.00  0.00    +0.134 C 
ATOM     30  N   UNL     1      -7.490  17.489  68.642  0.00  0.00    -0.273 N 
ATOM     31  C   UNL     1      -6.324  18.203  69.097  0.00  0.00    +0.246 C 
ATOM     32  O   UNL     1      -6.182  18.697  70.214  0.00  0.00    -0.273 OA
ATOM     33  C   UNL     1      -7.471  16.115  68.249  0.00  0.00    +0.094 C 
ATOM     34  C   UNL     1      -7.162  16.079  66.775  0.00  0.00    +0.024 C 
ATOM     35  C   UNL     1      -6.973  17.503  66.362  0.00  0.00    +0.029 C 
BRANCH  31  36
ATOM     36  C   UNL     1      -4.955  17.700  68.358  0.00  0.00    +0.175 C 
BRANCH  36  37
ATOM     37  N   UNL     1      -4.344  19.174  68.251  0.00  0.00    -0.161 NA
ATOM     38  C   UNL     1      -4.157  19.445  66.853  0.00  0.00    +0.422 C 
ATOM     39  O   UNL     1      -3.611  18.585  66.094  0.00  0.00    -0.225 OA
BRANCH  38  40
ATOM     40  O   UNL     1      -4.167  20.792  66.469  0.00  0.00    -0.429 OA
ATOM     41  C   UNL     1      -5.312  21.540  66.875  0.00  0.00    +0.257 C 
ENDBRANCH  38  40
ENDBRANCH  36  37
BRANCH  36  42
ATOM     42  C   UNL     1      -4.234  17.314  69.805  0.00  0.00    +0.029 C 
ATOM     43  C   UNL     1      -2.900  17.877  69.876  0.00  0.00    +0.002 C 
ATOM     44  C   UNL     1      -4.326  15.798  69.871  0.00  0.00    +0.002 C 
ENDBRANCH  36  42
ENDBRANCH  31  36
ENDBRANCH  26  29
ENDBRANCH   9  24
BRANCH   1  48
ATOM     45  C   UNL     1      -6.835   7.366  73.261  0.00  0.00    +0.157 A 
ATOM     46  N   UNL     1      -7.566   7.618  74.360  0.00  0.00    -0.226 NA
ATOM     47  C   UNL     1      -8.856   7.383  74.000  0.00  0.00    +0.119 A 
ATOM     48  C   UNL     1      -8.922   7.128  72.636  0.00  0.00    +0.102 A 
ATOM     49  N   UNL     1      -7.642   7.266  72.228  0.00  0.00    -0.227 NA
BRANCH  45  52
ATOM     50  C   UNL     1      -4.768   5.531  72.511  0.00  0.00    +0.246 C 
ATOM     51  N   UNL     1      -4.858   6.879  72.114  0.00  0.00    -0.273 N 
ATOM     52  C   UNL     1      -5.338   8.004  73.136  0.00  0.00    +0.134 C 
ATOM     53  C   UNL     1      -5.761   9.084  71.944  0.00  0.00    +0.029 C 
ATOM     54  C   UNL     1      -5.358   8.439  70.701  0.00  0.00    +0.024 C 
ATOM     55  C   UNL     1      -4.132   7.639  71.128  0.00  0.00    +0.094 C 
ATOM     56  O   UNL     1      -5.141   4.586  71.848  0.00  0.00    -0.273 OA
BRANCH  50  57
ATOM     57  C   UNL     1      -4.428   5.307  74.089  0.00  0.00    +0.175 C 
BRANCH  57  58
ATOM     58  C   UNL     1      -3.172   4.269  73.758  0.00  0.00    +0.029 C 
ATOM     59  C   UNL     1      -2.925   3.599  75.105  0.00  0.00    +0.002 C 
ATOM     60  C   UNL     1      -2.010   5.072  73.325  0.00  0.00    +0.002 C 
ENDBRANCH  57  58
BRANCH  57  62
ATOM     61  C   UNL     1      -6.330   4.390  75.413  0.00  0.00    +0.422 C 
ATOM     62  N   UNL     1      -5.485   4.128  74.297  0.00  0.00    -0.161 NA
ATOM     63  O   UNL     1      -6.068   5.310  76.245  0.00  0.00    -0.225 OA
BRANCH  61  65
ATOM     64  C   UNL     1      -8.653   3.726  75.598  0.00  0.00    +0.257 C 
ATOM     65  O   UNL     1      -7.293   3.484  75.837  0.00  0.00    -0.429 OA
ENDBRANCH  61  65
ENDBRANCH  57  62
ENDBRANCH  50  57
ENDBRANCH  45  52
ENDBRANCH   1  48
TORSDOF 13
ENDMDL
MODEL 2
REMARK VINA RESULT:      -6.6      1.505      2.799
REMARK  Name = 
REMARK  13 active torsions:
REMARK  status: ('A' for Active; 'I' for Inactive)
REMARK    1  A    between atoms: O_2  and  C_3
REMARK    2  A    between atoms: N_5  and  C_6
REMARK    3  A    between atoms: C_6  and  C_7
REMARK    4  A    between atoms: C_6  and  C_63
REMARK    5  A    between atoms: C_13  and  C_14
REMARK    6  A    between atoms: C_16  and  C_17
REMARK    7  A    between atoms: C_25  and  C_26
REMARK    8  A    between atoms: C_35  and  C_36
REMARK    9  A    between atoms: C_39  and  C_40
REMARK   10  A    between atoms: C_45  and  C_47
REMARK   11  A    between atoms: C_47  and  N_48
REMARK   12  A    between atoms: C_47  and  C_53
REMARK   13  A    between atoms: C_49  and  O_51
REMARK                            x       y       z     vdW  Elec       q    Type
REMARK                         _______ _______ _______ _____ _____    ______ ____
ROOT
ATOM      1  C   UNL     1     -10.273   7.838  71.228  0.00  0.00    +0.019 A 
ATOM      2  C   UNL     1     -10.913   9.000  71.637  0.00  0.00    +0.003 A 
ATOM      3  C   UNL     1     -11.566   9.761  70.669  0.00  0.00    +0.017 A 
ATOM      4  C   UNL     1     -11.976  11.090  70.627  0.00  0.00    +0.019 A 
ATOM      5  C   UNL     1     -11.595  11.611  69.395  0.00  0.00    +0.066 A 
ATOM      6  C   UNL     1     -11.757  12.913  68.827  0.00  0.00    +0.050 A 
ATOM      7  C   UNL     1     -11.567  13.100  67.477  0.00  0.00    +0.142 A 
ATOM      8  C   UNL     1     -11.803  14.398  67.029  0.00  0.00    +0.039 A 
ATOM      9  C   UNL     1     -11.280  15.373  67.876  0.00  0.00    +0.022 A 
ATOM     10  C   UNL     1     -11.776  15.282  69.172  0.00  0.00    +0.002 A 
ATOM     11  O   UNL     1     -11.495  11.987  66.732  0.00  0.00    -0.454 OA
ATOM     12  C   UNL     1     -10.592  10.806  67.247  0.00  0.00    +0.280 C 
ATOM     13  C   UNL     1     -11.943  13.997  69.674  0.00  0.00    +0.005 A 
ATOM     14  N   UNL     1     -11.439  10.599  68.600  0.00  0.00    -0.291 N 
ATOM     15  C   UNL     1     -11.326   9.463  69.332  0.00  0.00    +0.063 A 
ATOM     16  C   UNL     1     -11.065   8.137  69.005  0.00  0.00    +0.017 A 
ATOM     17  C   UNL     1     -10.777   7.281  70.058  0.00  0.00    +0.003 A 
ENDROOT
BRANCH  12  18
ATOM     18  C   UNL     1      -9.450  11.797  67.940  0.00  0.00    +0.040 A 
ATOM     19  C   UNL     1      -8.798  12.380  66.851  0.00  0.00    +0.001 A 
ATOM     20  C   UNL     1      -7.410  12.518  66.837  0.00  0.00    -0.000 A 
ATOM     21  C   UNL     1      -6.889  12.588  68.128  0.00  0.00    -0.000 A 
ATOM     22  C   UNL     1      -7.458  11.811  69.130  0.00  0.00    -0.000 A 
ATOM     23  C   UNL     1      -8.561  11.063  68.728  0.00  0.00    +0.001 A 
ENDBRANCH  12  18
BRANCH   9  24
ATOM     24  C   UNL     1     -10.643  16.592  67.460  0.00  0.00    +0.102 A 
ATOM     25  N   UNL     1      -9.812  17.444  68.113  0.00  0.00    -0.227 NA
ATOM     26  C   UNL     1      -8.802  17.606  67.264  0.00  0.00    +0.157 A 
ATOM     27  N   UNL     1      -9.389  17.772  66.057  0.00  0.00    -0.226 NA
ATOM     28  C   UNL     1     -10.457  16.938  66.125  0.00  0.00    +0.119 A 
BRANCH  26  29
ATOM     29  C   UNL     1      -7.482  18.498  67.597  0.00  0.00    +0.134 C 
ATOM     30  N   UNL     1      -6.979  17.565  68.792  0.00  0.00    -0.273 N 
ATOM     31  C   UNL     1      -5.692  18.049  69.225  0.00  0.00    +0.246 C 
ATOM     32  O   UNL     1      -5.423  18.437  70.361  0.00  0.00    -0.273 OA
ATOM     33  C   UNL     1      -7.203  16.235  68.318  0.00  0.00    +0.094 C 
ATOM     34  C   UNL     1      -6.968  16.249  66.829  0.00  0.00    +0.024 C 
ATOM     35  C   UNL     1      -6.565  17.649  66.493  0.00  0.00    +0.029 C 
BRANCH  31  36
ATOM     36  C   UNL     1      -4.458  17.382  68.386  0.00  0.00    +0.175 C 
BRANCH  36  37
ATOM     37  N   UNL     1      -3.671  18.766  68.236  0.00  0.00    -0.161 NA
ATOM     38  C   UNL     1      -3.330  18.902  66.848  0.00  0.00    +0.422 C 
ATOM     39  O   UNL     1      -2.823  17.928  66.208  0.00  0.00    -0.225 OA
BRANCH  38  40
ATOM     40  O   UNL     1      -3.147  20.205  66.372  0.00  0.00    -0.429 OA
ATOM     41  C   UNL     1      -4.152  21.146  66.749  0.00  0.00    +0.257 C 
ENDBRANCH  38  40
ENDBRANCH  36  37
BRANCH  36  42
ATOM     42  C   UNL     1      -3.689  16.890  69.775  0.00  0.00    +0.029 C 
ATOM     43  C   UNL     1      -2.293  17.281  69.750  0.00  0.00    +0.002 C 
ATOM     44  C   UNL     1      -3.965  15.396  69.841  0.00  0.00    +0.002 C 
ENDBRANCH  36  42
ENDBRANCH  31  36
ENDBRANCH  26  29
ENDBRANCH   9  24
BRANCH   1  48
ATOM     45  C   UNL     1      -8.458   5.292  72.817  0.00  0.00    +0.157 A 
ATOM     46  N   UNL     1      -7.516   5.746  71.973  0.00  0.00    -0.226 NA
ATOM     47  C   UNL     1      -7.957   6.964  71.558  0.00  0.00    +0.119 A 
ATOM     48  C   UNL     1      -9.241   7.186  72.040  0.00  0.00    +0.102 A 
ATOM     49  N   UNL     1      -9.529   6.045  72.702  0.00  0.00    -0.227 NA
BRANCH  45  52
ATOM     50  C   UNL     1      -8.199   4.543  75.569  0.00  0.00    +0.246 C 
ATOM     51  N   UNL     1      -9.038   3.925  74.621  0.00  0.00    -0.273 N 
ATOM     52  C   UNL     1      -8.548   3.691  73.123  0.00  0.00    +0.134 C 
ATOM     53  C   UNL     1     -10.087   3.534  72.512  0.00  0.00    +0.029 C 
ATOM     54  C   UNL     1     -10.956   3.589  73.680  0.00  0.00    +0.024 C 
ATOM     55  C   UNL     1     -10.092   2.953  74.763  0.00  0.00    +0.094 C 
ATOM     56  O   UNL     1      -8.554   5.388  76.363  0.00  0.00    -0.273 OA
BRANCH  50  57
ATOM     57  C   UNL     1      -6.605   4.301  75.327  0.00  0.00    +0.175 C 
BRANCH  57  58
ATOM     58  C   UNL     1      -6.383   3.677  76.852  0.00  0.00    +0.029 C 
ATOM     59  C   UNL     1      -4.866   3.674  76.997  0.00  0.00    +0.002 C 
ATOM     60  C   UNL     1      -6.938   2.308  76.878  0.00  0.00    +0.002 C 
ENDBRANCH  57  58
BRANCH  57  62
ATOM     61  C   UNL     1      -5.339   6.373  74.764  0.00  0.00    +0.422 C 
ATOM     62  N   UNL     1      -6.170   5.778  75.755  0.00  0.00    -0.161 NA
ATOM     63  O   UNL     1      -4.833   5.690  73.822  0.00  0.00    -0.225 OA
BRANCH  61  65
ATOM     64  C   UNL     1      -5.515   8.785  74.616  0.00  0.00    +0.257 C 
ATOM     65  O   UNL     1      -4.780   7.633  74.930  0.00  0.00    -0.429 OA
ENDBRANCH  61  65
ENDBRANCH  57  62
ENDBRANCH  50  57
ENDBRANCH  45  52
ENDBRANCH   1  48
TORSDOF 13
ENDMDL
MODEL 3
REMARK VINA RESULT:      -6.5      2.057      3.031
REMARK  Name = 
REMARK  13 active torsions:
REMARK  status: ('A' for Active; 'I' for Inactive)
REMARK    1  A    between atoms: O_2  and  C_3
REMARK    2  A    between atoms: N_5  and  C_6
REMARK    3  A    between atoms: C_6  and  C_7
REMARK    4  A    between atoms: C_6  and  C_63
REMARK    5  A    between atoms: C_13  and  C_14
REMARK    6  A    between atoms: C_16  and  C_17
REMARK    7  A    between atoms: C_25  and  C_26
REMARK    8  A    between atoms: C_35  and  C_36
REMARK    9  A    between atoms: C_39  and  C_40
REMARK   10  A    between atoms: C_45  and  C_47
REMARK   11  A    between atoms: C_47  and  N_48
REMARK   12  A    between atoms: C_47  and  C_53
REMARK   13  A    between atoms: C_49  and  O_51
REMARK                            x       y       z     vdW  Elec       q    Type
REMARK                         _______ _______ _______ _____ _____    ______ ____
ROOT
ATOM      1  C   UNL     1     -10.091   8.045  70.645  0.00  0.00    +0.019 A 
ATOM      2  C   UNL     1     -10.832   9.129  71.099  0.00  0.00    +0.003 A 
ATOM      3  C   UNL     1     -11.389   9.982  70.149  0.00  0.00    +0.017 A 
ATOM      4  C   UNL     1     -11.851  11.293  70.209  0.00  0.00    +0.019 A 
ATOM      5  C   UNL     1     -11.340  11.972  69.107  0.00  0.00    +0.066 A 
ATOM      6  C   UNL     1     -11.488  13.329  68.679  0.00  0.00    +0.050 A 
ATOM      7  C   UNL     1     -11.135  13.685  67.398  0.00  0.00    +0.142 A 
ATOM      8  C   UNL     1     -11.373  15.019  67.078  0.00  0.00    +0.039 A 
ATOM      9  C   UNL     1     -11.008  15.899  68.095  0.00  0.00    +0.022 A 
ATOM     10  C   UNL     1     -11.660  15.636  69.294  0.00  0.00    +0.002 A 
ATOM     11  O   UNL     1     -10.918  12.674  66.544  0.00  0.00    -0.454 OA
ATOM     12  C   UNL     1     -10.034  11.467  67.032  0.00  0.00    +0.280 C 
ATOM     13  C   UNL     1     -11.831  14.294  69.616  0.00  0.00    +0.005 A 
ATOM     14  N   UNL     1     -11.037  11.070  68.228  0.00  0.00    -0.291 N 
ATOM     15  C   UNL     1     -10.966   9.857  68.829  0.00  0.00    +0.063 A 
ATOM     16  C   UNL     1     -10.605   8.590  68.387  0.00  0.00    +0.017 A 
ATOM     17  C   UNL     1     -10.415   7.621  69.362  0.00  0.00    +0.003 A 
ENDROOT
BRANCH  12  18
ATOM     18  C   UNL     1      -9.038  12.400  67.982  0.00  0.00    +0.040 A 
ATOM     19  C   UNL     1      -8.264  13.115  67.065  0.00  0.00    +0.001 A 
ATOM     20  C   UNL     1      -6.893  13.284  67.262  0.00  0.00    -0.000 A 
ATOM     21  C   UNL     1      -6.559  13.223  68.613  0.00  0.00    -0.000 A 
ATOM     22  C   UNL     1      -7.231  12.326  69.437  0.00  0.00    -0.000 A 
ATOM     23  C   UNL     1      -8.239  11.603  68.804  0.00  0.00    +0.001 A 
ENDBRANCH  12  18
BRANCH   9  24
ATOM     24  C   UNL     1     -10.379  17.178  67.914  0.00  0.00    +0.102 A 
ATOM     25  N   UNL     1      -9.523  17.883  68.697  0.00  0.00    -0.227 NA
ATOM     26  C   UNL     1      -8.541  18.217  67.864  0.00  0.00    +0.157 A 
ATOM     27  N   UNL     1      -9.168  18.621  66.736  0.00  0.00    -0.226 NA
ATOM     28  C   UNL     1     -10.237  17.789  66.671  0.00  0.00    +0.119 A 
BRANCH  26  29
ATOM     29  C   UNL     1      -7.208  19.025  68.325  0.00  0.00    +0.134 C 
ATOM     30  N   UNL     1      -6.624  17.838  69.222  0.00  0.00    -0.273 N 
ATOM     31  C   UNL     1      -5.315  18.227  69.681  0.00  0.00    +0.246 C 
ATOM     32  O   UNL     1      -4.976  18.329  70.859  0.00  0.00    -0.273 OA
ATOM     33  C   UNL     1      -6.872  16.661  68.448  0.00  0.00    +0.094 C 
ATOM     34  C   UNL     1      -6.733  17.045  66.998  0.00  0.00    +0.024 C 
ATOM     35  C   UNL     1      -6.359  18.492  66.993  0.00  0.00    +0.029 C 
BRANCH  31  36
ATOM     36  C   UNL     1      -4.134  17.811  68.630  0.00  0.00    +0.175 C 
BRANCH  36  37
ATOM     37  N   UNL     1      -3.297  19.152  68.875  0.00  0.00    -0.161 NA
ATOM     38  C   UNL     1      -3.136  19.780  67.593  0.00  0.00    +0.422 C 
ATOM     39  O   UNL     1      -2.773  19.103  66.582  0.00  0.00    -0.225 OA
BRANCH  38  40
ATOM     40  O   UNL     1      -2.945  21.167  67.595  0.00  0.00    -0.429 OA
ATOM     41  C   UNL     1      -3.071  21.808  66.327  0.00  0.00    +0.257 C 
ENDBRANCH  38  40
ENDBRANCH  36  37
BRANCH  36  42
ATOM     42  C   UNL     1      -3.344  16.898  69.773  0.00  0.00    +0.029 C 
ATOM     43  C   UNL     1      -1.938  17.250  69.822  0.00  0.00    +0.002 C 
ATOM     44  C   UNL     1      -3.662  15.463  69.384  0.00  0.00    +0.002 C 
ENDBRANCH  36  42
ENDBRANCH  31  36
ENDBRANCH  26  29
ENDBRANCH   9  24
BRANCH   1  48
ATOM     45  C   UNL     1      -8.119   5.435  71.910  0.00  0.00    +0.157 A 
ATOM     46  N   UNL     1      -7.150   6.291  71.540  0.00  0.00    -0.226 NA
ATOM     47  C   UNL     1      -7.768   7.490  71.376  0.00  0.00    +0.119 A 
ATOM     48  C   UNL     1      -9.142   7.331  71.505  0.00  0.00    +0.102 A 
ATOM     49  N   UNL     1      -9.287   6.003  71.705  0.00  0.00    -0.227 NA
BRANCH  45  52
ATOM     50  C   UNL     1      -9.670   3.740  73.619  0.00  0.00    +0.246 C 
ATOM     51  N   UNL     1      -9.329   3.471  72.279  0.00  0.00    -0.273 N 
ATOM     52  C   UNL     1      -7.884   3.832  71.712  0.00  0.00    +0.134 C 
ATOM     53  C   UNL     1      -8.370   3.830  70.122  0.00  0.00    +0.029 C 
ATOM     54  C   UNL     1      -9.762   3.405  70.161  0.00  0.00    +0.024 C 
ATOM     55  C   UNL     1      -9.785   2.461  71.358  0.00  0.00    +0.094 C 
ATOM     56  O   UNL     1     -10.725   4.212  73.986  0.00  0.00    -0.273 OA
BRANCH  50  57
ATOM     57  C   UNL     1      -8.419   3.689  74.663  0.00  0.00    +0.175 C 
BRANCH  57  58
ATOM     58  C   UNL     1      -9.276   2.803  75.778  0.00  0.00    +0.029 C 
ATOM     59  C   UNL     1      -8.351   2.802  76.990  0.00  0.00    +0.002 C 
ATOM     60  C   UNL     1      -9.470   1.442  75.238  0.00  0.00    +0.002 C 
ENDBRANCH  57  58
BRANCH  57  62
ATOM     61  C   UNL     1      -7.629   5.956  75.331  0.00  0.00    +0.422 C 
ATOM     62  N   UNL     1      -8.756   5.086  75.358  0.00  0.00    -0.161 NA
ATOM     63  O   UNL     1      -6.472   5.537  75.023  0.00  0.00    -0.225 OA
BRANCH  61  65
ATOM     64  C   UNL     1      -7.595   8.372  75.145  0.00  0.00    +0.257 C 
ATOM     65  O   UNL     1      -7.651   7.209  75.927  0.00  0.00    -0.429 OA
ENDBRANCH  61  65
ENDBRANCH  57  62
ENDBRANCH  50  57
ENDBRANCH  45  52
ENDBRANCH   1  48
TORSDOF 13
ENDMDL
MODEL 4
REMARK VINA RESULT:      -6.4      1.808      3.172
REMARK  Name = 
REMARK  13 active torsions:
REMARK  status: ('A' for Active; 'I' for Inactive)
REMARK    1  A    between atoms: O_2  and  C_3
REMARK    2  A    between atoms: N_5  and  C_6
REMARK    3  A    between atoms: C_6  and  C_7
REMARK    4  A    between atoms: C_6  and  C_63
REMARK    5  A    between atoms: C_13  and  C_14
REMARK    6  A    between atoms: C_16  and  C_17
REMARK    7  A    between atoms: C_25  and  C_26
REMARK    8  A    between atoms: C_35  and  C_36
REMARK    9  A    between atoms: C_39  and  C_40
REMARK   10  A    between atoms: C_45  and  C_47
REMARK   11  A    between atoms: C_47  and  N_48
REMARK   12  A    between atoms: C_47  and  C_53
REMARK   13  A    between atoms: C_49  and  O_51
REMARK                            x       y       z     vdW  Elec       q    Type
REMARK                         _______ _______ _______ _____ _____    ______ ____
ROOT
ATOM      1  C   UNL     1      -9.553   6.734  70.775  0.00  0.00    +0.019 A 
ATOM      2  C   UNL     1     -10.239   7.766  71.402  0.00  0.00    +0.003 A 
ATOM      3  C   UNL     1     -11.047   8.585  70.616  0.00  0.00    +0.017 A 
ATOM      4  C   UNL     1     -11.564   9.863  70.802  0.00  0.00    +0.019 A 
ATOM      5  C   UNL     1     -11.356  10.578  69.626  0.00  0.00    +0.066 A 
ATOM      6  C   UNL     1     -11.680  11.924  69.267  0.00  0.00    +0.050 A 
ATOM      7  C   UNL     1     -11.646  12.307  67.946  0.00  0.00    +0.142 A 
ATOM      8  C   UNL     1     -12.031  13.624  67.711  0.00  0.00    +0.039 A 
ATOM      9  C   UNL     1     -11.504  14.522  68.637  0.00  0.00    +0.022 A 
ATOM     10  C   UNL     1     -11.853  14.212  69.946  0.00  0.00    +0.002 A 
ATOM     11  O   UNL     1     -11.562  11.315  67.047  0.00  0.00    -0.454 OA
ATOM     12  C   UNL     1     -10.519  10.166  67.303  0.00  0.00    +0.280 C 
ATOM     13  C   UNL     1     -11.864  12.862  70.274  0.00  0.00    +0.005 A 
ATOM     14  N   UNL     1     -11.202   9.701  68.685  0.00  0.00    -0.291 N 
ATOM     15  C   UNL     1     -10.923   8.492  69.234  0.00  0.00    +0.063 A 
ATOM     16  C   UNL     1     -10.592   7.253  68.699  0.00  0.00    +0.017 A 
ATOM     17  C   UNL     1     -10.128   6.295  69.589  0.00  0.00    +0.003 A 
ENDROOT
BRANCH  12  18
ATOM     18  C   UNL     1      -9.396  11.158  68.023  0.00  0.00    +0.040 A 
ATOM     19  C   UNL     1      -8.826  11.859  66.958  0.00  0.00    +0.001 A 
ATOM     20  C   UNL     1      -7.449  12.070  66.893  0.00  0.00    -0.000 A 
ATOM     21  C   UNL     1      -6.870  12.066  68.161  0.00  0.00    -0.000 A 
ATOM     22  C   UNL     1      -7.351  11.182  69.121  0.00  0.00    -0.000 A 
ATOM     23  C   UNL     1      -8.434  10.412  68.708  0.00  0.00    +0.001 A 
ENDBRANCH  12  18
BRANCH   9  24
ATOM     24  C   UNL     1     -11.012  15.840  68.343  0.00  0.00    +0.102 A 
ATOM     25  N   UNL     1     -10.172  16.663  69.021  0.00  0.00    -0.227 NA
ATOM     26  C   UNL     1      -9.288  17.034  68.099  0.00  0.00    +0.157 A 
ATOM     27  N   UNL     1     -10.029  17.315  67.004  0.00  0.00    -0.226 NA
ATOM     28  C   UNL     1     -11.018  16.388  67.063  0.00  0.00    +0.119 A 
BRANCH  26  29
ATOM     29  C   UNL     1      -8.006  17.984  68.416  0.00  0.00    +0.134 C 
ATOM     30  N   UNL     1      -7.194  16.865  69.216  0.00  0.00    -0.273 N 
ATOM     31  C   UNL     1      -5.890  17.396  69.526  0.00  0.00    +0.246 C 
ATOM     32  O   UNL     1      -5.427  17.530  70.658  0.00  0.00    -0.273 OA
ATOM     33  C   UNL     1      -7.400  15.672  68.457  0.00  0.00    +0.094 C 
ATOM     34  C   UNL     1      -7.477  16.075  67.007  0.00  0.00    +0.024 C 
ATOM     35  C   UNL     1      -7.268  17.555  66.983  0.00  0.00    +0.029 C 
BRANCH  31  36
ATOM     36  C   UNL     1      -4.804  17.119  68.336  0.00  0.00    +0.175 C 
BRANCH  36  37
ATOM     37  N   UNL     1      -4.043  18.508  68.562  0.00  0.00    -0.161 NA
ATOM     38  C   UNL     1      -4.233  19.284  67.368  0.00  0.00    +0.422 C 
ATOM     39  O   UNL     1      -4.061  18.761  66.223  0.00  0.00    -0.225 OA
BRANCH  38  40
ATOM     40  O   UNL     1      -4.159  20.675  67.506  0.00  0.00    -0.429 OA
ATOM     41  C   UNL     1      -5.307  21.400  67.069  0.00  0.00    +0.257 C 
ENDBRANCH  38  40
ENDBRANCH  36  37
BRANCH  36  42
ATOM     42  C   UNL     1      -3.831  16.220  69.341  0.00  0.00    +0.029 C 
ATOM     43  C   UNL     1      -2.470  16.721  69.314  0.00  0.00    +0.002 C 
ATOM     44  C   UNL     1      -4.027  14.790  68.862  0.00  0.00    +0.002 C 
ENDBRANCH  36  42
ENDBRANCH  31  36
ENDBRANCH  26  29
ENDBRANCH   9  24
BRANCH   1  48
ATOM     45  C   UNL     1      -7.453   5.405  73.250  0.00  0.00    +0.157 A 
ATOM     46  N   UNL     1      -7.733   4.282  72.565  0.00  0.00    -0.226 NA
ATOM     47  C   UNL     1      -8.233   4.700  71.372  0.00  0.00    +0.119 A 
ATOM     48  C   UNL     1      -8.393   6.079  71.388  0.00  0.00    +0.102 A 
ATOM     49  N   UNL     1      -8.009   6.425  72.636  0.00  0.00    -0.227 NA
BRANCH  45  52
ATOM     50  C   UNL     1      -7.589   7.921  74.611  0.00  0.00    +0.246 C 
ATOM     51  N   UNL     1      -8.114   6.700  75.079  0.00  0.00    -0.273 N 
ATOM     52  C   UNL     1      -7.319   5.334  74.875  0.00  0.00    +0.134 C 
ATOM     53  C   UNL     1      -8.664   4.376  75.069  0.00  0.00    +0.029 C 
ATOM     54  C   UNL     1      -9.733   5.305  75.412  0.00  0.00    +0.024 C 
ATOM     55  C   UNL     1      -8.991   6.393  76.180  0.00  0.00    +0.094 C 
ATOM     56  O   UNL     1      -8.229   8.777  74.037  0.00  0.00    -0.273 OA
BRANCH  50  57
ATOM     57  C   UNL     1      -5.961   7.995  74.584  0.00  0.00    +0.175 C 
BRANCH  57  58
ATOM     58  C   UNL     1      -5.905   9.050  75.868  0.00  0.00    +0.029 C 
ATOM     59  C   UNL     1      -5.055  10.194  75.327  0.00  0.00    +0.002 C 
ATOM     60  C   UNL     1      -5.245   8.366  77.000  0.00  0.00    +0.002 C 
ENDBRANCH  57  58
BRANCH  57  62
ATOM     61  C   UNL     1      -5.279   8.696  72.292  0.00  0.00    +0.422 C 
ATOM     62  N   UNL     1      -5.890   9.159  73.492  0.00  0.00    -0.161 NA
ATOM     63  O   UNL     1      -4.661   7.589  72.242  0.00  0.00    -0.225 OA
BRANCH  61  65
ATOM     64  C   UNL     1      -4.360  10.747  71.386  0.00  0.00    +0.257 C 
ATOM     65  O   UNL     1      -5.046   9.537  71.212  0.00  0.00    -0.429 OA
ENDBRANCH  61  65
ENDBRANCH  57  62
ENDBRANCH  50  57
ENDBRANCH  45  52
ENDBRANCH   1  48
TORSDOF 13
ENDMDL
MODEL 5
REMARK VINA RESULT:      -6.4      1.952      3.276
REMARK  Name = 
REMARK  13 active torsions:
REMARK  status: ('A' for Active; 'I' for Inactive)
REMARK    1  A    between atoms: O_2  and  C_3
REMARK    2  A    between atoms: N_5  and  C_6
REMARK    3  A    between atoms: C_6  and  C_7
REMARK    4  A    between atoms: C_6  and  C_63
REMARK    5  A    between atoms: C_13  and  C_14
REMARK    6  A    between atoms: C_16  and  C_17
REMARK    7  A    between atoms: C_25  and  C_26
REMARK    8  A    between atoms: C_35  and  C_36
REMARK    9  A    between atoms: C_39  and  C_40
REMARK   10  A    between atoms: C_45  and  C_47
REMARK   11  A    between atoms: C_47  and  N_48
REMARK   12  A    between atoms: C_47  and  C_53
REMARK   13  A    between atoms: C_49  and  O_51
REMARK                            x       y       z     vdW  Elec       q    Type
REMARK                         _______ _______ _______ _____ _____    ______ ____
ROOT
ATOM      1  C   UNL     1      -9.689   7.755  68.762  0.00  0.00    +0.019 A 
ATOM      2  C   UNL     1     -10.645   8.644  69.236  0.00  0.00    +0.003 A 
ATOM      3  C   UNL     1     -11.061   9.668  68.389  0.00  0.00    +0.017 A 
ATOM      4  C   UNL     1     -11.683  10.891  68.617  0.00  0.00    +0.019 A 
ATOM      5  C   UNL     1     -11.012  11.853  67.867  0.00  0.00    +0.066 A 
ATOM      6  C   UNL     1     -11.221  13.261  67.728  0.00  0.00    +0.050 A 
ATOM      7  C   UNL     1     -10.620  13.944  66.696  0.00  0.00    +0.142 A 
ATOM      8  C   UNL     1     -10.938  15.299  66.631  0.00  0.00    +0.039 A 
ATOM      9  C   UNL     1     -10.938  15.921  67.878  0.00  0.00    +0.022 A 
ATOM     10  C   UNL     1     -11.819  15.329  68.775  0.00  0.00    +0.002 A 
ATOM     11  O   UNL     1     -10.081  13.191  65.726  0.00  0.00    -0.454 OA
ATOM     12  C   UNL     1      -9.197  11.960  66.146  0.00  0.00    +0.280 C 
ATOM     13  C   UNL     1     -11.895  13.942  68.734  0.00  0.00    +0.005 A 
ATOM     14  N   UNL     1     -10.399  11.217  66.919  0.00  0.00    -0.291 N 
ATOM     15  C   UNL     1     -10.324   9.900  67.232  0.00  0.00    +0.063 A 
ATOM     16  C   UNL     1      -9.714   8.807  66.629  0.00  0.00    +0.017 A 
ATOM     17  C   UNL     1      -9.642   7.641  67.377  0.00  0.00    +0.003 A 
ENDROOT
BRANCH  12  18
ATOM     18  C   UNL     1      -8.580  12.690  67.506  0.00  0.00    +0.040 A 
ATOM     19  C   UNL     1      -7.636  13.593  67.010  0.00  0.00    +0.001 A 
ATOM     20  C   UNL     1      -6.392  13.739  67.625  0.00  0.00    -0.000 A 
ATOM     21  C   UNL     1      -6.446  13.403  68.976  0.00  0.00    -0.000 A 
ATOM     22  C   UNL     1      -7.252  12.344  69.378  0.00  0.00    -0.000 A 
ATOM     23  C   UNL     1      -7.985  11.752  68.353  0.00  0.00    +0.001 A 
ENDBRANCH  12  18
BRANCH   9  24
ATOM     24  C   UNL     1     -10.447  17.243  68.157  0.00  0.00    +0.102 A 
ATOM     25  N   UNL     1      -9.614  17.712  69.121  0.00  0.00    -0.227 NA
ATOM     26  C   UNL     1      -8.725  18.430  68.440  0.00  0.00    +0.157 A 
ATOM     27  N   UNL     1      -9.458  19.138  67.552  0.00  0.00    -0.226 NA
ATOM     28  C   UNL     1     -10.445  18.269  67.217  0.00  0.00    +0.119 A 
BRANCH  26  29
ATOM     29  C   UNL     1      -7.448  19.165  69.130  0.00  0.00    +0.134 C 
ATOM     30  N   UNL     1      -6.665  17.811  69.458  0.00  0.00    -0.273 N 
ATOM     31  C   UNL     1      -5.368  18.160  69.980  0.00  0.00    +0.246 C 
ATOM     32  O   UNL     1      -4.938  17.841  71.088  0.00  0.00    -0.273 OA
ATOM     33  C   UNL     1      -6.855  17.005  68.292  0.00  0.00    +0.094 C 
ATOM     34  C   UNL     1      -6.888  17.937  67.109  0.00  0.00    +0.024 C 
ATOM     35  C   UNL     1      -6.670  19.308  67.662  0.00  0.00    +0.029 C 
BRANCH  31  36
ATOM     36  C   UNL     1      -4.249  18.346  68.804  0.00  0.00    +0.175 C 
BRANCH  36  37
ATOM     37  N   UNL     1      -3.298  19.263  69.705  0.00  0.00    -0.161 NA
ATOM     38  C   UNL     1      -3.653  20.626  69.430  0.00  0.00    +0.422 C 
ATOM     39  O   UNL     1      -3.803  21.027  68.233  0.00  0.00    -0.225 OA
BRANCH  38  40
ATOM     40  O   UNL     1      -3.385  21.560  70.438  0.00  0.00    -0.429 OA
ATOM     41  C   UNL     1      -3.806  21.188  71.750  0.00  0.00    +0.257 C 
ENDBRANCH  38  40
ENDBRANCH  36  37
BRANCH  36  42
ATOM     42  C   UNL     1      -3.513  16.903  69.181  0.00  0.00    +0.029 C 
ATOM     43  C   UNL     1      -2.182  17.133  69.707  0.00  0.00    +0.002 C 
ATOM     44  C   UNL     1      -3.595  16.099  67.893  0.00  0.00    +0.002 C 
ENDBRANCH  36  42
ENDBRANCH  31  36
ENDBRANCH  26  29
ENDBRANCH   9  24
BRANCH   1  48
ATOM     45  C   UNL     1      -8.903   5.580  71.398  0.00  0.00    +0.157 A 
ATOM     46  N   UNL     1      -8.568   4.800  70.356  0.00  0.00    -0.226 NA
ATOM     47  C   UNL     1      -8.471   5.640  69.291  0.00  0.00    +0.119 A 
ATOM     48  C   UNL     1      -8.892   6.912  69.658  0.00  0.00    +0.102 A 
ATOM     49  N   UNL     1      -9.267   6.759  70.946  0.00  0.00    -0.227 NA
BRANCH  45  52
ATOM     50  C   UNL     1      -7.393   5.765  73.825  0.00  0.00    +0.246 C 
ATOM     51  N   UNL     1      -8.795   5.843  73.718  0.00  0.00    -0.273 N 
ATOM     52  C   UNL     1      -9.595   4.901  72.711  0.00  0.00    +0.134 C 
ATOM     53  C   UNL     1     -10.939   5.879  72.665  0.00  0.00    +0.029 C 
ATOM     54  C   UNL     1     -10.659   6.938  73.625  0.00  0.00    +0.024 C 
ATOM     55  C   UNL     1      -9.810   6.220  74.669  0.00  0.00    +0.094 C 
ATOM     56  O   UNL     1      -6.648   6.719  73.890  0.00  0.00    -0.273 OA
BRANCH  50  57
ATOM     57  C   UNL     1      -6.769   4.290  73.519  0.00  0.00    +0.175 C 
BRANCH  57  58
ATOM     58  C   UNL     1      -6.174   4.130  75.064  0.00  0.00    +0.029 C 
ATOM     59  C   UNL     1      -5.092   3.068  74.899  0.00  0.00    +0.002 C 
ATOM     60  C   UNL     1      -7.271   3.662  75.936  0.00  0.00    +0.002 C 
ENDBRANCH  57  58
BRANCH  57  62
ATOM     61  C   UNL     1      -5.123   4.285  71.648  0.00  0.00    +0.422 C 
ATOM     62  N   UNL     1      -5.388   4.839  72.933  0.00  0.00    -0.161 NA
ATOM     63  O   UNL     1      -5.787   3.303  71.196  0.00  0.00    -0.225 OA
BRANCH  61  65
ATOM     64  C   UNL     1      -2.986   5.417  71.499  0.00  0.00    +0.257 C 
ATOM     65  O   UNL     1      -3.953   4.559  70.954  0.00  0.00    -0.429 OA
ENDBRANCH  61  65
ENDBRANCH  57  62
ENDBRANCH  50  57
ENDBRANCH  45  52
ENDBRANCH   1  48
TORSDOF 13
ENDMDL
MODEL 6
REMARK VINA RESULT:      -6.4      1.724      3.067
REMARK  Name = 
REMARK  13 active torsions:
REMARK  status: ('A' for Active; 'I' for Inactive)
REMARK    1  A    between atoms: O_2  and  C_3
REMARK    2  A    between atoms: N_5  and  C_6
REMARK    3  A    between atoms: C_6  and  C_7
REMARK    4  A    between atoms: C_6  and  C_63
REMARK    5  A    between atoms: C_13  and  C_14
REMARK    6  A    between atoms: C_16  and  C_17
REMARK    7  A    between atoms: C_25  and  C_26
REMARK    8  A    between atoms: C_35  and  C_36
REMARK    9  A    between atoms: C_39  and  C_40
REMARK   10  A    between atoms: C_45  and  C_47
REMARK   11  A    between atoms: C_47  and  N_48
REMARK   12  A    between atoms: C_47  and  C_53
REMARK   13  A    between atoms: C_49  and  O_51
REMARK                            x       y       z     vdW  Elec       q    Type
REMARK                         _______ _______ _______ _____ _____    ______ ____
ROOT
ATOM      1  C   UNL     1      -8.228   7.506  71.801  0.00  0.00    +0.019 A 
ATOM      2  C   UNL     1      -9.190   8.475  72.055  0.00  0.00    +0.003 A 
ATOM      3  C   UNL     1     -10.046   8.833  71.016  0.00  0.00    +0.017 A 
ATOM      4  C   UNL     1     -10.841   9.952  70.787  0.00  0.00    +0.019 A 
ATOM      5  C   UNL     1     -10.640  10.350  69.468  0.00  0.00    +0.066 A 
ATOM      6  C   UNL     1     -11.193  11.429  68.711  0.00  0.00    +0.050 A 
ATOM      7  C   UNL     1     -11.073  11.437  67.340  0.00  0.00    +0.142 A 
ATOM      8  C   UNL     1     -11.694  12.510  66.706  0.00  0.00    +0.039 A 
ATOM      9  C   UNL     1     -11.490  13.724  67.359  0.00  0.00    +0.022 A 
ATOM     10  C   UNL     1     -11.929  13.707  68.678  0.00  0.00    +0.002 A 
ATOM     11  O   UNL     1     -10.668  10.288  66.778  0.00  0.00    -0.454 OA
ATOM     12  C   UNL     1      -9.447   9.535  67.423  0.00  0.00    +0.280 C 
ATOM     13  C   UNL     1     -11.697  12.533  69.385  0.00  0.00    +0.005 A 
ATOM     14  N   UNL     1     -10.187   9.313  68.836  0.00  0.00    -0.291 N 
ATOM     15  C   UNL     1      -9.731   8.401  69.731  0.00  0.00    +0.063 A 
ATOM     16  C   UNL     1      -9.081   7.179  69.605  0.00  0.00    +0.017 A 
ATOM     17  C   UNL     1      -8.543   6.637  70.763  0.00  0.00    +0.003 A 
ENDROOT
BRANCH  12  18
ATOM     18  C   UNL     1      -8.659  10.923  67.889  0.00  0.00    +0.040 A 
ATOM     19  C   UNL     1      -8.090  11.405  66.708  0.00  0.00    +0.001 A 
ATOM     20  C   UNL     1      -6.787  11.903  66.690  0.00  0.00    -0.000 A 
ATOM     21  C   UNL     1      -6.410  12.393  67.939  0.00  0.00    -0.000 A 
ATOM     22  C   UNL     1      -6.841  11.732  69.084  0.00  0.00    -0.000 A 
ATOM     23  C   UNL     1      -7.679  10.646  68.845  0.00  0.00    +0.001 A 
ENDBRANCH  12  18
BRANCH   9  24
ATOM     24  C   UNL     1     -11.254  14.990  66.722  0.00  0.00    +0.102 A 
ATOM     25  N   UNL     1     -10.865  16.192  67.219  0.00  0.00    -0.227 NA
ATOM     26  C   UNL     1      -9.861  16.548  66.422  0.00  0.00    +0.157 A 
ATOM     27  N   UNL     1     -10.292  16.260  65.174  0.00  0.00    -0.226 NA
ATOM     28  C   UNL     1     -11.011  15.124  65.358  0.00  0.00    +0.119 A 
BRANCH  26  29
ATOM     29  C   UNL     1      -8.986  17.904  66.632  0.00  0.00    +0.134 C 
ATOM     30  N   UNL     1      -8.580  17.579  68.143  0.00  0.00    -0.273 N 
ATOM     31  C   UNL     1      -7.647  18.586  68.581  0.00  0.00    +0.246 C 
ATOM     32  O   UNL     1      -7.814  19.343  69.537  0.00  0.00    -0.273 OA
ATOM     33  C   UNL     1      -8.285  16.180  68.133  0.00  0.00    +0.094 C 
ATOM     34  C   UNL     1      -7.673  15.864  66.793  0.00  0.00    +0.024 C 
ATOM     35  C   UNL     1      -7.606  17.164  66.058  0.00  0.00    +0.029 C 
BRANCH  31  36
ATOM     36  C   UNL     1      -6.098  18.194  68.240  0.00  0.00    +0.175 C 
BRANCH  36  37
ATOM     37  N   UNL     1      -5.666  19.708  67.954  0.00  0.00    -0.161 NA
ATOM     38  C   UNL     1      -5.063  19.729  66.651  0.00  0.00    +0.422 C 
ATOM     39  O   UNL     1      -4.199  18.857  66.324  0.00  0.00    -0.225 OA
BRANCH  38  40
ATOM     40  O   UNL     1      -5.106  20.946  65.960  0.00  0.00    -0.429 OA
ATOM     41  C   UNL     1      -3.853  21.421  65.470  0.00  0.00    +0.257 C 
ENDBRANCH  38  40
ENDBRANCH  36  37
BRANCH  36  42
ATOM     42  C   UNL     1      -5.673  18.189  69.847  0.00  0.00    +0.029 C 
ATOM     43  C   UNL     1      -4.554  19.081  70.081  0.00  0.00    +0.002 C 
ATOM     44  C   UNL     1      -5.436  16.721  70.161  0.00  0.00    +0.002 C 
ENDBRANCH  36  42
ENDBRANCH  31  36
ENDBRANCH  26  29
ENDBRANCH   9  24
BRANCH   1  48
ATOM     45  C   UNL     1      -6.075   6.146  74.212  0.00  0.00    +0.157 A 
ATOM     46  N   UNL     1      -5.320   5.972  73.113  0.00  0.00    -0.226 NA
ATOM     47  C   UNL     1      -5.866   6.781  72.167  0.00  0.00    +0.119 A 
ATOM     48  C   UNL     1      -7.044   7.338  72.649  0.00  0.00    +0.102 A 
ATOM     49  N   UNL     1      -7.170   6.791  73.877  0.00  0.00    -0.227 NA
BRANCH  45  52
ATOM     50  C   UNL     1      -7.759   3.878  73.742  0.00  0.00    +0.246 C 
ATOM     51  N   UNL     1      -6.497   3.853  74.366  0.00  0.00    -0.273 N 
ATOM     52  C   UNL     1      -6.059   5.004  75.378  0.00  0.00    +0.134 C 
ATOM     53  C   UNL     1      -4.433   4.693  75.226  0.00  0.00    +0.029 C 
ATOM     54  C   UNL     1      -4.360   3.516  74.370  0.00  0.00    +0.024 C 
ATOM     55  C   UNL     1      -5.632   2.762  74.738  0.00  0.00    +0.094 C 
ATOM     56  O   UNL     1      -7.960   3.626  72.572  0.00  0.00    -0.273 OA
BRANCH  50  57
ATOM     57  C   UNL     1      -8.933   4.601  74.611  0.00  0.00    +0.175 C 
BRANCH  57  58
ATOM     58  C   UNL     1      -9.213   3.238  75.521  0.00  0.00    +0.029 C 
ATOM     59  C   UNL     1     -10.257   2.493  74.697  0.00  0.00    +0.002 C 
ATOM     60  C   UNL     1      -9.750   3.659  76.832  0.00  0.00    +0.002 C 
ENDBRANCH  57  58
BRANCH  57  62
ATOM     61  C   UNL     1     -10.886   5.432  73.304  0.00  0.00    +0.422 C 
ATOM     62  N   UNL     1     -10.102   4.274  73.572  0.00  0.00    -0.161 NA
ATOM     63  O   UNL     1     -10.791   6.479  74.013  0.00  0.00    -0.225 OA
BRANCH  61  65
ATOM     64  C   UNL     1     -12.391   6.526  71.752  0.00  0.00    +0.257 C 
ATOM     65  O   UNL     1     -12.001   5.392  72.478  0.00  0.00    -0.429 OA
ENDBRANCH  61  65
ENDBRANCH  57  62
ENDBRANCH  50  57
ENDBRANCH  45  52
ENDBRANCH   1  48
TORSDOF 13
ENDMDL
MODEL 7
REMARK VINA RESULT:      -6.3      2.433     12.815
REMARK  Name = 
REMARK  13 active torsions:
REMARK  status: ('A' for Active; 'I' for Inactive)
REMARK    1  A    between atoms: O_2  and  C_3
REMARK    2  A    between atoms: N_5  and  C_6
REMARK    3  A    between atoms: C_6  and  C_7
REMARK    4  A    between atoms: C_6  and  C_63
REMARK    5  A    between atoms: C_13  and  C_14
REMARK    6  A    between atoms: C_16  and  C_17
REMARK    7  A    between atoms: C_25  and  C_26
REMARK    8  A    between atoms: C_35  and  C_36
REMARK    9  A    between atoms: C_39  and  C_40
REMARK   10  A    between atoms: C_45  and  C_47
REMARK   11  A    between atoms: C_47  and  N_48
REMARK   12  A    between atoms: C_47  and  C_53
REMARK   13  A    between atoms: C_49  and  O_51
REMARK                            x       y       z     vdW  Elec       q    Type
REMARK                         _______ _______ _______ _____ _____    ______ ____
ROOT
ATOM      1  C   UNL     1      -9.925  13.853  66.947  0.00  0.00    +0.019 A 
ATOM      2  C   UNL     1      -9.924  12.751  66.102  0.00  0.00    +0.003 A 
ATOM      3  C   UNL     1     -10.639  11.624  66.499  0.00  0.00    +0.017 A 
ATOM      4  C   UNL     1     -10.577  10.284  66.128  0.00  0.00    +0.019 A 
ATOM      5  C   UNL     1     -10.603   9.521  67.291  0.00  0.00    +0.066 A 
ATOM      6  C   UNL     1     -10.561   8.107  67.497  0.00  0.00    +0.050 A 
ATOM      7  C   UNL     1     -10.905   7.582  68.721  0.00  0.00    +0.142 A 
ATOM      8  C   UNL     1     -10.878   6.191  68.788  0.00  0.00    +0.039 A 
ATOM      9  C   UNL     1      -9.765   5.635  68.160  0.00  0.00    +0.022 A 
ATOM     10  C   UNL     1      -9.671   5.990  66.819  0.00  0.00    +0.002 A 
ATOM     11  O   UNL     1     -11.515   8.421  69.572  0.00  0.00    -0.454 OA
ATOM     12  C   UNL     1     -10.912   9.863  69.752  0.00  0.00    +0.280 C 
ATOM     13  C   UNL     1     -10.015   7.300  66.507  0.00  0.00    +0.005 A 
ATOM     14  N   UNL     1     -11.130  10.269  68.210  0.00  0.00    -0.291 N 
ATOM     15  C   UNL     1     -11.092  11.565  67.813  0.00  0.00    +0.063 A 
ATOM     16  C   UNL     1     -11.434  12.764  68.428  0.00  0.00    +0.017 A 
ATOM     17  C   UNL     1     -11.022  13.928  67.797  0.00  0.00    +0.003 A 
ENDROOT
BRANCH  12  18
ATOM     18  C   UNL     1      -9.334   9.378  69.553  0.00  0.00    +0.040 A 
ATOM     19  C   UNL     1      -9.049   8.657  70.715  0.00  0.00    +0.001 A 
ATOM     20  C   UNL     1      -7.832   8.817  71.378  0.00  0.00    -0.000 A 
ATOM     21  C   UNL     1      -6.826   9.234  70.509  0.00  0.00    -0.000 A 
ATOM     22  C   UNL     1      -7.138  10.130  69.492  0.00  0.00    -0.000 A 
ATOM     23  C   UNL     1      -8.484  10.479  69.421  0.00  0.00    +0.001 A 
ENDBRANCH  12  18
BRANCH   9  24
ATOM     24  C   UNL     1      -9.006   4.512  68.635  0.00  0.00    +0.102 A 
ATOM     25  N   UNL     1      -8.005   4.418  69.548  0.00  0.00    -0.227 NA
ATOM     26  C   UNL     1      -8.398   3.425  70.340  0.00  0.00    +0.157 A 
ATOM     27  N   UNL     1      -8.852   2.470  69.497  0.00  0.00    -0.226 NA
ATOM     28  C   UNL     1      -9.435   3.193  68.509  0.00  0.00    +0.119 A 
BRANCH  26  29
ATOM     29  C   UNL     1      -7.572   2.948  71.657  0.00  0.00    +0.134 C 
ATOM     30  N   UNL     1      -7.667   4.357  72.404  0.00  0.00    -0.273 N 
ATOM     31  C   UNL     1      -7.111   4.202  73.725  0.00  0.00    +0.246 C 
ATOM     32  O   UNL     1      -6.154   4.833  74.172  0.00  0.00    -0.273 OA
ATOM     33  C   UNL     1      -9.006   4.794  72.157  0.00  0.00    +0.094 C 
ATOM     34  C   UNL     1      -9.876   3.565  72.125  0.00  0.00    +0.024 C 
ATOM     35  C   UNL     1      -8.965   2.412  72.402  0.00  0.00    +0.029 C 
BRANCH  31  36
ATOM     36  C   UNL     1      -8.225   3.718  74.819  0.00  0.00    +0.175 C 
BRANCH  36  37
ATOM     37  N   UNL     1      -7.150   2.976  75.742  0.00  0.00    -0.161 NA
ATOM     38  C   UNL     1      -7.385   1.566  75.603  0.00  0.00    +0.422 C 
ATOM     39  O   UNL     1      -8.563   1.096  75.673  0.00  0.00    -0.225 OA
BRANCH  38  40
ATOM     40  O   UNL     1      -6.294   0.722  75.843  0.00  0.00    -0.429 OA
ATOM     41  C   UNL     1      -5.008   1.326  75.713  0.00  0.00    +0.257 C 
ENDBRANCH  38  40
ENDBRANCH  36  37
BRANCH  36  42
ATOM     42  C   UNL     1      -8.171   5.174  75.619  0.00  0.00    +0.029 C 
ATOM     43  C   UNL     1      -7.732   4.986  76.988  0.00  0.00    +0.002 C 
ATOM     44  C   UNL     1      -9.568   5.747  75.437  0.00  0.00    +0.002 C 
ENDBRANCH  36  42
ENDBRANCH  31  36
ENDBRANCH  26  29
ENDBRANCH   9  24
BRANCH   1  48
ATOM     45  C   UNL     1      -8.266  16.880  67.568  0.00  0.00    +0.157 A 
ATOM     46  N   UNL     1      -7.326  16.017  67.992  0.00  0.00    -0.226 NA
ATOM     47  C   UNL     1      -7.680  14.812  67.472  0.00  0.00    +0.119 A 
ATOM     48  C   UNL     1      -8.918  14.914  66.851  0.00  0.00    +0.102 A 
ATOM     49  N   UNL     1      -9.273  16.199  67.069  0.00  0.00    -0.227 NA
BRANCH  45  52
ATOM     50  C   UNL     1      -7.235  19.215  66.270  0.00  0.00    +0.246 C 
ATOM     51  N   UNL     1      -8.416  19.150  67.035  0.00  0.00    -0.273 N 
ATOM     52  C   UNL     1      -8.479  18.284  68.372  0.00  0.00    +0.134 C 
ATOM     53  C   UNL     1     -10.139  18.177  68.373  0.00  0.00    +0.029 C 
ATOM     54  C   UNL     1     -10.563  19.003  67.250  0.00  0.00    +0.024 C 
ATOM     55  C   UNL     1      -9.494  20.089  67.217  0.00  0.00    +0.094 C 
ATOM     56  O   UNL     1      -7.188  19.147  65.060  0.00  0.00    -0.273 OA
BRANCH  50  57
ATOM     57  C   UNL     1      -5.858  19.054  67.127  0.00  0.00    +0.175 C 
BRANCH  57  58
ATOM     58  C   UNL     1      -5.797  20.675  67.492  0.00  0.00    +0.029 C 
ATOM     59  C   UNL     1      -4.607  21.159  66.672  0.00  0.00    +0.002 C 
ATOM     60  C   UNL     1      -5.554  20.814  68.943  0.00  0.00    +0.002 C 
ENDBRANCH  57  58
BRANCH  57  62
ATOM     61  C   UNL     1      -4.427  17.920  65.431  0.00  0.00    +0.422 C 
ATOM     62  N   UNL     1      -4.888  19.195  65.866  0.00  0.00    -0.161 NA
ATOM     63  O   UNL     1      -4.584  16.878  66.138  0.00  0.00    -0.225 OA
BRANCH  61  65
ATOM     64  C   UNL     1      -2.986  18.909  63.753  0.00  0.00    +0.257 C 
ATOM     65  O   UNL     1      -3.522  17.780  64.388  0.00  0.00    -0.429 OA
ENDBRANCH  61  65
ENDBRANCH  57  62
ENDBRANCH  50  57
ENDBRANCH  45  52
ENDBRANCH   1  48
TORSDOF 13
ENDMDL
MODEL 8
REMARK VINA RESULT:      -6.3      2.368      3.734
REMARK  Name = 
REMARK  13 active torsions:
REMARK  status: ('A' for Active; 'I' for Inactive)
REMARK    1  A    between atoms: O_2  and  C_3
REMARK    2  A    between atoms: N_5  and  C_6
REMARK    3  A    between atoms: C_6  and  C_7
REMARK    4  A    between atoms: C_6  and  C_63
REMARK    5  A    between atoms: C_13  and  C_14
REMARK    6  A    between atoms: C_16  and  C_17
REMARK    7  A    between atoms: C_25  and  C_26
REMARK    8  A    between atoms: C_35  and  C_36
REMARK    9  A    between atoms: C_39  and  C_40
REMARK   10  A    between atoms: C_45  and  C_47
REMARK   11  A    between atoms: C_47  and  N_48
REMARK   12  A    between atoms: C_47  and  C_53
REMARK   13  A    between atoms: C_49  and  O_51
REMARK                            x       y       z     vdW  Elec       q    Type
REMARK                         _______ _______ _______ _____ _____    ______ ____
ROOT
ATOM      1  C   UNL     1      -8.552   6.439  68.668  0.00  0.00    +0.019 A 
ATOM      2  C   UNL     1      -9.728   7.170  68.782  0.00  0.00    +0.003 A 
ATOM      3  C   UNL     1     -10.061   8.036  67.743  0.00  0.00    +0.017 A 
ATOM      4  C   UNL     1     -10.907   9.138  67.664  0.00  0.00    +0.019 A 
ATOM      5  C   UNL     1     -10.222  10.149  66.996  0.00  0.00    +0.066 A 
ATOM      6  C   UNL     1     -10.607  11.481  66.646  0.00  0.00    +0.050 A 
ATOM      7  C   UNL     1      -9.870  12.186  65.722  0.00  0.00    +0.142 A 
ATOM      8  C   UNL     1     -10.369  13.451  65.421  0.00  0.00    +0.039 A 
ATOM      9  C   UNL     1     -10.798  14.152  66.547  0.00  0.00    +0.022 A 
ATOM     10  C   UNL     1     -11.780  13.475  67.260  0.00  0.00    +0.002 A 
ATOM     11  O   UNL     1      -8.981  11.476  65.011  0.00  0.00    -0.454 OA
ATOM     12  C   UNL     1      -8.056  10.462  65.780  0.00  0.00    +0.280 C 
ATOM     13  C   UNL     1     -11.621  12.098  67.365  0.00  0.00    +0.005 A 
ATOM     14  N   UNL     1      -9.287   9.570  66.312  0.00  0.00    -0.291 N 
ATOM     15  C   UNL     1      -9.090   8.315  66.786  0.00  0.00    +0.063 A 
ATOM     16  C   UNL     1      -8.177   7.311  66.486  0.00  0.00    +0.017 A 
ATOM     17  C   UNL     1      -8.123   6.236  67.361  0.00  0.00    +0.003 A 
ENDROOT
BRANCH  12  18
ATOM     18  C   UNL     1      -7.945  11.390  67.155  0.00  0.00    +0.040 A 
ATOM     19  C   UNL     1      -7.029  12.389  66.818  0.00  0.00    +0.001 A 
ATOM     20  C   UNL     1      -6.037  12.784  67.716  0.00  0.00    -0.000 A 
ATOM     21  C   UNL     1      -6.419  12.554  69.036  0.00  0.00    -0.000 A 
ATOM     22  C   UNL     1      -7.157  11.414  69.338  0.00  0.00    -0.000 A 
ATOM     23  C   UNL     1      -7.490  10.631  68.236  0.00  0.00    +0.001 A 
ENDBRANCH  12  18
BRANCH   9  24
ATOM     24  C   UNL     1     -10.614  15.558  66.781  0.00  0.00    +0.102 A 
ATOM     25  N   UNL     1     -10.109  16.238  67.842  0.00  0.00    -0.227 NA
ATOM     26  C   UNL     1      -9.226  17.065  67.289  0.00  0.00    +0.157 A 
ATOM     27  N   UNL     1      -9.853  17.562  66.199  0.00  0.00    -0.226 NA
ATOM     28  C   UNL     1     -10.577  16.503  65.759  0.00  0.00    +0.119 A 
BRANCH  26  29
ATOM     29  C   UNL     1      -8.279  18.071  68.148  0.00  0.00    +0.134 C 
ATOM     30  N   UNL     1      -7.223  16.949  68.568  0.00  0.00    -0.273 N 
ATOM     31  C   UNL     1      -6.136  17.594  69.261  0.00  0.00    +0.246 C 
ATOM     32  O   UNL     1      -5.783  17.351  70.414  0.00  0.00    -0.273 OA
ATOM     33  C   UNL     1      -7.050  16.169  67.382  0.00  0.00    +0.094 C 
ATOM     34  C   UNL     1      -7.170  17.109  66.211  0.00  0.00    +0.024 C 
ATOM     35  C   UNL     1      -7.384  18.467  66.797  0.00  0.00    +0.029 C 
BRANCH  31  36
ATOM     36  C   UNL     1      -4.962  18.105  68.245  0.00  0.00    +0.175 C 
BRANCH  36  37
ATOM     37  N   UNL     1      -4.408  19.204  69.266  0.00  0.00    -0.161 NA
ATOM     38  C   UNL     1      -5.167  20.402  69.040  0.00  0.00    +0.422 C 
ATOM     39  O   UNL     1      -5.370  20.826  67.860  0.00  0.00    -0.225 OA
BRANCH  38  40
ATOM     40  O   UNL     1      -5.269  21.291  70.116  0.00  0.00    -0.429 OA
ATOM     41  C   UNL     1      -4.272  21.153  71.127  0.00  0.00    +0.257 C 
ENDBRANCH  38  40
ENDBRANCH  36  37
BRANCH  36  42
ATOM     42  C   UNL     1      -3.931  16.889  68.715  0.00  0.00    +0.029 C 
ATOM     43  C   UNL     1      -2.764  17.439  69.377  0.00  0.00    +0.002 C 
ATOM     44  C   UNL     1      -3.670  16.110  67.436  0.00  0.00    +0.002 C 
ENDBRANCH  36  42
ENDBRANCH  31  36
ENDBRANCH  26  29
ENDBRANCH   9  24
BRANCH   1  48
ATOM     45  C   UNL     1      -8.077   5.267  71.939  0.00  0.00    +0.157 A 
ATOM     46  N   UNL     1      -7.999   4.103  71.269  0.00  0.00    -0.226 NA
ATOM     47  C   UNL     1      -7.797   4.446  69.969  0.00  0.00    +0.119 A 
ATOM     48  C   UNL     1      -7.898   5.824  69.826  0.00  0.00    +0.102 A 
ATOM     49  N   UNL     1      -8.203   6.247  71.072  0.00  0.00    -0.227 NA
BRANCH  45  52
ATOM     50  C   UNL     1      -8.274   7.847  73.166  0.00  0.00    +0.246 C 
ATOM     51  N   UNL     1      -9.238   6.822  73.239  0.00  0.00    -0.273 N 
ATOM     52  C   UNL     1      -8.803   5.298  73.399  0.00  0.00    +0.134 C 
ATOM     53  C   UNL     1     -10.247   4.695  72.833  0.00  0.00    +0.029 C 
ATOM     54  C   UNL     1     -11.083   5.870  72.630  0.00  0.00    +0.024 C 
ATOM     55  C   UNL     1     -10.595   6.815  73.723  0.00  0.00    +0.094 C 
ATOM     56  O   UNL     1      -8.310   8.779  72.391  0.00  0.00    -0.273 OA
BRANCH  50  57
ATOM     57  C   UNL     1      -6.893   7.540  73.975  0.00  0.00    +0.175 C 
BRANCH  57  58
ATOM     58  C   UNL     1      -7.483   8.181  75.392  0.00  0.00    +0.029 C 
ATOM     59  C   UNL     1      -6.510   9.320  75.676  0.00  0.00    +0.002 C 
ATOM     60  C   UNL     1      -7.421   7.136  76.434  0.00  0.00    +0.002 C 
ENDBRANCH  57  58
BRANCH  57  62
ATOM     61  C   UNL     1      -5.146   8.645  72.583  0.00  0.00    +0.422 C 
ATOM     62  N   UNL     1      -6.170   8.897  73.541  0.00  0.00    -0.161 NA
ATOM     63  O   UNL     1      -4.734   7.471  72.342  0.00  0.00    -0.225 OA
BRANCH  61  65
ATOM     64  C   UNL     1      -4.117   9.796  70.716  0.00  0.00    +0.257 C 
ATOM     65  O   UNL     1      -4.330   9.657  72.095  0.00  0.00    -0.429 OA
ENDBRANCH  61  65
ENDBRANCH  57  62
ENDBRANCH  50  57
ENDBRANCH  45  52
ENDBRANCH   1  48
TORSDOF 13
ENDMDL
MODEL 9
REMARK VINA RESULT:      -6.2      1.472      2.115
REMARK  Name = 
REMARK  13 active torsions:
REMARK  status: ('A' for Active; 'I' for Inactive)
REMARK    1  A    between atoms: O_2  and  C_3
REMARK    2  A    between atoms: N_5  and  C_6
REMARK    3  A    between atoms: C_6  and  C_7
REMARK    4  A    between atoms: C_6  and  C_63
REMARK    5  A    between atoms: C_13  and  C_14
REMARK    6  A    between atoms: C_16  and  C_17
REMARK    7  A    between atoms: C_25  and  C_26
REMARK    8  A    between atoms: C_35  and  C_36
REMARK    9  A    between atoms: C_39  and  C_40
REMARK   10  A    between atoms: C_45  and  C_47
REMARK   11  A    between atoms: C_47  and  N_48
REMARK   12  A    between atoms: C_47  and  C_53
REMARK   13  A    between atoms: C_49  and  O_51
REMARK                            x       y       z     vdW  Elec       q    Type
REMARK                         _______ _______ _______ _____ _____    ______ ____
ROOT
ATOM      1  C   UNL     1      -9.563   6.758  71.008  0.00  0.00    +0.019 A 
ATOM      2  C   UNL     1     -10.253   7.813  71.592  0.00  0.00    +0.003 A 
ATOM      3  C   UNL     1     -11.063   8.596  70.773  0.00  0.00    +0.017 A 
ATOM      4  C   UNL     1     -11.584   9.879  70.905  0.00  0.00    +0.019 A 
ATOM      5  C   UNL     1     -11.378  10.545  69.700  0.00  0.00    +0.066 A 
ATOM      6  C   UNL     1     -11.707  11.873  69.285  0.00  0.00    +0.050 A 
ATOM      7  C   UNL     1     -11.674  12.201  67.949  0.00  0.00    +0.142 A 
ATOM      8  C   UNL     1     -12.063  13.506  67.659  0.00  0.00    +0.039 A 
ATOM      9  C   UNL     1     -11.538  14.444  68.547  0.00  0.00    +0.022 A 
ATOM     10  C   UNL     1     -11.887  14.188  69.868  0.00  0.00    +0.002 A 
ATOM     11  O   UNL     1     -11.588  11.173  67.092  0.00  0.00    -0.454 OA
ATOM     12  C   UNL     1     -10.540  10.039  67.396  0.00  0.00    +0.280 C 
ATOM     13  C   UNL     1     -11.893  12.852  70.252  0.00  0.00    +0.005 A 
ATOM     14  N   UNL     1     -11.222   9.630  68.796  0.00  0.00    -0.291 N 
ATOM     15  C   UNL     1     -10.939   8.446  69.395  0.00  0.00    +0.063 A 
ATOM     16  C   UNL     1     -10.605   7.186  68.913  0.00  0.00    +0.017 A 
ATOM     17  C   UNL     1     -10.138   6.268  69.842  0.00  0.00    +0.003 A 
ENDROOT
BRANCH  12  18
ATOM     18  C   UNL     1      -9.420  11.063  68.074  0.00  0.00    +0.040 A 
ATOM     19  C   UNL     1      -8.886  11.754  66.984  0.00  0.00    +0.001 A 
ATOM     20  C   UNL     1      -7.514  11.989  66.886  0.00  0.00    -0.000 A 
ATOM     21  C   UNL     1      -6.909  12.018  68.140  0.00  0.00    -0.000 A 
ATOM     22  C   UNL     1      -7.353  11.144  69.127  0.00  0.00    -0.000 A 
ATOM     23  C   UNL     1      -8.431  10.347  68.751  0.00  0.00    +0.001 A 
ENDBRANCH  12  18
BRANCH   9  24
ATOM     24  C   UNL     1     -11.051  15.750  68.198  0.00  0.00    +0.102 A 
ATOM     25  N   UNL     1     -10.230  16.611  68.851  0.00  0.00    -0.227 NA
ATOM     26  C   UNL     1      -9.331  16.944  67.928  0.00  0.00    +0.157 A 
ATOM     27  N   UNL     1     -10.053  17.166  66.807  0.00  0.00    -0.226 NA
ATOM     28  C   UNL     1     -11.036  16.235  66.893  0.00  0.00    +0.119 A 
BRANCH  26  29
ATOM     29  C   UNL     1      -8.063  17.919  68.221  0.00  0.00    +0.134 C 
ATOM     30  N   UNL     1      -7.288  16.871  69.146  0.00  0.00    -0.273 N 
ATOM     31  C   UNL     1      -5.998  17.428  69.469  0.00  0.00    +0.246 C 
ATOM     32  O   UNL     1      -5.586  17.656  70.605  0.00  0.00    -0.273 OA
ATOM     33  C   UNL     1      -7.464  15.619  68.480  0.00  0.00    +0.094 C 
ATOM     34  C   UNL     1      -7.476  15.902  67.000  0.00  0.00    +0.024 C 
ATOM     35  C   UNL     1      -7.262  17.375  66.863  0.00  0.00    +0.029 C 
BRANCH  31  36
ATOM     36  C   UNL     1      -4.861  17.056  68.355  0.00  0.00    +0.175 C 
BRANCH  36  37
ATOM     37  N   UNL     1      -4.129  18.472  68.474  0.00  0.00    -0.161 NA
ATOM     38  C   UNL     1      -4.309  19.140  67.215  0.00  0.00    +0.422 C 
ATOM     39  O   UNL     1      -4.106  18.525  66.122  0.00  0.00    -0.225 OA
BRANCH  38  40
ATOM     40  O   UNL     1      -4.260  20.539  67.235  0.00  0.00    -0.429 OA
ATOM     41  C   UNL     1      -5.370  21.185  67.857  0.00  0.00    +0.257 C 
ENDBRANCH  38  40
ENDBRANCH  36  37
BRANCH  36  42
ATOM     42  C   UNL     1      -3.918  16.274  69.479  0.00  0.00    +0.029 C 
ATOM     43  C   UNL     1      -2.585  16.842  69.509  0.00  0.00    +0.002 C 
ATOM     44  C   UNL     1      -4.013  14.808  69.086  0.00  0.00    +0.002 C 
ENDBRANCH  36  42
ENDBRANCH  31  36
ENDBRANCH  26  29
ENDBRANCH   9  24
BRANCH   1  48
ATOM     45  C   UNL     1      -7.331   5.768  73.525  0.00  0.00    +0.157 A 
ATOM     46  N   UNL     1      -7.767   4.561  73.124  0.00  0.00    -0.226 NA
ATOM     47  C   UNL     1      -8.353   4.771  71.915  0.00  0.00    +0.119 A 
ATOM     48  C   UNL     1      -8.402   6.133  71.648  0.00  0.00    +0.102 A 
ATOM     49  N   UNL     1      -7.865   6.690  72.756  0.00  0.00    -0.227 NA
BRANCH  45  52
ATOM     50  C   UNL     1      -4.708   6.730  74.155  0.00  0.00    +0.246 C 
ATOM     51  N   UNL     1      -5.901   7.099  74.808  0.00  0.00    -0.273 N 
ATOM     52  C   UNL     1      -7.036   6.022  75.110  0.00  0.00    +0.134 C 
ATOM     53  C   UNL     1      -8.241   7.155  75.282  0.00  0.00    +0.029 C 
ATOM     54  C   UNL     1      -7.561   8.438  75.169  0.00  0.00    +0.024 C 
ATOM     55  C   UNL     1      -6.189   8.138  75.764  0.00  0.00    +0.094 C 
ATOM     56  O   UNL     1      -4.173   7.369  73.273  0.00  0.00    -0.273 OA
BRANCH  50  57
ATOM     57  C   UNL     1      -4.234   5.193  74.420  0.00  0.00    +0.175 C 
BRANCH  57  58
ATOM     58  C   UNL     1      -2.717   5.658  74.917  0.00  0.00    +0.029 C 
ATOM     59  C   UNL     1      -1.938   4.348  74.885  0.00  0.00    +0.002 C 
ATOM     60  C   UNL     1      -2.824   6.198  76.288  0.00  0.00    +0.002 C 
ENDBRANCH  57  58
BRANCH  57  62
ATOM     61  C   UNL     1      -4.341   3.719  72.414  0.00  0.00    +0.422 C 
ATOM     62  N   UNL     1      -3.773   4.925  72.915  0.00  0.00    -0.161 NA
ATOM     63  O   UNL     1      -4.911   2.883  73.179  0.00  0.00    -0.225 OA
BRANCH  61  65
ATOM     64  C   UNL     1      -5.067   2.976  70.224  0.00  0.00    +0.257 C 
ATOM     65  O   UNL     1      -4.043   3.234  71.147  0.00  0.00    -0.429 OA
ENDBRANCH  61  65
ENDBRANCH  57  62
ENDBRANCH  50  57
ENDBRANCH  45  52
ENDBRANCH   1  48
TORSDOF 13
ENDMDL
