MODEL 1
REMARK VINA RESULT:      -5.6      0.000      0.000
REMARK  Name = 
REMARK  8 active torsions:
REMARK  status: ('A' for Active; 'I' for Inactive)
REMARK    1  A    between atoms: C_2  and  O_4
REMARK    2  A    between atoms: O_4  and  C_5
REMARK    3  A    between atoms: C_9  and  O_10
REMARK    4  A    between atoms: O_10  and  C_11
REMARK    5  A    between atoms: C_11  and  C_12
REMARK    6  A    between atoms: C_12  and  C_14
REMARK    7  A    between atoms: C_14  and  N_15
REMARK    8  A    between atoms: N_15  and  C_16
REMARK                            x       y       z     vdW  Elec       q    Type
REMARK                         _______ _______ _______ _____ _____    ______ ____
ROOT
ATOM      1  C   UNL     1      -8.949  16.256  65.991  0.00  0.00    +0.140 A 
ATOM      2  C   UNL     1      -8.020  15.637  66.821  0.00  0.00    +0.011 A 
ATOM      3  C   UNL     1      -6.708  16.322  66.992  0.00  0.00    +0.034 C 
ATOM      4  C   UNL     1      -8.429  14.621  67.675  0.00  0.00    +0.011 A 
ATOM      5  C   UNL     1      -7.524  14.206  68.792  0.00  0.00    +0.034 C 
ATOM      6  C   UNL     1      -9.743  14.164  67.698  0.00  0.00    +0.134 A 
ATOM      7  C   UNL     1     -10.504  14.493  66.583  0.00  0.00    +0.035 A 
ATOM      8  C   UNL     1     -10.066  15.478  65.704  0.00  0.00    +0.015 A 
ATOM      9  C   UNL     1     -11.040  16.035  64.731  0.00  0.00    +0.034 C 
ENDROOT
BRANCH   1  10
ATOM     10  O   UNL     1      -8.963  17.643  65.812  0.00  0.00    -0.425 OA
BRANCH  10  12
ATOM     11  C   UNL     1     -10.600  18.758  67.179  0.00  0.00    +0.122 C 
ATOM     12  C   UNL     1      -9.233  18.508  66.878  0.00  0.00    +0.322 C 
ATOM     13  O   UNL     1      -8.332  19.373  67.085  0.00  0.00    -0.250 OA
ENDBRANCH  10  12
ENDBRANCH   1  10
BRANCH   6  14
ATOM     14  O   UNL     1     -10.248  13.722  68.880  0.00  0.00    -0.473 OA
BRANCH  14  15
ATOM     15  C   UNL     1     -11.277  14.224  69.654  0.00  0.00    +0.239 C 
BRANCH  15  16
ATOM     16  C   UNL     1     -10.901  15.846  69.893  0.00  0.00    +0.213 C 
ATOM     17  O   UNL     1     -12.180  16.309  69.156  0.00  0.00    -0.218 OA
BRANCH  16  18
ATOM     18  C   UNL     1     -11.688  15.878  71.381  0.00  0.00    +0.125 C 
BRANCH  18  19
ATOM     19  N   UNL     1     -13.082  15.734  70.997  0.00  0.00    -0.217 NA
BRANCH  19  20
ATOM     20  C   UNL     1     -13.840  15.326  72.165  0.00  0.00    +0.073 C 
ATOM     21  C   UNL     1     -14.060  13.835  72.224  0.00  0.00    +0.019 C 
ATOM     22  C   UNL     1     -13.170  15.823  73.414  0.00  0.00    +0.019 C 
ENDBRANCH  19  20
ENDBRANCH  18  19
ENDBRANCH  16  18
ENDBRANCH  15  16
ENDBRANCH  14  15
ENDBRANCH   6  14
TORSDOF 8
ENDMDL
MODEL 2
REMARK VINA RESULT:      -5.5      3.992      6.766
REMARK  Name = 
REMARK  8 active torsions:
REMARK  status: ('A' for Active; 'I' for Inactive)
REMARK    1  A    between atoms: C_2  and  O_4
REMARK    2  A    between atoms: O_4  and  C_5
REMARK    3  A    between atoms: C_9  and  O_10
REMARK    4  A    between atoms: O_10  and  C_11
REMARK    5  A    between atoms: C_11  and  C_12
REMARK    6  A    between atoms: C_12  and  C_14
REMARK    7  A    between atoms: C_14  and  N_15
REMARK    8  A    between atoms: N_15  and  C_16
REMARK                            x       y       z     vdW  Elec       q    Type
REMARK                         _______ _______ _______ _____ _____    ______ ____
ROOT
ATOM      1  C   UNL     1     -10.948   9.341  69.586  0.00  0.00    +0.140 A 
ATOM      2  C   UNL     1     -11.813   9.853  70.548  0.00  0.00    +0.011 A 
ATOM      3  C   UNL     1     -11.952   9.075  71.811  0.00  0.00    +0.034 C 
ATOM      4  C   UNL     1     -12.255  11.165  70.447  0.00  0.00    +0.011 A 
ATOM      5  C   UNL     1     -12.889  11.810  71.640  0.00  0.00    +0.034 C 
ATOM      6  C   UNL     1     -11.895  11.983  69.381  0.00  0.00    +0.134 A 
ATOM      7  C   UNL     1     -11.411  11.318  68.262  0.00  0.00    +0.035 A 
ATOM      8  C   UNL     1     -11.015   9.989  68.357  0.00  0.00    +0.015 A 
ATOM      9  C   UNL     1     -10.201   9.417  67.252  0.00  0.00    +0.034 C 
ENDROOT
BRANCH   1  10
ATOM     10  O   UNL     1      -9.846   8.553  69.936  0.00  0.00    -0.425 OA
BRANCH  10  12
ATOM     11  C   UNL     1     -11.023   6.548  69.313  0.00  0.00    +0.122 C 
ATOM     12  C   UNL     1      -9.950   7.161  70.018  0.00  0.00    +0.322 C 
ATOM     13  O   UNL     1      -9.483   6.668  71.086  0.00  0.00    -0.250 OA
ENDBRANCH  10  12
ENDBRANCH   1  10
BRANCH   6  14
ATOM     14  O   UNL     1     -11.757  13.316  69.613  0.00  0.00    -0.473 OA
BRANCH  14  15
ATOM     15  C   UNL     1     -11.500  14.351  68.735  0.00  0.00    +0.239 C 
BRANCH  15  16
ATOM     16  C   UNL     1     -10.948  15.618  69.694  0.00  0.00    +0.213 C 
ATOM     17  O   UNL     1     -11.535  16.676  68.730  0.00  0.00    -0.218 OA
BRANCH  16  18
ATOM     18  C   UNL     1     -12.351  15.615  70.623  0.00  0.00    +0.125 C 
BRANCH  18  19
ATOM     19  N   UNL     1     -11.883  16.146  71.892  0.00  0.00    -0.217 NA
BRANCH  19  20
ATOM     20  C   UNL     1     -12.939  15.986  72.875  0.00  0.00    +0.073 C 
ATOM     21  C   UNL     1     -14.162  15.309  72.309  0.00  0.00    +0.019 C 
ATOM     22  C   UNL     1     -12.419  15.248  74.075  0.00  0.00    +0.019 C 
ENDBRANCH  19  20
ENDBRANCH  18  19
ENDBRANCH  16  18
ENDBRANCH  15  16
ENDBRANCH  14  15
ENDBRANCH   6  14
TORSDOF 8
ENDMDL
MODEL 3
REMARK VINA RESULT:      -5.5      4.841      6.563
REMARK  Name = 
REMARK  8 active torsions:
REMARK  status: ('A' for Active; 'I' for Inactive)
REMARK    1  A    between atoms: C_2  and  O_4
REMARK    2  A    between atoms: O_4  and  C_5
REMARK    3  A    between atoms: C_9  and  O_10
REMARK    4  A    between atoms: O_10  and  C_11
REMARK    5  A    between atoms: C_11  and  C_12
REMARK    6  A    between atoms: C_12  and  C_14
REMARK    7  A    between atoms: C_14  and  N_15
REMARK    8  A    between atoms: N_15  and  C_16
REMARK                            x       y       z     vdW  Elec       q    Type
REMARK                         _______ _______ _______ _____ _____    ______ ____
ROOT
ATOM      1  C   UNL     1     -11.455  11.953  67.195  0.00  0.00    +0.140 A 
ATOM      2  C   UNL     1     -11.630  12.912  68.187  0.00  0.00    +0.011 A 
ATOM      3  C   UNL     1     -11.996  14.285  67.739  0.00  0.00    +0.034 C 
ATOM      4  C   UNL     1     -11.767  12.517  69.511  0.00  0.00    +0.011 A 
ATOM      5  C   UNL     1     -12.295  13.499  70.509  0.00  0.00    +0.034 C 
ATOM      6  C   UNL     1     -11.690  11.181  69.891  0.00  0.00    +0.134 A 
ATOM      7  C   UNL     1     -11.096  10.335  68.964  0.00  0.00    +0.035 A 
ATOM      8  C   UNL     1     -10.916  10.754  67.650  0.00  0.00    +0.015 A 
ATOM      9  C   UNL     1     -10.596   9.729  66.623  0.00  0.00    +0.034 C 
ENDROOT
BRANCH   1  10
ATOM     10  O   UNL     1     -12.131  12.030  65.973  0.00  0.00    -0.425 OA
BRANCH  10  12
ATOM     11  C   UNL     1     -12.075  12.232  63.575  0.00  0.00    +0.122 C 
ATOM     12  C   UNL     1     -11.513  12.566  64.838  0.00  0.00    +0.322 C 
ATOM     13  O   UNL     1     -10.276  12.796  64.981  0.00  0.00    -0.250 OA
ENDBRANCH  10  12
ENDBRANCH   1  10
BRANCH   6  14
ATOM     14  O   UNL     1     -12.441  10.770  70.948  0.00  0.00    -0.473 OA
BRANCH  14  15
ATOM     15  C   UNL     1     -13.450   9.830  71.013  0.00  0.00    +0.239 C 
BRANCH  15  16
ATOM     16  C   UNL     1     -13.182   8.988  72.444  0.00  0.00    +0.213 C 
ATOM     17  O   UNL     1     -14.693   8.714  72.631  0.00  0.00    -0.218 OA
BRANCH  16  18
ATOM     18  C   UNL     1     -12.969   7.533  71.627  0.00  0.00    +0.125 C 
BRANCH  18  19
ATOM     19  N   UNL     1     -11.555   7.568  71.293  0.00  0.00    -0.217 NA
BRANCH  19  20
ATOM     20  C   UNL     1     -10.808   7.919  72.487  0.00  0.00    +0.073 C 
ATOM     21  C   UNL     1     -10.572   6.736  73.393  0.00  0.00    +0.019 C 
ATOM     22  C   UNL     1      -9.513   8.577  72.110  0.00  0.00    +0.019 C 
ENDBRANCH  19  20
ENDBRANCH  18  19
ENDBRANCH  16  18
ENDBRANCH  15  16
ENDBRANCH  14  15
ENDBRANCH   6  14
TORSDOF 8
ENDMDL
MODEL 4
REMARK VINA RESULT:      -5.5      3.314      6.937
REMARK  Name = 
REMARK  8 active torsions:
REMARK  status: ('A' for Active; 'I' for Inactive)
REMARK    1  A    between atoms: C_2  and  O_4
REMARK    2  A    between atoms: O_4  and  C_5
REMARK    3  A    between atoms: C_9  and  O_10
REMARK    4  A    between atoms: O_10  and  C_11
REMARK    5  A    between atoms: C_11  and  C_12
REMARK    6  A    between atoms: C_12  and  C_14
REMARK    7  A    between atoms: C_14  and  N_15
REMARK    8  A    between atoms: N_15  and  C_16
REMARK                            x       y       z     vdW  Elec       q    Type
REMARK                         _______ _______ _______ _____ _____    ______ ____
ROOT
ATOM      1  C   UNL     1     -11.744  11.340  69.369  0.00  0.00    +0.140 A 
ATOM      2  C   UNL     1     -11.067  10.933  68.224  0.00  0.00    +0.011 A 
ATOM      3  C   UNL     1     -10.769   9.479  68.098  0.00  0.00    +0.034 C 
ATOM      4  C   UNL     1     -10.973  11.794  67.138  0.00  0.00    +0.011 A 
ATOM      5  C   UNL     1     -10.560  11.241  65.809  0.00  0.00    +0.034 C 
ATOM      6  C   UNL     1     -11.499  13.081  67.171  0.00  0.00    +0.134 A 
ATOM      7  C   UNL     1     -11.765  13.579  68.440  0.00  0.00    +0.035 A 
ATOM      8  C   UNL     1     -11.809  12.720  69.533  0.00  0.00    +0.015 A 
ATOM      9  C   UNL     1     -12.417  13.218  70.794  0.00  0.00    +0.034 C 
ENDROOT
BRANCH   1  10
ATOM     10  O   UNL     1     -12.616  10.483  70.048  0.00  0.00    -0.425 OA
BRANCH  10  12
ATOM     11  C   UNL     1     -11.266   9.218  71.588  0.00  0.00    +0.122 C 
ATOM     12  C   UNL     1     -12.365  10.094  71.368  0.00  0.00    +0.322 C 
ATOM     13  O   UNL     1     -13.392  10.080  72.108  0.00  0.00    -0.250 OA
ENDBRANCH  10  12
ENDBRANCH   1  10
BRANCH   6  14
ATOM     14  O   UNL     1     -11.981  13.608  66.014  0.00  0.00    -0.473 OA
BRANCH  14  15
ATOM     15  C   UNL     1     -12.143  14.926  65.634  0.00  0.00    +0.239 C 
BRANCH  15  16
ATOM     16  C   UNL     1     -10.675  15.374  64.947  0.00  0.00    +0.213 C 
ATOM     17  O   UNL     1     -11.314  16.593  64.241  0.00  0.00    -0.218 OA
BRANCH  16  18
ATOM     18  C   UNL     1     -10.257  16.306  66.285  0.00  0.00    +0.125 C 
BRANCH  18  19
ATOM     19  N   UNL     1      -9.835  17.555  65.673  0.00  0.00    -0.217 NA
BRANCH  19  20
ATOM     20  C   UNL     1      -9.527  18.503  66.728  0.00  0.00    +0.073 C 
ATOM     21  C   UNL     1      -8.414  19.448  66.352  0.00  0.00    +0.019 C 
ATOM     22  C   UNL     1     -10.765  19.256  67.121  0.00  0.00    +0.019 C 
ENDBRANCH  19  20
ENDBRANCH  18  19
ENDBRANCH  16  18
ENDBRANCH  15  16
ENDBRANCH  14  15
ENDBRANCH   6  14
TORSDOF 8
ENDMDL
MODEL 5
REMARK VINA RESULT:      -5.4      3.446      6.482
REMARK  Name = 
REMARK  8 active torsions:
REMARK  status: ('A' for Active; 'I' for Inactive)
REMARK    1  A    between atoms: C_2  and  O_4
REMARK    2  A    between atoms: O_4  and  C_5
REMARK    3  A    between atoms: C_9  and  O_10
REMARK    4  A    between atoms: O_10  and  C_11
REMARK    5  A    between atoms: C_11  and  C_12
REMARK    6  A    between atoms: C_12  and  C_14
REMARK    7  A    between atoms: C_14  and  N_15
REMARK    8  A    between atoms: N_15  and  C_16
REMARK                            x       y       z     vdW  Elec       q    Type
REMARK                         _______ _______ _______ _____ _____    ______ ____
ROOT
ATOM      1  C   UNL     1     -12.227  13.750  70.414  0.00  0.00    +0.140 A 
ATOM      2  C   UNL     1     -11.999  12.378  70.394  0.00  0.00    +0.011 A 
ATOM      3  C   UNL     1     -12.877  11.537  71.255  0.00  0.00    +0.034 C 
ATOM      4  C   UNL     1     -11.217  11.824  69.389  0.00  0.00    +0.011 A 
ATOM      5  C   UNL     1     -11.260  10.344  69.170  0.00  0.00    +0.034 C 
ATOM      6  C   UNL     1     -10.609  12.608  68.414  0.00  0.00    +0.134 A 
ATOM      7  C   UNL     1     -10.505  13.959  68.721  0.00  0.00    +0.035 A 
ATOM      8  C   UNL     1     -11.253  14.499  69.761  0.00  0.00    +0.015 A 
ATOM      9  C   UNL     1     -11.376  15.977  69.845  0.00  0.00    +0.034 C 
ENDROOT
BRANCH   1  10
ATOM     10  O   UNL     1     -13.492  14.279  70.687  0.00  0.00    -0.425 OA
BRANCH  10  12
ATOM     11  C   UNL     1     -13.090  14.699  73.022  0.00  0.00    +0.122 C 
ATOM     12  C   UNL     1     -13.711  15.091  71.804  0.00  0.00    +0.322 C 
ATOM     13  O   UNL     1     -14.812  15.715  71.784  0.00  0.00    -0.250 OA
ENDBRANCH  10  12
ENDBRANCH   1  10
BRANCH   6  14
ATOM     14  O   UNL     1     -10.452  12.080  67.171  0.00  0.00    -0.473 OA
BRANCH  14  15
ATOM     15  C   UNL     1      -9.347  12.063  66.343  0.00  0.00    +0.239 C 
BRANCH  15  16
ATOM     16  C   UNL     1      -9.854  11.283  64.942  0.00  0.00    +0.213 C 
ATOM     17  O   UNL     1     -10.377  10.066  65.742  0.00  0.00    -0.218 OA
BRANCH  16  18
ATOM     18  C   UNL     1     -11.363  12.027  64.993  0.00  0.00    +0.125 C 
BRANCH  18  19
ATOM     19  N   UNL     1     -11.208  13.109  64.036  0.00  0.00    -0.217 NA
BRANCH  19  20
ATOM     20  C   UNL     1     -11.813  14.305  64.592  0.00  0.00    +0.073 C 
ATOM     21  C   UNL     1     -12.805  14.001  65.687  0.00  0.00    +0.019 C 
ATOM     22  C   UNL     1     -10.746  15.244  65.076  0.00  0.00    +0.019 C 
ENDBRANCH  19  20
ENDBRANCH  18  19
ENDBRANCH  16  18
ENDBRANCH  15  16
ENDBRANCH  14  15
ENDBRANCH   6  14
TORSDOF 8
ENDMDL
MODEL 6
REMARK VINA RESULT:      -5.4      3.286      7.245
REMARK  Name = 
REMARK  8 active torsions:
REMARK  status: ('A' for Active; 'I' for Inactive)
REMARK    1  A    between atoms: C_2  and  O_4
REMARK    2  A    between atoms: O_4  and  C_5
REMARK    3  A    between atoms: C_9  and  O_10
REMARK    4  A    between atoms: O_10  and  C_11
REMARK    5  A    between atoms: C_11  and  C_12
REMARK    6  A    between atoms: C_12  and  C_14
REMARK    7  A    between atoms: C_14  and  N_15
REMARK    8  A    between atoms: N_15  and  C_16
REMARK                            x       y       z     vdW  Elec       q    Type
REMARK                         _______ _______ _______ _____ _____    ______ ____
ROOT
ATOM      1  C   UNL     1     -12.127  11.712  70.159  0.00  0.00    +0.140 A 
ATOM      2  C   UNL     1     -12.618  12.926  70.630  0.00  0.00    +0.011 A 
ATOM      3  C   UNL     1     -13.123  12.950  72.031  0.00  0.00    +0.034 C 
ATOM      4  C   UNL     1     -12.347  14.095  69.932  0.00  0.00    +0.011 A 
ATOM      5  C   UNL     1     -12.571  15.411  70.609  0.00  0.00    +0.034 C 
ATOM      6  C   UNL     1     -11.630  14.091  68.740  0.00  0.00    +0.134 A 
ATOM      7  C   UNL     1     -11.545  12.859  68.104  0.00  0.00    +0.035 A 
ATOM      8  C   UNL     1     -11.865  11.694  68.793  0.00  0.00    +0.015 A 
ATOM      9  C   UNL     1     -11.449  10.394  68.207  0.00  0.00    +0.034 C 
ENDROOT
BRANCH   1  10
ATOM     10  O   UNL     1     -11.564  10.765  71.021  0.00  0.00    -0.425 OA
BRANCH  10  12
ATOM     11  C   UNL     1     -11.619   8.562  71.988  0.00  0.00    +0.122 C 
ATOM     12  C   UNL     1     -12.326   9.707  71.529  0.00  0.00    +0.322 C 
ATOM     13  O   UNL     1     -13.490   9.624  71.039  0.00  0.00    -0.250 OA
ENDBRANCH  10  12
ENDBRANCH   1  10
BRANCH   6  14
ATOM     14  O   UNL     1     -10.845  15.165  68.459  0.00  0.00    -0.473 OA
BRANCH  14  15
ATOM     15  C   UNL     1      -9.819  15.305  67.545  0.00  0.00    +0.239 C 
BRANCH  15  16
ATOM     16  C   UNL     1     -10.549  15.876  66.142  0.00  0.00    +0.213 C 
ATOM     17  O   UNL     1      -9.290  16.683  65.748  0.00  0.00    -0.218 OA
BRANCH  16  18
ATOM     18  C   UNL     1     -10.034  14.544  65.252  0.00  0.00    +0.125 C 
BRANCH  18  19
ATOM     19  N   UNL     1     -11.274  14.060  64.670  0.00  0.00    -0.217 NA
BRANCH  19  20
ATOM     20  C   UNL     1     -11.011  12.793  64.014  0.00  0.00    +0.073 C 
ATOM     21  C   UNL     1     -10.234  11.837  64.885  0.00  0.00    +0.019 C 
ATOM     22  C   UNL     1     -12.299  12.176  63.551  0.00  0.00    +0.019 C 
ENDBRANCH  19  20
ENDBRANCH  18  19
ENDBRANCH  16  18
ENDBRANCH  15  16
ENDBRANCH  14  15
ENDBRANCH   6  14
TORSDOF 8
ENDMDL
MODEL 7
REMARK VINA RESULT:      -5.3      3.157      5.089
REMARK  Name = 
REMARK  8 active torsions:
REMARK  status: ('A' for Active; 'I' for Inactive)
REMARK    1  A    between atoms: C_2  and  O_4
REMARK    2  A    between atoms: O_4  and  C_5
REMARK    3  A    between atoms: C_9  and  O_10
REMARK    4  A    between atoms: O_10  and  C_11
REMARK    5  A    between atoms: C_11  and  C_12
REMARK    6  A    between atoms: C_12  and  C_14
REMARK    7  A    between atoms: C_14  and  N_15
REMARK    8  A    between atoms: N_15  and  C_16
REMARK                            x       y       z     vdW  Elec       q    Type
REMARK                         _______ _______ _______ _____ _____    ______ ____
ROOT
ATOM      1  C   UNL     1      -9.261  16.761  67.887  0.00  0.00    +0.140 A 
ATOM      2  C   UNL     1     -10.200  15.884  68.419  0.00  0.00    +0.011 A 
ATOM      3  C   UNL     1     -10.675  16.163  69.804  0.00  0.00    +0.034 C 
ATOM      4  C   UNL     1     -10.873  15.005  67.581  0.00  0.00    +0.011 A 
ATOM      5  C   UNL     1     -12.106  14.322  68.086  0.00  0.00    +0.034 C 
ATOM      6  C   UNL     1     -10.607  14.939  66.217  0.00  0.00    +0.134 A 
ATOM      7  C   UNL     1      -9.398  15.498  65.823  0.00  0.00    +0.035 A 
ATOM      8  C   UNL     1      -8.703  16.339  66.685  0.00  0.00    +0.015 A 
ATOM      9  C   UNL     1      -7.610  17.174  66.123  0.00  0.00    +0.034 C 
ENDROOT
BRANCH   1  10
ATOM     10  O   UNL     1      -9.197  18.099  68.290  0.00  0.00    -0.425 OA
BRANCH  10  12
ATOM     11  C   UNL     1      -9.172  20.334  67.398  0.00  0.00    +0.122 C 
ATOM     12  C   UNL     1      -9.860  19.102  67.576  0.00  0.00    +0.322 C 
ATOM     13  O   UNL     1     -11.123  19.045  67.653  0.00  0.00    -0.250 OA
ENDBRANCH  10  12
ENDBRANCH   1  10
BRANCH   6  14
ATOM     14  O   UNL     1     -11.631  14.630  65.377  0.00  0.00    -0.473 OA
BRANCH  14  15
ATOM     15  C   UNL     1     -11.646  13.843  64.242  0.00  0.00    +0.239 C 
BRANCH  15  16
ATOM     16  C   UNL     1     -12.149  12.325  64.762  0.00  0.00    +0.213 C 
ATOM     17  O   UNL     1     -12.965  12.091  63.469  0.00  0.00    -0.218 OA
BRANCH  16  18
ATOM     18  C   UNL     1     -10.795  11.575  64.101  0.00  0.00    +0.125 C 
BRANCH  18  19
ATOM     19  N   UNL     1     -10.474  10.574  65.104  0.00  0.00    -0.217 NA
BRANCH  19  20
ATOM     20  C   UNL     1     -10.414  11.223  66.400  0.00  0.00    +0.073 C 
ATOM     21  C   UNL     1     -10.926  10.345  67.514  0.00  0.00    +0.019 C 
ATOM     22  C   UNL     1      -9.014  11.688  66.679  0.00  0.00    +0.019 C 
ENDBRANCH  19  20
ENDBRANCH  18  19
ENDBRANCH  16  18
ENDBRANCH  15  16
ENDBRANCH  14  15
ENDBRANCH   6  14
TORSDOF 8
ENDMDL
MODEL 8
REMARK VINA RESULT:      -5.3      3.728      6.877
REMARK  Name = 
REMARK  8 active torsions:
REMARK  status: ('A' for Active; 'I' for Inactive)
REMARK    1  A    between atoms: C_2  and  O_4
REMARK    2  A    between atoms: O_4  and  C_5
REMARK    3  A    between atoms: C_9  and  O_10
REMARK    4  A    between atoms: O_10  and  C_11
REMARK    5  A    between atoms: C_11  and  C_12
REMARK    6  A    between atoms: C_12  and  C_14
REMARK    7  A    between atoms: C_14  and  N_15
REMARK    8  A    between atoms: N_15  and  C_16
REMARK                            x       y       z     vdW  Elec       q    Type
REMARK                         _______ _______ _______ _____ _____    ______ ____
ROOT
ATOM      1  C   UNL     1     -11.795  14.280  69.885  0.00  0.00    +0.140 A 
ATOM      2  C   UNL     1     -11.717  12.910  69.654  0.00  0.00    +0.011 A 
ATOM      3  C   UNL     1     -12.338  12.019  70.674  0.00  0.00    +0.034 C 
ATOM      4  C   UNL     1     -11.366  12.444  68.394  0.00  0.00    +0.011 A 
ATOM      5  C   UNL     1     -11.618  11.008  68.058  0.00  0.00    +0.034 C 
ATOM      6  C   UNL     1     -11.043  13.308  67.354  0.00  0.00    +0.134 A 
ATOM      7  C   UNL     1     -10.716  14.602  67.739  0.00  0.00    +0.035 A 
ATOM      8  C   UNL     1     -11.026  15.049  69.019  0.00  0.00    +0.015 A 
ATOM      9  C   UNL     1     -10.974  16.510  69.285  0.00  0.00    +0.034 C 
ENDROOT
BRANCH   1  10
ATOM     10  O   UNL     1     -12.844  14.840  70.621  0.00  0.00    -0.425 OA
BRANCH  10  12
ATOM     11  C   UNL     1     -13.838  15.651  72.658  0.00  0.00    +0.122 C 
ATOM     12  C   UNL     1     -12.737  15.034  72.002  0.00  0.00    +0.322 C 
ATOM     13  O   UNL     1     -11.548  15.172  72.415  0.00  0.00    -0.250 OA
ENDBRANCH  10  12
ENDBRANCH   1  10
BRANCH   6  14
ATOM     14  O   UNL     1     -11.355  12.931  66.085  0.00  0.00    -0.473 OA
BRANCH  14  15
ATOM     15  C   UNL     1     -12.522  13.098  65.367  0.00  0.00    +0.239 C 
BRANCH  15  16
ATOM     16  C   UNL     1     -12.267  12.296  63.911  0.00  0.00    +0.213 C 
ATOM     17  O   UNL     1     -12.498  13.589  63.094  0.00  0.00    -0.218 OA
BRANCH  16  18
ATOM     18  C   UNL     1     -10.608  12.573  63.972  0.00  0.00    +0.125 C 
BRANCH  18  19
ATOM     19  N   UNL     1     -10.095  11.597  63.026  0.00  0.00    -0.217 NA
BRANCH  19  20
ATOM     20  C   UNL     1      -9.779  10.378  63.749  0.00  0.00    +0.073 C 
ATOM     21  C   UNL     1      -8.977   9.404  62.923  0.00  0.00    +0.019 C 
ATOM     22  C   UNL     1      -9.073  10.709  65.031  0.00  0.00    +0.019 C 
ENDBRANCH  19  20
ENDBRANCH  18  19
ENDBRANCH  16  18
ENDBRANCH  15  16
ENDBRANCH  14  15
ENDBRANCH   6  14
TORSDOF 8
ENDMDL
MODEL 9
REMARK VINA RESULT:      -5.3      1.820      2.705
REMARK  Name = 
REMARK  8 active torsions:
REMARK  status: ('A' for Active; 'I' for Inactive)
REMARK    1  A    between atoms: C_2  and  O_4
REMARK    2  A    between atoms: O_4  and  C_5
REMARK    3  A    between atoms: C_9  and  O_10
REMARK    4  A    between atoms: O_10  and  C_11
REMARK    5  A    between atoms: C_11  and  C_12
REMARK    6  A    between atoms: C_12  and  C_14
REMARK    7  A    between atoms: C_14  and  N_15
REMARK    8  A    between atoms: N_15  and  C_16
REMARK                            x       y       z     vdW  Elec       q    Type
REMARK                         _______ _______ _______ _____ _____    ______ ____
ROOT
ATOM      1  C   UNL     1      -8.161  18.749  67.491  0.00  0.00    +0.140 A 
ATOM      2  C   UNL     1      -7.652  17.491  67.186  0.00  0.00    +0.011 A 
ATOM      3  C   UNL     1      -6.198  17.276  67.425  0.00  0.00    +0.034 C 
ATOM      4  C   UNL     1      -8.523  16.428  66.981  0.00  0.00    +0.011 A 
ATOM      5  C   UNL     1      -7.980  15.034  67.000  0.00  0.00    +0.034 C 
ATOM      6  C   UNL     1      -9.904  16.589  67.027  0.00  0.00    +0.134 A 
ATOM      7  C   UNL     1     -10.352  17.898  66.899  0.00  0.00    +0.035 A 
ATOM      8  C   UNL     1      -9.466  18.958  67.057  0.00  0.00    +0.015 A 
ATOM      9  C   UNL     1     -10.027  20.320  67.249  0.00  0.00    +0.034 C 
ENDROOT
BRANCH   1  10
ATOM     10  O   UNL     1      -7.585  19.552  68.482  0.00  0.00    -0.425 OA
BRANCH  10  12
ATOM     11  C   UNL     1      -5.566  20.647  69.201  0.00  0.00    +0.122 C 
ATOM     12  C   UNL     1      -6.536  20.427  68.184  0.00  0.00    +0.322 C 
ATOM     13  O   UNL     1      -6.830  21.319  67.335  0.00  0.00    -0.250 OA
ENDBRANCH  10  12
ENDBRANCH   1  10
BRANCH   6  14
ATOM     14  O   UNL     1     -10.656  15.551  67.480  0.00  0.00    -0.473 OA
BRANCH  14  15
ATOM     15  C   UNL     1     -11.556  15.492  68.526  0.00  0.00    +0.239 C 
BRANCH  15  16
ATOM     16  C   UNL     1     -10.622  15.590  69.921  0.00  0.00    +0.213 C 
ATOM     17  O   UNL     1     -11.163  17.001  70.251  0.00  0.00    -0.218 OA
BRANCH  16  18
ATOM     18  C   UNL     1     -11.817  14.860  70.854  0.00  0.00    +0.125 C 
BRANCH  18  19
ATOM     19  N   UNL     1     -12.200  15.930  71.759  0.00  0.00    -0.217 NA
BRANCH  19  20
ATOM     20  C   UNL     1     -13.101  15.386  72.759  0.00  0.00    +0.073 C 
ATOM     21  C   UNL     1     -13.485  13.955  72.479  0.00  0.00    +0.019 C 
ATOM     22  C   UNL     1     -12.495  15.525  74.126  0.00  0.00    +0.019 C 
ENDBRANCH  19  20
ENDBRANCH  18  19
ENDBRANCH  16  18
ENDBRANCH  15  16
ENDBRANCH  14  15
ENDBRANCH   6  14
TORSDOF 8
ENDMDL
