MODEL 1
REMARK VINA RESULT:      -7.0      0.000      0.000
REMARK  Name = 
REMARK  5 active torsions:
REMARK  status: ('A' for Active; 'I' for Inactive)
REMARK    1  A    between atoms: O_2  and  C_3
REMARK    2  A    between atoms: C_8  and  S_9
REMARK    3  A    between atoms: S_9  and  C_11
REMARK    4  A    between atoms: C_11  and  C_12
REMARK    5  A    between atoms: C_17  and  O_18
REMARK                            x       y       z     vdW  Elec       q    Type
REMARK                         _______ _______ _______ _____ _____    ______ ____
ROOT
ATOM      1  S   UNL     1     -11.934  13.747  66.316  0.00  0.00    +0.107 S 
ATOM      2  O   UNL     1     -12.066  12.195  66.207  0.00  0.00    -0.248 OA
ENDROOT
BRANCH   1   8
ATOM      3  C   UNL     1     -12.860  15.476  72.235  0.00  0.00    +0.140 A 
ATOM      4  C   UNL     1     -12.424  15.916  70.992  0.00  0.00    +0.058 A 
ATOM      5  C   UNL     1     -12.265  15.040  69.926  0.00  0.00    +0.104 A 
ATOM      6  C   UNL     1     -12.175  13.691  70.247  0.00  0.00    +0.101 A 
ATOM      7  N   UNL     1     -11.863  13.084  69.082  0.00  0.00    -0.218 NA
ATOM      8  C   UNL     1     -11.680  13.954  68.101  0.00  0.00    +0.221 A 
ATOM      9  C   UNL     1     -12.846  13.230  71.351  0.00  0.00    +0.024 A 
ATOM     10  N   UNL     1     -11.817  15.181  68.655  0.00  0.00    -0.218 NA
ATOM     11  C   UNL     1     -13.197  14.132  72.343  0.00  0.00    +0.039 A 
BRANCH   3  13
ATOM     12  C   UNL     1     -12.437  15.573  74.505  0.00  0.00    +0.252 C 
ATOM     13  O   UNL     1     -12.595  16.214  73.392  0.00  0.00    -0.471 OA
ENDBRANCH   3  13
ENDBRANCH   1   8
BRANCH   1  14
ATOM     14  C   UNL     1     -10.198  14.017  65.762  0.00  0.00    +0.145 C 
BRANCH  14  15
ATOM     15  C   UNL     1      -9.757  15.392  65.979  0.00  0.00    +0.072 A 
ATOM     16  C   UNL     1      -8.781  15.733  66.906  0.00  0.00    +0.026 A 
ATOM     17  C   UNL     1      -7.768  14.687  67.249  0.00  0.00    +0.035 C 
ATOM     18  C   UNL     1      -8.836  16.949  67.568  0.00  0.00    +0.133 A 
ATOM     19  C   UNL     1      -9.741  17.886  67.111  0.00  0.00    +0.031 A 
ATOM     20  C   UNL     1     -10.187  18.965  68.021  0.00  0.00    +0.036 C 
ATOM     21  C   UNL     1     -10.285  17.699  65.846  0.00  0.00    +0.097 A 
ATOM     22  N   UNL     1     -10.383  16.432  65.376  0.00  0.00    -0.248 NA
BRANCH  18  23
ATOM     23  O   UNL     1      -8.079  17.137  68.727  0.00  0.00    -0.472 OA
ATOM     24  C   UNL     1      -6.851  17.825  68.748  0.00  0.00    +0.252 C 
ENDBRANCH  18  23
ENDBRANCH  14  15
ENDBRANCH   1  14
TORSDOF 5
ENDMDL
MODEL 2
REMARK VINA RESULT:      -6.5      2.763      4.428
REMARK  Name = 
REMARK  5 active torsions:
REMARK  status: ('A' for Active; 'I' for Inactive)
REMARK    1  A    between atoms: O_2  and  C_3
REMARK    2  A    between atoms: C_8  and  S_9
REMARK    3  A    between atoms: S_9  and  C_11
REMARK    4  A    between atoms: C_11  and  C_12
REMARK    5  A    between atoms: C_17  and  O_18
REMARK                            x       y       z     vdW  Elec       q    Type
REMARK                         _______ _______ _______ _____ _____    ______ ____
ROOT
ATOM      1  S   UNL     1     -10.476  14.561  67.332  0.00  0.00    +0.107 S 
ATOM      2  O   UNL     1     -10.540  16.102  67.082  0.00  0.00    -0.248 OA
ENDROOT
BRANCH   1   8
ATOM      3  C   UNL     1     -13.045  15.914  72.851  0.00  0.00    +0.140 A 
ATOM      4  C   UNL     1     -12.040  16.273  71.961  0.00  0.00    +0.058 A 
ATOM      5  C   UNL     1     -11.764  15.515  70.831  0.00  0.00    +0.104 A 
ATOM      6  C   UNL     1     -12.244  14.211  70.834  0.00  0.00    +0.101 A 
ATOM      7  N   UNL     1     -11.712  13.650  69.727  0.00  0.00    -0.218 NA
ATOM      8  C   UNL     1     -10.891  14.475  69.097  0.00  0.00    +0.221 A 
ATOM      9  C   UNL     1     -13.404  13.937  71.513  0.00  0.00    +0.024 A 
ATOM     10  N   UNL     1     -10.834  15.598  69.849  0.00  0.00    -0.218 NA
ATOM     11  C   UNL     1     -13.808  14.800  72.520  0.00  0.00    +0.039 A 
BRANCH   3  13
ATOM     12  C   UNL     1     -12.373  15.694  75.050  0.00  0.00    +0.252 C 
ATOM     13  O   UNL     1     -13.034  16.373  74.171  0.00  0.00    -0.471 OA
ENDBRANCH   3  13
ENDBRANCH   1   8
BRANCH   1  14
ATOM     14  C   UNL     1     -12.092  14.002  66.646  0.00  0.00    +0.145 C 
BRANCH  14  15
ATOM     15  C   UNL     1     -11.931  12.955  65.640  0.00  0.00    +0.072 A 
ATOM     16  C   UNL     1     -11.353  11.724  65.921  0.00  0.00    +0.026 A 
ATOM     17  C   UNL     1     -11.440  11.233  67.332  0.00  0.00    +0.035 C 
ATOM     18  C   UNL     1     -10.622  11.054  64.953  0.00  0.00    +0.133 A 
ATOM     19  C   UNL     1     -10.686  11.532  63.659  0.00  0.00    +0.031 A 
ATOM     20  C   UNL     1      -9.603  11.194  62.708  0.00  0.00    +0.036 C 
ATOM     21  C   UNL     1     -11.713  12.413  63.343  0.00  0.00    +0.097 A 
ATOM     22  N   UNL     1     -12.217  13.186  64.336  0.00  0.00    -0.248 NA
BRANCH  18  23
ATOM     23  O   UNL     1      -9.765  10.019  65.331  0.00  0.00    -0.472 OA
ATOM     24  C   UNL     1      -8.445  10.227  65.774  0.00  0.00    +0.252 C 
ENDBRANCH  18  23
ENDBRANCH  14  15
ENDBRANCH   1  14
TORSDOF 5
ENDMDL
MODEL 3
REMARK VINA RESULT:      -6.4      2.282      4.595
REMARK  Name = 
REMARK  5 active torsions:
REMARK  status: ('A' for Active; 'I' for Inactive)
REMARK    1  A    between atoms: O_2  and  C_3
REMARK    2  A    between atoms: C_8  and  S_9
REMARK    3  A    between atoms: S_9  and  C_11
REMARK    4  A    between atoms: C_11  and  C_12
REMARK    5  A    between atoms: C_17  and  O_18
REMARK                            x       y       z     vdW  Elec       q    Type
REMARK                         _______ _______ _______ _____ _____    ______ ____
ROOT
ATOM      1  S   UNL     1      -9.987  16.721  68.275  0.00  0.00    +0.107 S 
ATOM      2  O   UNL     1     -10.538  18.157  68.546  0.00  0.00    -0.248 OA
ENDROOT
BRANCH   1   8
ATOM      3  C   UNL     1     -13.053  12.595  71.804  0.00  0.00    +0.140 A 
ATOM      4  C   UNL     1     -12.183  12.726  70.729  0.00  0.00    +0.058 A 
ATOM      5  C   UNL     1     -11.875  13.969  70.191  0.00  0.00    +0.104 A 
ATOM      6  C   UNL     1     -12.749  15.005  70.497  0.00  0.00    +0.101 A 
ATOM      7  N   UNL     1     -12.331  16.039  69.736  0.00  0.00    -0.218 NA
ATOM      8  C   UNL     1     -11.330  15.698  68.940  0.00  0.00    +0.221 A 
ATOM      9  C   UNL     1     -13.403  14.981  71.702  0.00  0.00    +0.024 A 
ATOM     10  N   UNL     1     -11.122  14.376  69.141  0.00  0.00    -0.218 NA
ATOM     11  C   UNL     1     -13.546  13.769  72.361  0.00  0.00    +0.039 A 
BRANCH   3  13
ATOM     12  C   UNL     1     -13.131  10.289  71.690  0.00  0.00    +0.252 C 
ATOM     13  O   UNL     1     -13.710  11.387  72.053  0.00  0.00    -0.471 OA
ENDBRANCH   3  13
ENDBRANCH   1   8
BRANCH   1  14
ATOM     14  C   UNL     1     -10.350  16.511  66.481  0.00  0.00    +0.145 C 
BRANCH  14  15
ATOM     15  C   UNL     1     -10.172  15.130  66.040  0.00  0.00    +0.072 A 
ATOM     16  C   UNL     1     -11.094  14.472  65.237  0.00  0.00    +0.026 A 
ATOM     17  C   UNL     1     -11.944  15.314  64.339  0.00  0.00    +0.035 C 
ATOM     18  C   UNL     1     -11.292  13.106  65.369  0.00  0.00    +0.133 A 
ATOM     19  C   UNL     1     -10.392  12.402  66.144  0.00  0.00    +0.031 A 
ATOM     20  C   UNL     1     -10.793  11.094  66.711  0.00  0.00    +0.036 C 
ATOM     21  C   UNL     1      -9.185  13.016  66.456  0.00  0.00    +0.097 A 
ATOM     22  N   UNL     1      -9.154  14.370  66.511  0.00  0.00    -0.248 NA
BRANCH  18  23
ATOM     23  O   UNL     1     -12.439  12.522  64.829  0.00  0.00    -0.472 OA
ATOM     24  C   UNL     1     -12.481  11.934  63.550  0.00  0.00    +0.252 C 
ENDBRANCH  18  23
ENDBRANCH  14  15
ENDBRANCH   1  14
TORSDOF 5
ENDMDL
MODEL 4
REMARK VINA RESULT:      -6.4      1.532      2.204
REMARK  Name = 
REMARK  5 active torsions:
REMARK  status: ('A' for Active; 'I' for Inactive)
REMARK    1  A    between atoms: O_2  and  C_3
REMARK    2  A    between atoms: C_8  and  S_9
REMARK    3  A    between atoms: S_9  and  C_11
REMARK    4  A    between atoms: C_11  and  C_12
REMARK    5  A    between atoms: C_17  and  O_18
REMARK                            x       y       z     vdW  Elec       q    Type
REMARK                         _______ _______ _______ _____ _____    ______ ____
ROOT
ATOM      1  S   UNL     1     -11.643  13.275  66.633  0.00  0.00    +0.107 S 
ATOM      2  O   UNL     1     -12.043  11.766  66.612  0.00  0.00    -0.248 OA
ENDROOT
BRANCH   1   8
ATOM      3  C   UNL     1     -13.399  15.141  72.318  0.00  0.00    +0.140 A 
ATOM      4  C   UNL     1     -12.902  15.578  71.096  0.00  0.00    +0.058 A 
ATOM      5  C   UNL     1     -12.516  14.682  70.107  0.00  0.00    +0.104 A 
ATOM      6  C   UNL     1     -12.276  13.378  70.519  0.00  0.00    +0.101 A 
ATOM      7  N   UNL     1     -11.766  12.765  69.430  0.00  0.00    -0.218 NA
ATOM      8  C   UNL     1     -11.604  13.602  68.418  0.00  0.00    +0.221 A 
ATOM      9  C   UNL     1     -12.987  12.880  71.581  0.00  0.00    +0.024 A 
ATOM     10  N   UNL     1     -11.964  14.823  68.878  0.00  0.00    -0.218 NA
ATOM     11  C   UNL     1     -13.558  13.770  72.478  0.00  0.00    +0.039 A 
BRANCH   3  13
ATOM     12  C   UNL     1     -12.442  15.745  74.333  0.00  0.00    +0.252 C 
ATOM     13  O   UNL     1     -13.358  15.965  73.446  0.00  0.00    -0.471 OA
ENDBRANCH   3  13
ENDBRANCH   1   8
BRANCH   1  14
ATOM     14  C   UNL     1      -9.827  13.187  66.335  0.00  0.00    +0.145 C 
BRANCH  14  15
ATOM     15  C   UNL     1      -9.113  14.304  66.947  0.00  0.00    +0.072 A 
ATOM     16  C   UNL     1      -9.099  15.580  66.399  0.00  0.00    +0.026 A 
ATOM     17  C   UNL     1     -10.263  15.970  65.545  0.00  0.00    +0.035 C 
ATOM     18  C   UNL     1      -7.986  16.394  66.544  0.00  0.00    +0.133 A 
ATOM     19  C   UNL     1      -7.010  15.990  67.433  0.00  0.00    +0.031 A 
ATOM     20  C   UNL     1      -5.635  16.521  67.287  0.00  0.00    +0.036 C 
ATOM     21  C   UNL     1      -7.340  15.005  68.356  0.00  0.00    +0.097 A 
ATOM     22  N   UNL     1      -8.307  14.117  68.020  0.00  0.00    -0.248 NA
BRANCH  18  23
ATOM     23  O   UNL     1      -7.835  17.506  65.713  0.00  0.00    -0.472 OA
ATOM     24  C   UNL     1      -8.071  18.828  66.137  0.00  0.00    +0.252 C 
ENDBRANCH  18  23
ENDBRANCH  14  15
ENDBRANCH   1  14
TORSDOF 5
ENDMDL
MODEL 5
REMARK VINA RESULT:      -6.4      3.670      6.578
REMARK  Name = 
REMARK  5 active torsions:
REMARK  status: ('A' for Active; 'I' for Inactive)
REMARK    1  A    between atoms: O_2  and  C_3
REMARK    2  A    between atoms: C_8  and  S_9
REMARK    3  A    between atoms: S_9  and  C_11
REMARK    4  A    between atoms: C_11  and  C_12
REMARK    5  A    between atoms: C_17  and  O_18
REMARK                            x       y       z     vdW  Elec       q    Type
REMARK                         _______ _______ _______ _____ _____    ______ ____
ROOT
ATOM      1  S   UNL     1     -10.903  15.562  64.701  0.00  0.00    +0.107 S 
ATOM      2  O   UNL     1     -12.029  16.300  63.910  0.00  0.00    -0.248 OA
ENDROOT
BRANCH   1   8
ATOM      3  C   UNL     1      -7.482  19.272  68.363  0.00  0.00    +0.140 A 
ATOM      4  C   UNL     1      -7.971  17.980  68.217  0.00  0.00    +0.058 A 
ATOM      5  C   UNL     1      -8.877  17.655  67.216  0.00  0.00    +0.104 A 
ATOM      6  C   UNL     1      -9.562  18.717  66.639  0.00  0.00    +0.101 A 
ATOM      7  N   UNL     1     -10.479  18.136  65.837  0.00  0.00    -0.218 NA
ATOM      8  C   UNL     1     -10.461  16.816  65.936  0.00  0.00    +0.221 A 
ATOM      9  C   UNL     1      -8.939  19.937  66.558  0.00  0.00    +0.024 A 
ATOM     10  N   UNL     1      -9.541  16.522  66.883  0.00  0.00    -0.218 NA
ATOM     11  C   UNL     1      -7.888  20.208  67.420  0.00  0.00    +0.039 A 
BRANCH   3  13
ATOM     12  C   UNL     1      -5.772  20.226  69.591  0.00  0.00    +0.252 C 
ATOM     13  O   UNL     1      -6.957  19.707  69.584  0.00  0.00    -0.471 OA
ENDBRANCH   3  13
ENDBRANCH   1   8
BRANCH   1  14
ATOM     14  C   UNL     1     -11.880  14.442  65.790  0.00  0.00    +0.145 C 
BRANCH  14  15
ATOM     15  C   UNL     1     -11.742  13.040  65.406  0.00  0.00    +0.072 A 
ATOM     16  C   UNL     1     -11.367  12.047  66.302  0.00  0.00    +0.026 A 
ATOM     17  C   UNL     1     -11.681  12.276  67.746  0.00  0.00    +0.035 C 
ATOM     18  C   UNL     1     -10.622  10.960  65.874  0.00  0.00    +0.133 A 
ATOM     19  C   UNL     1     -10.472  10.784  64.513  0.00  0.00    +0.031 A 
ATOM     20  C   UNL     1      -9.338   9.975  64.008  0.00  0.00    +0.036 C 
ATOM     21  C   UNL     1     -11.330  11.480  63.670  0.00  0.00    +0.097 A 
ATOM     22  N   UNL     1     -11.840  12.655  64.110  0.00  0.00    -0.248 NA
BRANCH  18  23
ATOM     23  O   UNL     1      -9.958  10.168  66.813  0.00  0.00    -0.472 OA
ATOM     24  C   UNL     1     -10.447   8.927  67.265  0.00  0.00    +0.252 C 
ENDBRANCH  18  23
ENDBRANCH  14  15
ENDBRANCH   1  14
TORSDOF 5
ENDMDL
MODEL 6
REMARK VINA RESULT:      -6.3      2.953      6.383
REMARK  Name = 
REMARK  5 active torsions:
REMARK  status: ('A' for Active; 'I' for Inactive)
REMARK    1  A    between atoms: O_2  and  C_3
REMARK    2  A    between atoms: C_8  and  S_9
REMARK    3  A    between atoms: S_9  and  C_11
REMARK    4  A    between atoms: C_11  and  C_12
REMARK    5  A    between atoms: C_17  and  O_18
REMARK                            x       y       z     vdW  Elec       q    Type
REMARK                         _______ _______ _______ _____ _____    ______ ____
ROOT
ATOM      1  S   UNL     1     -11.051  15.283  64.806  0.00  0.00    +0.107 S 
ATOM      2  O   UNL     1     -11.908  16.276  63.960  0.00  0.00    -0.248 OA
ENDROOT
BRANCH   1   8
ATOM      3  C   UNL     1      -7.852  20.066  67.209  0.00  0.00    +0.140 A 
ATOM      4  C   UNL     1      -7.728  18.806  66.637  0.00  0.00    +0.058 A 
ATOM      5  C   UNL     1      -8.839  18.016  66.370  0.00  0.00    +0.104 A 
ATOM      6  C   UNL     1     -10.007  18.353  67.042  0.00  0.00    +0.101 A 
ATOM      7  N   UNL     1     -10.870  17.357  66.745  0.00  0.00    -0.218 NA
ATOM      8  C   UNL     1     -10.303  16.408  66.017  0.00  0.00    +0.221 A 
ATOM      9  C   UNL     1     -10.228  19.668  67.363  0.00  0.00    +0.024 A 
ATOM     10  N   UNL     1      -9.004  16.764  65.881  0.00  0.00    -0.218 NA
ATOM     11  C   UNL     1      -9.143  20.528  67.437  0.00  0.00    +0.039 A 
BRANCH   3  13
ATOM     12  C   UNL     1      -6.382  20.120  68.991  0.00  0.00    +0.252 C 
ATOM     13  O   UNL     1      -6.781  20.657  67.883  0.00  0.00    -0.471 OA
ENDBRANCH   3  13
ENDBRANCH   1   8
BRANCH   1  14
ATOM     14  C   UNL     1     -12.326  14.521  65.897  0.00  0.00    +0.145 C 
BRANCH  14  15
ATOM     15  C   UNL     1     -11.731  13.761  66.993  0.00  0.00    +0.072 A 
ATOM     16  C   UNL     1     -11.447  12.405  66.901  0.00  0.00    +0.026 A 
ATOM     17  C   UNL     1     -11.184  11.852  65.536  0.00  0.00    +0.035 C 
ATOM     18  C   UNL     1     -11.535  11.592  68.020  0.00  0.00    +0.133 A 
ATOM     19  C   UNL     1     -11.680  12.207  69.248  0.00  0.00    +0.031 A 
ATOM     20  C   UNL     1     -12.250  11.439  70.379  0.00  0.00    +0.036 C 
ATOM     21  C   UNL     1     -11.395  13.564  69.331  0.00  0.00    +0.097 A 
ATOM     22  N   UNL     1     -11.551  14.317  68.215  0.00  0.00    -0.248 NA
BRANCH  18  23
ATOM     23  O   UNL     1     -11.597  10.206  67.860  0.00  0.00    -0.472 OA
ATOM     24  C   UNL     1     -10.487   9.356  68.026  0.00  0.00    +0.252 C 
ENDBRANCH  18  23
ENDBRANCH  14  15
ENDBRANCH   1  14
TORSDOF 5
ENDMDL
MODEL 7
REMARK VINA RESULT:      -6.3      2.927      6.925
REMARK  Name = 
REMARK  5 active torsions:
REMARK  status: ('A' for Active; 'I' for Inactive)
REMARK    1  A    between atoms: O_2  and  C_3
REMARK    2  A    between atoms: C_8  and  S_9
REMARK    3  A    between atoms: S_9  and  C_11
REMARK    4  A    between atoms: C_11  and  C_12
REMARK    5  A    between atoms: C_17  and  O_18
REMARK                            x       y       z     vdW  Elec       q    Type
REMARK                         _______ _______ _______ _____ _____    ______ ____
ROOT
ATOM      1  S   UNL     1      -9.731  16.431  66.532  0.00  0.00    +0.107 S 
ATOM      2  O   UNL     1     -10.558  17.012  65.342  0.00  0.00    -0.248 OA
ENDROOT
BRANCH   1   8
ATOM      3  C   UNL     1      -5.830  20.487  69.217  0.00  0.00    +0.140 A 
ATOM      4  C   UNL     1      -6.632  19.377  69.451  0.00  0.00    +0.058 A 
ATOM      5  C   UNL     1      -7.485  18.878  68.475  0.00  0.00    +0.104 A 
ATOM      6  C   UNL     1      -7.795  19.740  67.431  0.00  0.00    +0.101 A 
ATOM      7  N   UNL     1      -8.747  19.093  66.726  0.00  0.00    -0.218 NA
ATOM      8  C   UNL     1      -9.096  17.950  67.295  0.00  0.00    +0.221 A 
ATOM      9  C   UNL     1      -6.861  20.667  67.042  0.00  0.00    +0.024 A 
ATOM     10  N   UNL     1      -8.392  17.872  68.447  0.00  0.00    -0.218 NA
ATOM     11  C   UNL     1      -5.870  21.033  67.940  0.00  0.00    +0.039 A 
BRANCH   3  13
ATOM     12  C   UNL     1      -4.070  21.193  70.538  0.00  0.00    +0.252 C 
ATOM     13  O   UNL     1      -5.336  21.252  70.277  0.00  0.00    -0.471 OA
ENDBRANCH   3  13
ENDBRANCH   1   8
BRANCH   1  14
ATOM     14  C   UNL     1     -11.053  16.045  67.756  0.00  0.00    +0.145 C 
BRANCH  14  15
ATOM     15  C   UNL     1     -11.565  14.686  67.606  0.00  0.00    +0.072 A 
ATOM     16  C   UNL     1     -11.687  13.805  68.672  0.00  0.00    +0.026 A 
ATOM     17  C   UNL     1     -11.872  14.400  70.032  0.00  0.00    +0.035 C 
ATOM     18  C   UNL     1     -11.515  12.443  68.482  0.00  0.00    +0.133 A 
ATOM     19  C   UNL     1     -11.453  11.982  67.182  0.00  0.00    +0.031 A 
ATOM     20  C   UNL     1     -10.808  10.678  66.906  0.00  0.00    +0.036 C 
ATOM     21  C   UNL     1     -11.897  12.828  66.172  0.00  0.00    +0.097 A 
ATOM     22  N   UNL     1     -11.820  14.164  66.381  0.00  0.00    -0.248 NA
BRANCH  18  23
ATOM     23  O   UNL     1     -11.289  11.617  69.585  0.00  0.00    -0.472 OA
ATOM     24  C   UNL     1     -12.293  10.833  70.184  0.00  0.00    +0.252 C 
ENDBRANCH  18  23
ENDBRANCH  14  15
ENDBRANCH   1  14
TORSDOF 5
ENDMDL
MODEL 8
REMARK VINA RESULT:      -6.2      1.948      2.331
REMARK  Name = 
REMARK  5 active torsions:
REMARK  status: ('A' for Active; 'I' for Inactive)
REMARK    1  A    between atoms: O_2  and  C_3
REMARK    2  A    between atoms: C_8  and  S_9
REMARK    3  A    between atoms: S_9  and  C_11
REMARK    4  A    between atoms: C_11  and  C_12
REMARK    5  A    between atoms: C_17  and  O_18
REMARK                            x       y       z     vdW  Elec       q    Type
REMARK                         _______ _______ _______ _____ _____    ______ ____
ROOT
ATOM      1  S   UNL     1     -10.378  16.395  66.571  0.00  0.00    +0.107 S 
ATOM      2  O   UNL     1     -11.183  15.350  65.735  0.00  0.00    -0.248 OA
ENDROOT
BRANCH   1   8
ATOM      3  C   UNL     1     -13.101  14.696  71.918  0.00  0.00    +0.140 A 
ATOM      4  C   UNL     1     -12.615  15.782  71.200  0.00  0.00    +0.058 A 
ATOM      5  C   UNL     1     -11.918  15.614  70.011  0.00  0.00    +0.104 A 
ATOM      6  C   UNL     1     -11.394  14.349  69.780  0.00  0.00    +0.101 A 
ATOM      7  N   UNL     1     -10.640  14.490  68.668  0.00  0.00    -0.218 NA
ATOM      8  C   UNL     1     -10.599  15.745  68.251  0.00  0.00    +0.221 A 
ATOM      9  C   UNL     1     -12.055  13.258  70.286  0.00  0.00    +0.024 A 
ATOM     10  N   UNL     1     -11.302  16.466  69.156  0.00  0.00    -0.218 NA
ATOM     11  C   UNL     1     -12.920  13.439  71.354  0.00  0.00    +0.039 A 
BRANCH   3  13
ATOM     12  C   UNL     1     -12.523  15.407  74.039  0.00  0.00    +0.252 C 
ATOM     13  O   UNL     1     -13.383  14.805  73.282  0.00  0.00    -0.471 OA
ENDBRANCH   3  13
ENDBRANCH   1   8
BRANCH   1  14
ATOM     14  C   UNL     1      -8.643  15.842  66.294  0.00  0.00    +0.145 C 
BRANCH  14  15
ATOM     15  C   UNL     1      -7.680  16.919  66.509  0.00  0.00    +0.072 A 
ATOM     16  C   UNL     1      -7.135  17.204  67.753  0.00  0.00    +0.026 A 
ATOM     17  C   UNL     1      -7.052  16.080  68.737  0.00  0.00    +0.035 C 
ATOM     18  C   UNL     1      -6.806  18.507  68.095  0.00  0.00    +0.133 A 
ATOM     19  C   UNL     1      -6.820  19.454  67.090  0.00  0.00    +0.031 A 
ATOM     20  C   UNL     1      -6.958  20.884  67.446  0.00  0.00    +0.036 C 
ATOM     21  C   UNL     1      -6.824  19.004  65.775  0.00  0.00    +0.097 A 
ATOM     22  N   UNL     1      -7.371  17.791  65.518  0.00  0.00    -0.248 NA
BRANCH  18  23
ATOM     23  O   UNL     1      -6.599  18.835  69.436  0.00  0.00    -0.472 OA
ATOM     24  C   UNL     1      -5.322  18.982  70.010  0.00  0.00    +0.252 C 
ENDBRANCH  18  23
ENDBRANCH  14  15
ENDBRANCH   1  14
TORSDOF 5
ENDMDL
MODEL 9
REMARK VINA RESULT:      -6.2      3.801      6.724
REMARK  Name = 
REMARK  5 active torsions:
REMARK  status: ('A' for Active; 'I' for Inactive)
REMARK    1  A    between atoms: O_2  and  C_3
REMARK    2  A    between atoms: C_8  and  S_9
REMARK    3  A    between atoms: S_9  and  C_11
REMARK    4  A    between atoms: C_11  and  C_12
REMARK    5  A    between atoms: C_17  and  O_18
REMARK                            x       y       z     vdW  Elec       q    Type
REMARK                         _______ _______ _______ _____ _____    ______ ____
ROOT
ATOM      1  S   UNL     1      -9.390  16.514  66.066  0.00  0.00    +0.107 S 
ATOM      2  O   UNL     1     -10.562  17.148  65.252  0.00  0.00    -0.248 OA
ENDROOT
BRANCH   1   8
ATOM      3  C   UNL     1      -5.787  20.332  69.431  0.00  0.00    +0.140 A 
ATOM      4  C   UNL     1      -6.498  19.139  69.464  0.00  0.00    +0.058 A 
ATOM      5  C   UNL     1      -7.320  18.753  68.414  0.00  0.00    +0.104 A 
ATOM      6  C   UNL     1      -7.706  19.757  67.535  0.00  0.00    +0.101 A 
ATOM      7  N   UNL     1      -8.613  19.170  66.725  0.00  0.00    -0.218 NA
ATOM      8  C   UNL     1      -8.867  17.922  67.084  0.00  0.00    +0.221 A 
ATOM      9  C   UNL     1      -6.851  20.807  67.317  0.00  0.00    +0.024 A 
ATOM     10  N   UNL     1      -8.146  17.699  68.207  0.00  0.00    -0.218 NA
ATOM     11  C   UNL     1      -5.882  21.087  68.268  0.00  0.00    +0.039 A 
BRANCH   3  13
ATOM     12  C   UNL     1      -5.312  20.224  71.690  0.00  0.00    +0.252 C 
ATOM     13  O   UNL     1      -5.342  20.936  70.610  0.00  0.00    -0.471 OA
ENDBRANCH   3  13
ENDBRANCH   1   8
BRANCH   1  14
ATOM     14  C   UNL     1     -10.298  15.567  67.359  0.00  0.00    +0.145 C 
BRANCH  14  15
ATOM     15  C   UNL     1     -10.966  14.389  66.813  0.00  0.00    +0.072 A 
ATOM     16  C   UNL     1     -10.295  13.207  66.530  0.00  0.00    +0.026 A 
ATOM     17  C   UNL     1      -9.055  12.920  67.314  0.00  0.00    +0.035 C 
ATOM     18  C   UNL     1     -10.701  12.405  65.475  0.00  0.00    +0.133 A 
ATOM     19  C   UNL     1     -11.912  12.696  64.879  0.00  0.00    +0.031 A 
ATOM     20  C   UNL     1     -12.172  12.222  63.500  0.00  0.00    +0.036 C 
ATOM     21  C   UNL     1     -12.788  13.529  65.564  0.00  0.00    +0.097 A 
ATOM     22  N   UNL     1     -12.264  14.436  66.424  0.00  0.00    -0.248 NA
BRANCH  18  23
ATOM     23  O   UNL     1      -9.834  11.428  64.980  0.00  0.00    -0.472 OA
ATOM     24  C   UNL     1      -9.934  10.063  65.309  0.00  0.00    +0.252 C 
ENDBRANCH  18  23
ENDBRANCH  14  15
ENDBRANCH   1  14
TORSDOF 5
ENDMDL
