MODEL 1
REMARK VINA RESULT:      -6.6      0.000      0.000
REMARK  Name = 
REMARK  4 active torsions:
REMARK  status: ('A' for Active; 'I' for Inactive)
REMARK    1  A    between atoms: C_2  and  C_3
REMARK    2  A    between atoms: C_12  and  C_13
REMARK    3  A    between atoms: C_12  and  C_15
REMARK    4  A    between atoms: C_15  and  C_16
REMARK                            x       y       z     vdW  Elec       q    Type
REMARK                         _______ _______ _______ _____ _____    ______ ____
ROOT
ATOM      1  C   UNL     1     -12.835  13.807  71.129  0.00  0.00    -0.005 A 
ATOM      2  C   UNL     1     -12.081  13.437  70.041  0.00  0.00    +0.077 A 
ATOM      3  C   UNL     1     -11.991  12.106  69.667  0.00  0.00    +0.015 A 
ATOM      4  C   UNL     1     -11.270  12.117  68.499  0.00  0.00    -0.002 A 
ATOM      5  C   UNL     1     -10.937  11.003  67.590  0.00  0.00    +0.060 C 
ATOM      6  C   UNL     1     -11.115  11.358  66.141  0.00  0.00    +0.147 C 
ATOM      7  O   UNL     1     -11.709  12.582  65.927  0.00  0.00    -0.352 OA
ATOM      8  C   UNL     1     -11.082  13.637  66.564  0.00  0.00    +0.138 C 
ATOM      9  C   UNL     1     -11.120  13.417  68.043  0.00  0.00    +0.080 A 
ATOM     10  C   UNL     1     -12.325  11.112  70.577  0.00  0.00    +0.001 A 
ATOM     11  C   UNL     1     -12.913  11.524  71.765  0.00  0.00    -0.000 A 
ATOM     12  N   UNL     1     -11.538  14.199  69.062  0.00  0.00    -0.248 NA
ATOM     13  C   UNL     1     -13.349  12.824  71.935  0.00  0.00    -0.003 A 
ENDROOT
BRANCH   1  15
ATOM     14  C   UNL     1     -13.406  15.539  71.925  0.00  0.00    +0.005 C 
ATOM     15  C   UNL     1     -13.126  15.238  71.442  0.00  0.00    +0.028 C 
ENDBRANCH   1  15
BRANCH   8  16
ATOM     16  C   UNL     1      -9.652  13.833  66.140  0.00  0.00    +0.034 C 
ATOM     17  C   UNL     1      -9.023  14.861  67.067  0.00  0.00    +0.003 C 
ENDBRANCH   8  16
BRANCH   8  18
ATOM     18  C   UNL     1     -11.838  14.894  66.171  0.00  0.00    +0.147 C 
BRANCH  18  19
ATOM     19  C   UNL     1     -11.829  15.121  64.709  0.00  0.00    +0.368 C 
ATOM     20  O   UNL     1     -11.167  16.272  64.275  0.00  0.00    -0.246 OA
ATOM     21  O   UNL     1     -12.514  14.469  63.893  0.00  0.00    -0.246 OA
ENDBRANCH  18  19
ENDBRANCH   8  18
TORSDOF 4
ENDMDL
MODEL 2
REMARK VINA RESULT:      -6.2      2.256      3.906
REMARK  Name = 
REMARK  4 active torsions:
REMARK  status: ('A' for Active; 'I' for Inactive)
REMARK    1  A    between atoms: C_2  and  C_3
REMARK    2  A    between atoms: C_12  and  C_13
REMARK    3  A    between atoms: C_12  and  C_15
REMARK    4  A    between atoms: C_15  and  C_16
REMARK                            x       y       z     vdW  Elec       q    Type
REMARK                         _______ _______ _______ _____ _____    ______ ____
ROOT
ATOM      1  C   UNL     1     -10.353  16.577  67.590  0.00  0.00    -0.005 A 
ATOM      2  C   UNL     1     -10.203  15.213  67.515  0.00  0.00    +0.077 A 
ATOM      3  C   UNL     1     -10.651  14.399  68.543  0.00  0.00    +0.015 A 
ATOM      4  C   UNL     1     -10.450  13.118  68.091  0.00  0.00    -0.002 A 
ATOM      5  C   UNL     1     -10.820  11.833  68.714  0.00  0.00    +0.060 C 
ATOM      6  C   UNL     1     -11.418  10.860  67.736  0.00  0.00    +0.147 C 
ATOM      7  O   UNL     1     -11.665  11.391  66.490  0.00  0.00    -0.352 OA
ATOM      8  C   UNL     1     -10.569  11.991  65.898  0.00  0.00    +0.138 C 
ATOM      9  C   UNL     1     -10.111  13.135  66.747  0.00  0.00    +0.080 A 
ATOM     10  C   UNL     1     -10.892  14.944  69.797  0.00  0.00    +0.001 A 
ATOM     11  C   UNL     1     -10.845  16.328  69.896  0.00  0.00    -0.000 A 
ATOM     12  N   UNL     1      -9.871  14.433  66.460  0.00  0.00    -0.248 NA
ATOM     13  C   UNL     1     -10.789  17.125  68.769  0.00  0.00    -0.003 A 
ENDROOT
BRANCH   1  15
ATOM     14  C   UNL     1     -10.211  18.073  66.287  0.00  0.00    +0.005 C 
ATOM     15  C   UNL     1     -10.076  17.470  66.426  0.00  0.00    +0.028 C 
ENDBRANCH   1  15
BRANCH   8  16
ATOM     16  C   UNL     1      -9.411  11.054  65.685  0.00  0.00    +0.034 C 
ATOM     17  C   UNL     1      -9.734  10.171  64.490  0.00  0.00    +0.003 C 
ENDBRANCH   8  16
BRANCH   8  18
ATOM     18  C   UNL     1     -11.016  12.463  64.527  0.00  0.00    +0.147 C 
BRANCH  18  19
ATOM     19  C   UNL     1     -12.462  12.775  64.485  0.00  0.00    +0.368 C 
ATOM     20  O   UNL     1     -13.229  12.000  63.611  0.00  0.00    -0.246 OA
ATOM     21  O   UNL     1     -12.979  13.777  65.023  0.00  0.00    -0.246 OA
ENDBRANCH  18  19
ENDBRANCH   8  18
TORSDOF 4
ENDMDL
MODEL 3
REMARK VINA RESULT:      -6.2      2.650      3.532
REMARK  Name = 
REMARK  4 active torsions:
REMARK  status: ('A' for Active; 'I' for Inactive)
REMARK    1  A    between atoms: C_2  and  C_3
REMARK    2  A    between atoms: C_12  and  C_13
REMARK    3  A    between atoms: C_12  and  C_15
REMARK    4  A    between atoms: C_15  and  C_16
REMARK                            x       y       z     vdW  Elec       q    Type
REMARK                         _______ _______ _______ _____ _____    ______ ____
ROOT
ATOM      1  C   UNL     1     -11.845  14.923  71.001  0.00  0.00    -0.005 A 
ATOM      2  C   UNL     1     -11.077  15.194  69.894  0.00  0.00    +0.077 A 
ATOM      3  C   UNL     1     -11.062  14.320  68.818  0.00  0.00    +0.015 A 
ATOM      4  C   UNL     1     -10.300  14.950  67.865  0.00  0.00    -0.002 A 
ATOM      5  C   UNL     1     -10.008  14.543  66.477  0.00  0.00    +0.060 C 
ATOM      6  C   UNL     1     -10.110  15.682  65.501  0.00  0.00    +0.147 C 
ATOM      7  O   UNL     1     -10.613  16.845  66.040  0.00  0.00    -0.352 OA
ATOM      8  C   UNL     1      -9.942  17.289  67.164  0.00  0.00    +0.138 C 
ATOM      9  C   UNL     1     -10.047  16.259  68.243  0.00  0.00    +0.080 A 
ATOM     10  C   UNL     1     -11.494  13.012  68.987  0.00  0.00    +0.001 A 
ATOM     11  C   UNL     1     -12.096  12.705  70.200  0.00  0.00    -0.000 A 
ATOM     12  N   UNL     1     -10.450  16.337  69.531  0.00  0.00    -0.248 NA
ATOM     13  C   UNL     1     -12.452  13.697  71.094  0.00  0.00    -0.003 A 
ENDROOT
BRANCH   1  15
ATOM     14  C   UNL     1     -12.250  15.896  72.688  0.00  0.00    +0.005 C 
ATOM     15  C   UNL     1     -12.051  15.927  72.087  0.00  0.00    +0.028 C 
ENDBRANCH   1  15
BRANCH   8  16
ATOM     16  C   UNL     1      -8.487  17.586  66.919  0.00  0.00    +0.034 C 
ATOM     17  C   UNL     1      -7.785  17.638  68.266  0.00  0.00    +0.003 C 
ENDBRANCH   8  16
BRANCH   8  18
ATOM     18  C   UNL     1     -10.598  18.594  67.577  0.00  0.00    +0.147 C 
BRANCH  18  19
ATOM     19  C   UNL     1     -10.253  19.708  66.667  0.00  0.00    +0.368 C 
ATOM     20  O   UNL     1      -9.555  20.773  67.244  0.00  0.00    -0.246 OA
ATOM     21  O   UNL     1     -10.699  19.831  65.506  0.00  0.00    -0.246 OA
ENDBRANCH  18  19
ENDBRANCH   8  18
TORSDOF 4
ENDMDL
MODEL 4
REMARK VINA RESULT:      -6.1      3.360      6.409
REMARK  Name = 
REMARK  4 active torsions:
REMARK  status: ('A' for Active; 'I' for Inactive)
REMARK    1  A    between atoms: C_2  and  C_3
REMARK    2  A    between atoms: C_12  and  C_13
REMARK    3  A    between atoms: C_12  and  C_15
REMARK    4  A    between atoms: C_15  and  C_16
REMARK                            x       y       z     vdW  Elec       q    Type
REMARK                         _______ _______ _______ _____ _____    ______ ____
ROOT
ATOM      1  C   UNL     1      -7.042  18.738  66.257  0.00  0.00    -0.005 A 
ATOM      2  C   UNL     1      -7.775  17.703  66.786  0.00  0.00    +0.077 A 
ATOM      3  C   UNL     1      -8.589  17.909  67.888  0.00  0.00    +0.015 A 
ATOM      4  C   UNL     1      -9.247  16.717  68.068  0.00  0.00    -0.002 A 
ATOM      5  C   UNL     1     -10.310  16.367  69.029  0.00  0.00    +0.060 C 
ATOM      6  C   UNL     1     -11.421  15.569  68.406  0.00  0.00    +0.147 C 
ATOM      7  O   UNL     1     -11.335  15.454  67.036  0.00  0.00    -0.352 OA
ATOM      8  C   UNL     1     -10.128  14.955  66.581  0.00  0.00    +0.138 C 
ATOM      9  C   UNL     1      -9.025  15.882  66.984  0.00  0.00    +0.080 A 
ATOM     10  C   UNL     1      -8.389  19.023  68.693  0.00  0.00    +0.001 A 
ATOM     11  C   UNL     1      -7.489  19.974  68.231  0.00  0.00    -0.000 A 
ATOM     12  N   UNL     1      -8.042  16.478  66.274  0.00  0.00    -0.248 NA
ATOM     13  C   UNL     1      -6.995  19.925  66.942  0.00  0.00    -0.003 A 
ENDROOT
BRANCH   1  15
ATOM     14  C   UNL     1      -5.926  18.988  64.629  0.00  0.00    +0.005 C 
ATOM     15  C   UNL     1      -6.317  18.613  64.957  0.00  0.00    +0.028 C 
ENDBRANCH   1  15
BRANCH   8  16
ATOM     16  C   UNL     1      -9.814  13.577  67.096  0.00  0.00    +0.034 C 
ATOM     17  C   UNL     1     -10.753  12.594  66.415  0.00  0.00    +0.003 C 
ENDBRANCH   8  16
BRANCH   8  18
ATOM     18  C   UNL     1     -10.241  14.850  65.071  0.00  0.00    +0.147 C 
BRANCH  18  19
ATOM     19  C   UNL     1     -11.348  15.671  64.533  0.00  0.00    +0.368 C 
ATOM     20  O   UNL     1     -12.479  14.967  64.112  0.00  0.00    -0.246 OA
ATOM     21  O   UNL     1     -11.256  16.888  64.269  0.00  0.00    -0.246 OA
ENDBRANCH  18  19
ENDBRANCH   8  18
TORSDOF 4
ENDMDL
MODEL 5
REMARK VINA RESULT:      -5.9      1.930      3.741
REMARK  Name = 
REMARK  4 active torsions:
REMARK  status: ('A' for Active; 'I' for Inactive)
REMARK    1  A    between atoms: C_2  and  C_3
REMARK    2  A    between atoms: C_12  and  C_13
REMARK    3  A    between atoms: C_12  and  C_15
REMARK    4  A    between atoms: C_15  and  C_16
REMARK                            x       y       z     vdW  Elec       q    Type
REMARK                         _______ _______ _______ _____ _____    ______ ____
ROOT
ATOM      1  C   UNL     1     -12.287  13.777  70.886  0.00  0.00    -0.005 A 
ATOM      2  C   UNL     1     -12.021  14.138  69.587  0.00  0.00    +0.077 A 
ATOM      3  C   UNL     1     -11.375  15.333  69.308  0.00  0.00    +0.015 A 
ATOM      4  C   UNL     1     -11.173  15.314  67.950  0.00  0.00    -0.002 A 
ATOM      5  C   UNL     1     -10.451  16.275  67.095  0.00  0.00    +0.060 C 
ATOM      6  C   UNL     1      -9.567  15.605  66.080  0.00  0.00    +0.147 C 
ATOM      7  O   UNL     1      -9.459  14.241  66.237  0.00  0.00    -0.352 OA
ATOM      8  C   UNL     1     -10.670  13.574  66.272  0.00  0.00    +0.138 C 
ATOM      9  C   UNL     1     -11.469  14.059  67.441  0.00  0.00    +0.080 A 
ATOM     10  C   UNL     1     -11.338  16.336  70.267  0.00  0.00    +0.001 A 
ATOM     11  C   UNL     1     -11.799  16.005  71.535  0.00  0.00    -0.000 A 
ATOM     12  N   UNL     1     -12.079  13.403  68.452  0.00  0.00    -0.248 NA
ATOM     13  C   UNL     1     -12.063  14.694  71.881  0.00  0.00    -0.003 A 
ENDROOT
BRANCH   1  15
ATOM     14  C   UNL     1     -13.151  12.185  71.710  0.00  0.00    +0.005 C 
ATOM     15  C   UNL     1     -12.790  12.417  71.243  0.00  0.00    +0.028 C 
ENDBRANCH   1  15
BRANCH   8  16
ATOM     16  C   UNL     1     -11.489  13.746  65.022  0.00  0.00    +0.034 C 
ATOM     17  C   UNL     1     -12.417  12.548  64.899  0.00  0.00    +0.003 C 
ENDBRANCH   8  16
BRANCH   8  18
ATOM     18  C   UNL     1     -10.351  12.096  66.394  0.00  0.00    +0.147 C 
BRANCH  18  19
ATOM     19  C   UNL     1      -9.082  11.853  67.116  0.00  0.00    +0.368 C 
ATOM     20  O   UNL     1      -8.035  11.334  66.350  0.00  0.00    -0.246 OA
ATOM     21  O   UNL     1      -8.960  11.905  68.358  0.00  0.00    -0.246 OA
ENDBRANCH  18  19
ENDBRANCH   8  18
TORSDOF 4
ENDMDL
MODEL 6
REMARK VINA RESULT:      -5.8      2.052      2.756
REMARK  Name = 
REMARK  4 active torsions:
REMARK  status: ('A' for Active; 'I' for Inactive)
REMARK    1  A    between atoms: C_2  and  C_3
REMARK    2  A    between atoms: C_12  and  C_13
REMARK    3  A    between atoms: C_12  and  C_15
REMARK    4  A    between atoms: C_15  and  C_16
REMARK                            x       y       z     vdW  Elec       q    Type
REMARK                         _______ _______ _______ _____ _____    ______ ____
ROOT
ATOM      1  C   UNL     1     -11.674  10.400  70.670  0.00  0.00    -0.005 A 
ATOM      2  C   UNL     1     -10.972  10.952  69.627  0.00  0.00    +0.077 A 
ATOM      3  C   UNL     1     -10.047  10.197  68.924  0.00  0.00    +0.015 A 
ATOM      4  C   UNL     1      -9.631  11.012  67.900  0.00  0.00    -0.002 A 
ATOM      5  C   UNL     1      -8.722  10.719  66.776  0.00  0.00    +0.060 C 
ATOM      6  C   UNL     1      -9.224  11.251  65.464  0.00  0.00    +0.147 C 
ATOM      7  O   UNL     1     -10.502  11.762  65.513  0.00  0.00    -0.352 OA
ATOM      8  C   UNL     1     -10.692  12.730  66.481  0.00  0.00    +0.138 C 
ATOM      9  C   UNL     1     -10.435  12.138  67.831  0.00  0.00    +0.080 A 
ATOM     10  C   UNL     1      -9.541   9.032  69.486  0.00  0.00    +0.001 A 
ATOM     11  C   UNL     1     -10.141   8.592  70.658  0.00  0.00    -0.000 A 
ATOM     12  N   UNL     1     -11.174  12.115  68.962  0.00  0.00    -0.248 NA
ATOM     13  C   UNL     1     -11.319   9.152  71.113  0.00  0.00    -0.003 A 
ENDROOT
BRANCH   1  15
ATOM     14  C   UNL     1     -13.190  10.989  71.817  0.00  0.00    +0.005 C 
ATOM     15  C   UNL     1     -12.820  11.108  71.316  0.00  0.00    +0.028 C 
ENDBRANCH   1  15
BRANCH   8  16
ATOM     16  C   UNL     1      -9.810  13.937  66.307  0.00  0.00    +0.034 C 
ATOM     17  C   UNL     1     -10.165  14.940  67.393  0.00  0.00    +0.003 C 
ENDBRANCH   8  16
BRANCH   8  18
ATOM     18  C   UNL     1     -12.127  13.206  66.348  0.00  0.00    +0.147 C 
BRANCH  18  19
ATOM     19  C   UNL     1     -12.598  13.183  64.945  0.00  0.00    +0.368 C 
ATOM     20  O   UNL     1     -12.468  14.381  64.239  0.00  0.00    -0.246 OA
ATOM     21  O   UNL     1     -13.253  12.247  64.440  0.00  0.00    -0.246 OA
ENDBRANCH  18  19
ENDBRANCH   8  18
TORSDOF 4
ENDMDL
MODEL 7
REMARK VINA RESULT:      -5.8      3.243      4.820
REMARK  Name = 
REMARK  4 active torsions:
REMARK  status: ('A' for Active; 'I' for Inactive)
REMARK    1  A    between atoms: C_2  and  C_3
REMARK    2  A    between atoms: C_12  and  C_13
REMARK    3  A    between atoms: C_12  and  C_15
REMARK    4  A    between atoms: C_15  and  C_16
REMARK                            x       y       z     vdW  Elec       q    Type
REMARK                         _______ _______ _______ _____ _____    ______ ____
ROOT
ATOM      1  C   UNL     1     -11.602  14.772  69.476  0.00  0.00    -0.005 A 
ATOM      2  C   UNL     1     -10.405  15.309  69.072  0.00  0.00    +0.077 A 
ATOM      3  C   UNL     1      -9.803  14.883  67.898  0.00  0.00    +0.015 A 
ATOM      4  C   UNL     1      -8.708  15.697  67.748  0.00  0.00    -0.002 A 
ATOM      5  C   UNL     1      -7.741  15.775  66.636  0.00  0.00    +0.060 C 
ATOM      6  C   UNL     1      -7.413  17.188  66.245  0.00  0.00    +0.147 C 
ATOM      7  O   UNL     1      -8.187  18.141  66.867  0.00  0.00    -0.352 OA
ATOM      8  C   UNL     1      -8.192  18.059  68.247  0.00  0.00    +0.138 C 
ATOM      9  C   UNL     1      -8.758  16.737  68.662  0.00  0.00    +0.080 A 
ATOM     10  C   UNL     1     -10.181  13.673  67.331  0.00  0.00    +0.001 A 
ATOM     11  C   UNL     1     -11.287  13.042  67.886  0.00  0.00    -0.000 A 
ATOM     12  N   UNL     1      -9.751  16.408  69.518  0.00  0.00    -0.248 NA
ATOM     13  C   UNL     1     -12.100  13.690  68.796  0.00  0.00    -0.003 A 
ENDROOT
BRANCH   1  15
ATOM     14  C   UNL     1     -12.998  15.365  70.765  0.00  0.00    +0.005 C 
ATOM     15  C   UNL     1     -12.382  15.343  70.615  0.00  0.00    +0.028 C 
ENDBRANCH   1  15
BRANCH   8  16
ATOM     16  C   UNL     1      -6.830  18.217  68.865  0.00  0.00    +0.034 C 
ATOM     17  C   UNL     1      -6.590  19.700  69.102  0.00  0.00    +0.003 C 
ENDBRANCH   8  16
BRANCH   8  18
ATOM     18  C   UNL     1      -9.045  19.209  68.750  0.00  0.00    +0.147 C 
BRANCH  18  19
ATOM     19  C   UNL     1     -10.062  19.628  67.761  0.00  0.00    +0.368 C 
ATOM     20  O   UNL     1      -9.873  20.889  67.189  0.00  0.00    -0.246 OA
ATOM     21  O   UNL     1     -11.137  19.024  67.560  0.00  0.00    -0.246 OA
ENDBRANCH  18  19
ENDBRANCH   8  18
TORSDOF 4
ENDMDL
MODEL 8
REMARK VINA RESULT:      -5.7      3.119      5.879
REMARK  Name = 
REMARK  4 active torsions:
REMARK  status: ('A' for Active; 'I' for Inactive)
REMARK    1  A    between atoms: C_2  and  C_3
REMARK    2  A    between atoms: C_12  and  C_13
REMARK    3  A    between atoms: C_12  and  C_15
REMARK    4  A    between atoms: C_15  and  C_16
REMARK                            x       y       z     vdW  Elec       q    Type
REMARK                         _______ _______ _______ _____ _____    ______ ____
ROOT
ATOM      1  C   UNL     1      -9.073  18.446  66.345  0.00  0.00    -0.005 A 
ATOM      2  C   UNL     1      -9.149  17.075  66.378  0.00  0.00    +0.077 A 
ATOM      3  C   UNL     1      -8.073  16.321  66.818  0.00  0.00    +0.015 A 
ATOM      4  C   UNL     1      -8.531  15.027  66.829  0.00  0.00    -0.002 A 
ATOM      5  C   UNL     1      -7.860  13.797  67.293  0.00  0.00    +0.060 C 
ATOM      6  C   UNL     1      -8.762  12.911  68.105  0.00  0.00    +0.147 C 
ATOM      7  O   UNL     1      -9.982  13.473  68.410  0.00  0.00    -0.352 OA
ATOM      8  C   UNL     1     -10.688  13.930  67.313  0.00  0.00    +0.138 C 
ATOM      9  C   UNL     1      -9.902  15.004  66.630  0.00  0.00    +0.080 A 
ATOM     10  C   UNL     1      -6.806  16.889  66.859  0.00  0.00    +0.001 A 
ATOM     11  C   UNL     1      -6.726  18.256  66.627  0.00  0.00    -0.000 A 
ATOM     12  N   UNL     1     -10.225  16.262  66.257  0.00  0.00    -0.248 NA
ATOM     13  C   UNL     1      -7.861  19.042  66.585  0.00  0.00    -0.003 A 
ENDROOT
BRANCH   1  15
ATOM     14  C   UNL     1     -10.519  19.813  66.354  0.00  0.00    +0.005 C 
ATOM     15  C   UNL     1     -10.269  19.300  66.078  0.00  0.00    +0.028 C 
ENDBRANCH   1  15
BRANCH   8  16
ATOM     16  C   UNL     1     -11.008  12.854  66.311  0.00  0.00    +0.034 C 
ATOM     17  C   UNL     1     -12.294  13.242  65.598  0.00  0.00    +0.003 C 
ENDBRANCH   8  16
BRANCH   8  18
ATOM     18  C   UNL     1     -12.011  14.459  67.835  0.00  0.00    +0.147 C 
BRANCH  18  19
ATOM     19  C   UNL     1     -11.880  15.080  69.171  0.00  0.00    +0.368 C 
ATOM     20  O   UNL     1     -12.275  14.289  70.253  0.00  0.00    -0.246 OA
ATOM     21  O   UNL     1     -11.626  16.288  69.362  0.00  0.00    -0.246 OA
ENDBRANCH  18  19
ENDBRANCH   8  18
TORSDOF 4
ENDMDL
MODEL 9
REMARK VINA RESULT:      -5.7      2.641      4.447
REMARK  Name = 
REMARK  4 active torsions:
REMARK  status: ('A' for Active; 'I' for Inactive)
REMARK    1  A    between atoms: C_2  and  C_3
REMARK    2  A    between atoms: C_12  and  C_13
REMARK    3  A    between atoms: C_12  and  C_15
REMARK    4  A    between atoms: C_15  and  C_16
REMARK                            x       y       z     vdW  Elec       q    Type
REMARK                         _______ _______ _______ _____ _____    ______ ____
ROOT
ATOM      1  C   UNL     1     -11.513  10.199  70.000  0.00  0.00    -0.005 A 
ATOM      2  C   UNL     1     -11.697  11.543  69.786  0.00  0.00    +0.077 A 
ATOM      3  C   UNL     1     -12.323  12.328  70.741  0.00  0.00    +0.015 A 
ATOM      4  C   UNL     1     -12.231  13.610  70.258  0.00  0.00    -0.002 A 
ATOM      5  C   UNL     1     -12.638  14.882  70.885  0.00  0.00    +0.060 C 
ATOM      6  C   UNL     1     -11.615  15.970  70.719  0.00  0.00    +0.147 C 
ATOM      7  O   UNL     1     -10.426  15.548  70.167  0.00  0.00    -0.352 OA
ATOM      8  C   UNL     1     -10.561  14.884  68.962  0.00  0.00    +0.138 C 
ATOM      9  C   UNL     1     -11.379  13.649  69.165  0.00  0.00    +0.080 A 
ATOM     10  C   UNL     1     -13.101  11.729  71.722  0.00  0.00    +0.001 A 
ATOM     11  C   UNL     1     -13.054  10.343  71.797  0.00  0.00    -0.000 A 
ATOM     12  N   UNL     1     -11.156  12.354  68.847  0.00  0.00    -0.248 NA
ATOM     13  C   UNL     1     -12.114   9.620  71.089  0.00  0.00    -0.003 A 
ENDROOT
BRANCH   1  15
ATOM     14  C   UNL     1     -10.479   8.755  69.102  0.00  0.00    +0.005 C 
ATOM     15  C   UNL     1     -10.667   9.361  69.099  0.00  0.00    +0.028 C 
ENDBRANCH   1  15
BRANCH   8  16
ATOM     16  C   UNL     1     -11.202  15.717  67.885  0.00  0.00    +0.034 C 
ATOM     17  C   UNL     1     -10.910  15.059  66.545  0.00  0.00    +0.003 C 
ENDBRANCH   8  16
BRANCH   8  18
ATOM     18  C   UNL     1      -9.158  14.549  68.489  0.00  0.00    +0.147 C 
BRANCH  18  19
ATOM     19  C   UNL     1      -8.136  15.428  69.097  0.00  0.00    +0.368 C 
ATOM     20  O   UNL     1      -8.048  16.718  68.566  0.00  0.00    -0.246 OA
ATOM     21  O   UNL     1      -7.256  15.037  69.893  0.00  0.00    -0.246 OA
ENDBRANCH  18  19
ENDBRANCH   8  18
TORSDOF 4
ENDMDL
