MODEL 1
REMARK VINA RESULT:      -7.7      0.000      0.000
REMARK  Name = 
REMARK  2 active torsions:
REMARK  status: ('A' for Active; 'I' for Inactive)
REMARK    1  A    between atoms: C_25  and  C_26
REMARK    2  A    between atoms: C_26  and  C_28
REMARK                            x       y       z     vdW  Elec       q    Type
REMARK                         _______ _______ _______ _____ _____    ______ ____
ROOT
ATOM      1  C   UNL     1     -11.678  12.750  69.949  0.00  0.00    +0.061 C 
ATOM      2  C   UNL     1     -11.447  12.658  68.550  0.00  0.00    +0.188 C 
ATOM      3  O   UNL     1     -11.931  13.793  67.959  0.00  0.00    -0.330 OA
ATOM      4  C   UNL     1     -11.327  13.999  66.759  0.00  0.00    +0.173 C 
ATOM      5  C   UNL     1     -10.257  12.712  66.728  0.00  0.00    +0.149 C 
ATOM      6  C   UNL     1      -8.888  13.670  66.517  0.00  0.00    +0.033 C 
ATOM      7  C   UNL     1      -9.391  14.800  67.588  0.00  0.00    +0.005 C 
ATOM      8  C   UNL     1      -8.395  16.006  66.901  0.00  0.00    +0.004 C 
ATOM      9  C   UNL     1      -8.966  17.126  68.032  0.00  0.00    +0.038 C 
ATOM     10  C   UNL     1     -10.293  17.710  67.059  0.00  0.00    +0.153 C 
ATOM     11  C   UNL     1     -11.160  16.292  67.131  0.00  0.00    +0.036 C 
ATOM     12  O   UNL     1      -9.610  17.422  65.704  0.00  0.00    -0.223 OA
ATOM     13  C   UNL     1      -7.956  18.306  67.631  0.00  0.00    +0.036 C 
ATOM     14  C   UNL     1      -6.723  17.808  67.053  0.00  0.00    -0.038 C 
ATOM     15  C   UNL     1      -5.838  18.788  66.836  0.00  0.00    +0.034 C 
ATOM     16  C   UNL     1      -5.924  20.084  67.530  0.00  0.00    +0.195 C 
ATOM     17  C   UNL     1      -6.765  20.031  68.736  0.00  0.00    +0.038 C 
ATOM     18  O   UNL     1      -5.219  21.071  67.226  0.00  0.00    -0.287 OA
ATOM     19  C   UNL     1      -6.089  16.483  67.340  0.00  0.00    +0.022 C 
ATOM     20  C   UNL     1      -8.592  19.395  66.892  0.00  0.00    +0.009 C 
ATOM     21  C   UNL     1      -7.517  18.942  68.925  0.00  0.00    -0.020 C 
ATOM     22  C   UNL     1      -7.172  15.600  67.876  0.00  0.00    +0.004 C 
ATOM     23  C   UNL     1     -10.570  15.184  66.517  0.00  0.00    +0.034 C 
ATOM     24  C   UNL     1     -10.028  15.133  65.157  0.00  0.00    +0.003 C 
ATOM     25  O   UNL     1     -10.096  12.743  68.277  0.00  0.00    -0.334 OA
ATOM     26  C   UNL     1     -12.046  11.377  68.055  0.00  0.00    +0.061 C 
ENDROOT
BRANCH   4  27
ATOM     27  C   UNL     1     -12.281  13.558  65.692  0.00  0.00    +0.210 C 
ATOM     28  O   UNL     1     -13.413  14.036  65.600  0.00  0.00    -0.291 OA
BRANCH  27  29
ATOM     29  C   UNL     1     -12.001  12.457  64.745  0.00  0.00    +0.248 C 
ATOM     30  O   UNL     1     -13.073  12.123  63.942  0.00  0.00    -0.212 OA
ENDBRANCH  27  29
ENDBRANCH   4  27
TORSDOF 2
ENDMDL
MODEL 2
REMARK VINA RESULT:      -7.7      1.582      1.956
REMARK  Name = 
REMARK  2 active torsions:
REMARK  status: ('A' for Active; 'I' for Inactive)
REMARK    1  A    between atoms: C_25  and  C_26
REMARK    2  A    between atoms: C_26  and  C_28
REMARK                            x       y       z     vdW  Elec       q    Type
REMARK                         _______ _______ _______ _____ _____    ______ ____
ROOT
ATOM      1  C   UNL     1     -12.134  15.943  71.063  0.00  0.00    +0.061 C 
ATOM      2  C   UNL     1     -11.612  15.065  70.075  0.00  0.00    +0.188 C 
ATOM      3  O   UNL     1     -11.774  15.653  68.850  0.00  0.00    -0.330 OA
ATOM      4  C   UNL     1     -10.893  15.134  67.954  0.00  0.00    +0.173 C 
ATOM      5  C   UNL     1     -10.051  14.068  68.931  0.00  0.00    +0.149 C 
ATOM      6  C   UNL     1      -8.541  14.738  68.604  0.00  0.00    +0.033 C 
ATOM      7  C   UNL     1      -9.094  16.276  68.685  0.00  0.00    +0.005 C 
ATOM      8  C   UNL     1      -7.798  16.872  67.745  0.00  0.00    +0.004 C 
ATOM      9  C   UNL     1      -8.431  18.436  67.861  0.00  0.00    +0.038 C 
ATOM     10  C   UNL     1      -9.403  18.349  66.412  0.00  0.00    +0.153 C 
ATOM     11  C   UNL     1     -10.468  17.226  67.021  0.00  0.00    +0.036 C 
ATOM     12  O   UNL     1      -8.486  17.339  65.690  0.00  0.00    -0.223 OA
ATOM     13  C   UNL     1      -7.190  19.176  67.164  0.00  0.00    +0.036 C 
ATOM     14  C   UNL     1      -5.949  18.442  67.317  0.00  0.00    -0.038 C 
ATOM     15  C   UNL     1      -4.900  19.124  66.842  0.00  0.00    +0.034 C 
ATOM     16  C   UNL     1      -4.942  20.583  66.647  0.00  0.00    +0.195 C 
ATOM     17  C   UNL     1      -6.029  21.228  67.399  0.00  0.00    +0.038 C 
ATOM     18  O   UNL     1      -4.045  21.220  66.051  0.00  0.00    -0.287 OA
ATOM     19  C   UNL     1      -5.604  17.525  68.449  0.00  0.00    +0.022 C 
ATOM     20  C   UNL     1      -7.472  19.640  65.806  0.00  0.00    +0.009 C 
ATOM     21  C   UNL     1      -6.960  20.442  67.948  0.00  0.00    -0.020 C 
ATOM     22  C   UNL     1      -6.900  17.105  69.068  0.00  0.00    +0.004 C 
ATOM     23  C   UNL     1      -9.932  15.969  67.311  0.00  0.00    +0.034 C 
ATOM     24  C   UNL     1      -9.113  15.149  66.414  0.00  0.00    +0.003 C 
ATOM     25  O   UNL     1     -10.238  14.985  70.177  0.00  0.00    -0.334 OA
ATOM     26  C   UNL     1     -12.273  13.730  70.233  0.00  0.00    +0.061 C 
ENDROOT
BRANCH   4  27
ATOM     27  C   UNL     1     -11.641  14.156  67.100  0.00  0.00    +0.210 C 
ATOM     28  O   UNL     1     -12.546  14.516  66.346  0.00  0.00    -0.291 OA
BRANCH  27  29
ATOM     29  C   UNL     1     -11.442  12.692  67.165  0.00  0.00    +0.248 C 
ATOM     30  O   UNL     1     -12.015  12.003  66.115  0.00  0.00    -0.212 OA
ENDBRANCH  27  29
ENDBRANCH   4  27
TORSDOF 2
ENDMDL
MODEL 3
REMARK VINA RESULT:      -7.6      2.063      3.131
REMARK  Name = 
REMARK  2 active torsions:
REMARK  status: ('A' for Active; 'I' for Inactive)
REMARK    1  A    between atoms: C_25  and  C_26
REMARK    2  A    between atoms: C_26  and  C_28
REMARK                            x       y       z     vdW  Elec       q    Type
REMARK                         _______ _______ _______ _____ _____    ______ ____
ROOT
ATOM      1  C   UNL     1     -11.672  15.939  69.911  0.00  0.00    +0.061 C 
ATOM      2  C   UNL     1     -10.987  15.590  68.716  0.00  0.00    +0.188 C 
ATOM      3  O   UNL     1     -10.819  16.725  67.970  0.00  0.00    -0.330 OA
ATOM      4  C   UNL     1      -9.785  16.573  67.101  0.00  0.00    +0.173 C 
ATOM      5  C   UNL     1      -9.264  15.035  67.507  0.00  0.00    +0.149 C 
ATOM      6  C   UNL     1      -7.681  15.504  67.839  0.00  0.00    +0.033 C 
ATOM      7  C   UNL     1      -8.142  16.870  68.614  0.00  0.00    +0.005 C 
ATOM      8  C   UNL     1      -6.627  17.617  68.360  0.00  0.00    +0.004 C 
ATOM      9  C   UNL     1      -7.172  19.001  69.164  0.00  0.00    +0.038 C 
ATOM     10  C   UNL     1      -7.778  19.813  67.741  0.00  0.00    +0.153 C 
ATOM     11  C   UNL     1      -9.024  18.742  67.483  0.00  0.00    +0.036 C 
ATOM     12  O   UNL     1      -6.780  19.151  66.767  0.00  0.00    -0.223 OA
ATOM     13  C   UNL     1      -5.759  19.760  69.179  0.00  0.00    +0.036 C 
ATOM     14  C   UNL     1      -4.637  18.843  69.136  0.00  0.00    -0.038 C 
ATOM     15  C   UNL     1      -3.466  19.476  69.273  0.00  0.00    +0.034 C 
ATOM     16  C   UNL     1      -3.370  20.821  69.862  0.00  0.00    +0.195 C 
ATOM     17  C   UNL     1      -4.563  21.188  70.642  0.00  0.00    +0.038 C 
ATOM     18  O   UNL     1      -2.321  21.502  69.849  0.00  0.00    -0.287 OA
ATOM     19  C   UNL     1      -4.625  17.442  69.663  0.00  0.00    +0.022 C 
ATOM     20  C   UNL     1      -5.684  20.876  68.237  0.00  0.00    +0.009 C 
ATOM     21  C   UNL     1      -5.643  20.409  70.533  0.00  0.00    -0.020 C 
ATOM     22  C   UNL     1      -6.054  17.004  69.741  0.00  0.00    +0.004 C 
ATOM     23  C   UNL     1      -8.649  17.435  67.163  0.00  0.00    +0.034 C 
ATOM     24  C   UNL     1      -7.693  17.037  66.125  0.00  0.00    +0.003 C 
ATOM     25  O   UNL     1      -9.683  15.231  68.995  0.00  0.00    -0.334 OA
ATOM     26  C   UNL     1     -11.746  14.490  68.040  0.00  0.00    +0.061 C 
ENDROOT
BRANCH   4  27
ATOM     27  C   UNL     1     -10.368  16.293  65.750  0.00  0.00    +0.210 C 
ATOM     28  O   UNL     1     -10.937  17.169  65.098  0.00  0.00    -0.291 OA
BRANCH  27  29
ATOM     29  C   UNL     1     -10.412  14.947  65.139  0.00  0.00    +0.248 C 
ATOM     30  O   UNL     1     -11.603  14.660  64.504  0.00  0.00    -0.212 OA
ENDBRANCH  27  29
ENDBRANCH   4  27
TORSDOF 2
ENDMDL
MODEL 4
REMARK VINA RESULT:      -7.4      1.469      3.307
REMARK  Name = 
REMARK  2 active torsions:
REMARK  status: ('A' for Active; 'I' for Inactive)
REMARK    1  A    between atoms: C_25  and  C_26
REMARK    2  A    between atoms: C_26  and  C_28
REMARK                            x       y       z     vdW  Elec       q    Type
REMARK                         _______ _______ _______ _____ _____    ______ ____
ROOT
ATOM      1  C   UNL     1     -10.684  12.863  63.921  0.00  0.00    +0.061 C 
ATOM      2  C   UNL     1     -11.041  13.051  65.283  0.00  0.00    +0.188 C 
ATOM      3  O   UNL     1      -9.897  13.021  66.035  0.00  0.00    -0.330 OA
ATOM      4  C   UNL     1     -10.089  13.664  67.217  0.00  0.00    +0.173 C 
ATOM      5  C   UNL     1     -11.668  14.187  67.031  0.00  0.00    +0.149 C 
ATOM      6  C   UNL     1     -11.310  15.814  67.284  0.00  0.00    +0.033 C 
ATOM      7  C   UNL     1      -9.941  15.755  66.389  0.00  0.00    +0.005 C 
ATOM      8  C   UNL     1      -9.283  17.127  67.165  0.00  0.00    +0.004 C 
ATOM      9  C   UNL     1      -7.892  17.002  66.213  0.00  0.00    +0.038 C 
ATOM     10  C   UNL     1      -7.002  15.987  67.321  0.00  0.00    +0.153 C 
ATOM     11  C   UNL     1      -7.985  14.660  67.122  0.00  0.00    +0.036 C 
ATOM     12  O   UNL     1      -7.698  16.524  68.591  0.00  0.00    -0.223 OA
ATOM     13  C   UNL     1      -7.225  18.376  66.701  0.00  0.00    +0.036 C 
ATOM     14  C   UNL     1      -8.209  19.344  67.146  0.00  0.00    -0.038 C 
ATOM     15  C   UNL     1      -7.656  20.527  67.433  0.00  0.00    +0.034 C 
ATOM     16  C   UNL     1      -6.336  20.920  66.911  0.00  0.00    +0.195 C 
ATOM     17  C   UNL     1      -5.918  20.112  65.754  0.00  0.00    +0.038 C 
ATOM     18  O   UNL     1      -5.723  21.940  67.296  0.00  0.00    -0.287 OA
ATOM     19  C   UNL     1      -9.622  19.445  66.664  0.00  0.00    +0.022 C 
ATOM     20  C   UNL     1      -6.089  18.188  67.602  0.00  0.00    +0.009 C 
ATOM     21  C   UNL     1      -6.623  19.012  65.474  0.00  0.00    -0.020 C 
ATOM     22  C   UNL     1      -9.971  18.111  66.082  0.00  0.00    +0.004 C 
ATOM     23  C   UNL     1      -9.303  14.804  67.561  0.00  0.00    +0.034 C 
ATOM     24  C   UNL     1      -9.730  15.297  68.874  0.00  0.00    +0.003 C 
ATOM     25  O   UNL     1     -11.489  14.341  65.491  0.00  0.00    -0.334 OA
ATOM     26  C   UNL     1     -12.071  12.026  65.648  0.00  0.00    +0.061 C 
ENDROOT
BRANCH   4  27
ATOM     27  C   UNL     1     -10.292  12.620  68.271  0.00  0.00    +0.210 C 
ATOM     28  O   UNL     1      -9.437  11.765  68.508  0.00  0.00    -0.291 OA
BRANCH  27  29
ATOM     29  C   UNL     1     -11.551  12.454  69.029  0.00  0.00    +0.248 C 
ATOM     30  O   UNL     1     -12.128  11.207  68.890  0.00  0.00    -0.212 OA
ENDBRANCH  27  29
ENDBRANCH   4  27
TORSDOF 2
ENDMDL
MODEL 5
REMARK VINA RESULT:      -7.4      2.894      7.734
REMARK  Name = 
REMARK  2 active torsions:
REMARK  status: ('A' for Active; 'I' for Inactive)
REMARK    1  A    between atoms: C_25  and  C_26
REMARK    2  A    between atoms: C_26  and  C_28
REMARK                            x       y       z     vdW  Elec       q    Type
REMARK                         _______ _______ _______ _____ _____    ______ ____
ROOT
ATOM      1  C   UNL     1      -8.187  15.820  68.336  0.00  0.00    +0.061 C 
ATOM      2  C   UNL     1      -9.351  15.536  67.572  0.00  0.00    +0.188 C 
ATOM      3  O   UNL     1      -9.161  14.342  66.929  0.00  0.00    -0.330 OA
ATOM      4  C   UNL     1     -10.356  13.784  66.602  0.00  0.00    +0.173 C 
ATOM      5  C   UNL     1     -11.411  14.909  67.252  0.00  0.00    +0.149 C 
ATOM      6  C   UNL     1     -12.226  13.798  68.221  0.00  0.00    +0.033 C 
ATOM      7  C   UNL     1     -10.852  13.027  68.666  0.00  0.00    +0.005 C 
ATOM      8  C   UNL     1     -11.693  11.595  69.065  0.00  0.00    +0.004 C 
ATOM      9  C   UNL     1     -10.235  10.857  69.499  0.00  0.00    +0.038 C 
ATOM     10  C   UNL     1      -9.896  10.182  67.925  0.00  0.00    +0.153 C 
ATOM     11  C   UNL     1      -9.627  11.651  67.193  0.00  0.00    +0.036 C 
ATOM     12  O   UNL     1     -11.376  10.052  67.506  0.00  0.00    -0.223 OA
ATOM     13  C   UNL     1     -10.890   9.520  70.097  0.00  0.00    +0.036 C 
ATOM     14  C   UNL     1     -12.240   9.732  70.581  0.00  0.00    -0.038 C 
ATOM     15  C   UNL     1     -12.732   8.646  71.188  0.00  0.00    +0.034 C 
ATOM     16  C   UNL     1     -11.860   7.580  71.708  0.00  0.00    +0.195 C 
ATOM     17  C   UNL     1     -10.466   8.017  71.878  0.00  0.00    +0.038 C 
ATOM     18  O   UNL     1     -12.293   6.483  72.125  0.00  0.00    -0.287 OA
ATOM     19  C   UNL     1     -12.791  11.018  71.115  0.00  0.00    +0.022 C 
ATOM     20  C   UNL     1     -10.716   8.349  69.239  0.00  0.00    +0.009 C 
ATOM     21  C   UNL     1     -10.108   9.187  71.341  0.00  0.00    -0.020 C 
ATOM     22  C   UNL     1     -11.918  12.110  70.581  0.00  0.00    +0.004 C 
ATOM     23  C   UNL     1     -10.730  12.506  67.117  0.00  0.00    +0.034 C 
ATOM     24  C   UNL     1     -12.061  12.161  66.613  0.00  0.00    +0.003 C 
ATOM     25  O   UNL     1     -10.417  15.251  68.402  0.00  0.00    -0.334 OA
ATOM     26  C   UNL     1      -9.626  16.705  66.676  0.00  0.00    +0.061 C 
ENDROOT
BRANCH   4  27
ATOM     27  C   UNL     1     -10.588  14.035  65.143  0.00  0.00    +0.210 C 
ATOM     28  O   UNL     1      -9.886  13.511  64.278  0.00  0.00    -0.291 OA
BRANCH  27  29
ATOM     29  C   UNL     1     -11.582  15.000  64.626  0.00  0.00    +0.248 C 
ATOM     30  O   UNL     1     -12.585  14.420  63.875  0.00  0.00    -0.212 OA
ENDBRANCH  27  29
ENDBRANCH   4  27
TORSDOF 2
ENDMDL
MODEL 6
REMARK VINA RESULT:      -7.0      2.071      3.895
REMARK  Name = 
REMARK  2 active torsions:
REMARK  status: ('A' for Active; 'I' for Inactive)
REMARK    1  A    between atoms: C_25  and  C_26
REMARK    2  A    between atoms: C_26  and  C_28
REMARK                            x       y       z     vdW  Elec       q    Type
REMARK                         _______ _______ _______ _____ _____    ______ ____
ROOT
ATOM      1  C   UNL     1      -7.918  10.429  65.207  0.00  0.00    +0.061 C 
ATOM      2  C   UNL     1      -9.192  10.550  65.823  0.00  0.00    +0.188 C 
ATOM      3  O   UNL     1      -9.019  11.095  67.066  0.00  0.00    -0.330 OA
ATOM      4  C   UNL     1     -10.169  11.680  67.493  0.00  0.00    +0.173 C 
ATOM      5  C   UNL     1     -11.156  11.426  66.166  0.00  0.00    +0.149 C 
ATOM      6  C   UNL     1     -11.519  13.056  65.944  0.00  0.00    +0.033 C 
ATOM      7  C   UNL     1      -9.983  13.541  66.236  0.00  0.00    +0.005 C 
ATOM      8  C   UNL     1     -10.480  15.122  66.652  0.00  0.00    +0.004 C 
ATOM      9  C   UNL     1      -8.872  15.552  66.946  0.00  0.00    +0.038 C 
ATOM     10  C   UNL     1      -8.877  15.137  68.642  0.00  0.00    +0.153 C 
ATOM     11  C   UNL     1      -9.021  13.499  68.389  0.00  0.00    +0.036 C 
ATOM     12  O   UNL     1     -10.383  15.409  68.848  0.00  0.00    -0.223 OA
ATOM     13  C   UNL     1      -9.151  17.115  67.175  0.00  0.00    +0.036 C 
ATOM     14  C   UNL     1     -10.338  17.574  66.480  0.00  0.00    -0.038 C 
ATOM     15  C   UNL     1     -10.494  18.900  66.574  0.00  0.00    +0.034 C 
ATOM     16  C   UNL     1      -9.376  19.795  66.912  0.00  0.00    +0.195 C 
ATOM     17  C   UNL     1      -8.061  19.167  66.710  0.00  0.00    +0.038 C 
ATOM     18  O   UNL     1      -9.525  21.010  67.173  0.00  0.00    -0.287 OA
ATOM     19  C   UNL     1     -10.898  16.994  65.218  0.00  0.00    +0.022 C 
ATOM     20  C   UNL     1      -9.053  17.529  68.574  0.00  0.00    +0.009 C 
ATOM     21  C   UNL     1      -8.026  17.849  66.491  0.00  0.00    -0.020 C 
ATOM     22  C   UNL     1     -10.359  15.602  65.114  0.00  0.00    +0.004 C 
ATOM     23  C   UNL     1     -10.210  13.075  67.791  0.00  0.00    +0.034 C 
ATOM     24  C   UNL     1     -11.567  13.432  68.213  0.00  0.00    +0.003 C 
ATOM     25  O   UNL     1      -9.947  11.516  65.187  0.00  0.00    -0.334 OA
ATOM     26  C   UNL     1      -9.856   9.207  65.804  0.00  0.00    +0.061 C 
ENDROOT
BRANCH   4  27
ATOM     27  C   UNL     1     -10.815  10.746  68.470  0.00  0.00    +0.210 C 
ATOM     28  O   UNL     1     -12.019  10.493  68.423  0.00  0.00    -0.291 OA
BRANCH  27  29
ATOM     29  C   UNL     1     -10.106  10.144  69.620  0.00  0.00    +0.248 C 
ATOM     30  O   UNL     1     -10.943   9.716  70.631  0.00  0.00    -0.212 OA
ENDBRANCH  27  29
ENDBRANCH   4  27
TORSDOF 2
ENDMDL
MODEL 7
REMARK VINA RESULT:      -7.0      1.967      6.886
REMARK  Name = 
REMARK  2 active torsions:
REMARK  status: ('A' for Active; 'I' for Inactive)
REMARK    1  A    between atoms: C_25  and  C_26
REMARK    2  A    between atoms: C_26  and  C_28
REMARK                            x       y       z     vdW  Elec       q    Type
REMARK                         _______ _______ _______ _____ _____    ______ ____
ROOT
ATOM      1  C   UNL     1      -6.295  18.330  65.257  0.00  0.00    +0.061 C 
ATOM      2  C   UNL     1      -7.060  18.428  66.450  0.00  0.00    +0.188 C 
ATOM      3  O   UNL     1      -8.371  18.186  66.141  0.00  0.00    -0.330 OA
ATOM      4  C   UNL     1      -9.052  17.781  67.245  0.00  0.00    +0.173 C 
ATOM      5  C   UNL     1      -7.821  17.764  68.379  0.00  0.00    +0.149 C 
ATOM      6  C   UNL     1      -8.044  16.150  68.806  0.00  0.00    +0.033 C 
ATOM      7  C   UNL     1      -8.272  15.667  67.259  0.00  0.00    +0.005 C 
ATOM      8  C   UNL     1      -9.113  14.260  67.741  0.00  0.00    +0.004 C 
ATOM      9  C   UNL     1      -9.321  13.827  66.120  0.00  0.00    +0.038 C 
ATOM     10  C   UNL     1     -10.855  14.635  65.910  0.00  0.00    +0.153 C 
ATOM     11  C   UNL     1     -10.229  16.170  66.043  0.00  0.00    +0.036 C 
ATOM     12  O   UNL     1     -11.287  14.500  67.386  0.00  0.00    -0.223 OA
ATOM     13  C   UNL     1      -9.952  12.381  66.408  0.00  0.00    +0.036 C 
ATOM     14  C   UNL     1      -9.526  11.833  67.681  0.00  0.00    -0.038 C 
ATOM     15  C   UNL     1      -9.956  10.578  67.858  0.00  0.00    +0.034 C 
ATOM     16  C   UNL     1     -10.375   9.731  66.729  0.00  0.00    +0.195 C 
ATOM     17  C   UNL     1      -9.881  10.222  65.433  0.00  0.00    +0.038 C 
ATOM     18  O   UNL     1     -10.937   8.623  66.876  0.00  0.00    -0.287 OA
ATOM     19  C   UNL     1      -8.232  12.125  68.375  0.00  0.00    +0.022 C 
ATOM     20  C   UNL     1     -11.390  12.308  66.152  0.00  0.00    +0.009 C 
ATOM     21  C   UNL     1      -9.346  11.446  65.392  0.00  0.00    -0.020 C 
ATOM     22  C   UNL     1      -7.733  13.422  67.819  0.00  0.00    +0.004 C 
ATOM     23  C   UNL     1      -9.682  16.501  67.285  0.00  0.00    +0.034 C 
ATOM     24  C   UNL     1     -10.327  16.328  68.589  0.00  0.00    +0.003 C 
ATOM     25  O   UNL     1      -6.765  17.379  67.300  0.00  0.00    -0.334 OA
ATOM     26  C   UNL     1      -6.788  19.760  67.078  0.00  0.00    +0.061 C 
ENDROOT
BRANCH   4  27
ATOM     27  C   UNL     1      -9.838  18.954  67.746  0.00  0.00    +0.210 C 
ATOM     28  O   UNL     1      -9.672  19.408  68.878  0.00  0.00    -0.291 OA
BRANCH  27  29
ATOM     29  C   UNL     1     -10.937  19.589  66.986  0.00  0.00    +0.248 C 
ATOM     30  O   UNL     1     -10.560  20.059  65.744  0.00  0.00    -0.212 OA
ENDBRANCH  27  29
ENDBRANCH   4  27
TORSDOF 2
ENDMDL
MODEL 8
REMARK VINA RESULT:      -6.9      1.704      7.389
REMARK  Name = 
REMARK  2 active torsions:
REMARK  status: ('A' for Active; 'I' for Inactive)
REMARK    1  A    between atoms: C_25  and  C_26
REMARK    2  A    between atoms: C_26  and  C_28
REMARK                            x       y       z     vdW  Elec       q    Type
REMARK                         _______ _______ _______ _____ _____    ______ ____
ROOT
ATOM      1  C   UNL     1      -4.887  18.657  63.997  0.00  0.00    +0.061 C 
ATOM      2  C   UNL     1      -4.990  18.922  65.390  0.00  0.00    +0.188 C 
ATOM      3  O   UNL     1      -6.281  19.283  65.664  0.00  0.00    -0.330 OA
ATOM      4  C   UNL     1      -6.565  19.070  66.976  0.00  0.00    +0.173 C 
ATOM      5  C   UNL     1      -5.119  18.412  67.502  0.00  0.00    +0.149 C 
ATOM      6  C   UNL     1      -5.814  16.998  68.096  0.00  0.00    +0.033 C 
ATOM      7  C   UNL     1      -6.823  16.838  66.817  0.00  0.00    +0.005 C 
ATOM      8  C   UNL     1      -7.910  15.859  67.699  0.00  0.00    +0.004 C 
ATOM      9  C   UNL     1      -8.912  15.744  66.342  0.00  0.00    +0.038 C 
ATOM     10  C   UNL     1      -9.900  17.133  66.723  0.00  0.00    +0.153 C 
ATOM     11  C   UNL     1      -8.686  18.244  66.479  0.00  0.00    +0.036 C 
ATOM     12  O   UNL     1      -9.718  17.017  68.253  0.00  0.00    -0.223 OA
ATOM     13  C   UNL     1      -9.923  14.666  66.965  0.00  0.00    +0.036 C 
ATOM     14  C   UNL     1      -9.300  13.846  67.986  0.00  0.00    -0.038 C 
ATOM     15  C   UNL     1     -10.112  12.871  68.411  0.00  0.00    +0.034 C 
ATOM     16  C   UNL     1     -11.263  12.412  67.617  0.00  0.00    +0.195 C 
ATOM     17  C   UNL     1     -11.171  12.802  66.201  0.00  0.00    +0.038 C 
ATOM     18  O   UNL     1     -12.131  11.627  68.059  0.00  0.00    -0.287 OA
ATOM     19  C   UNL     1      -7.848  13.492  68.065  0.00  0.00    +0.022 C 
ATOM     20  C   UNL     1     -11.225  15.225  67.328  0.00  0.00    +0.009 C 
ATOM     21  C   UNL     1     -10.234  13.691  65.858  0.00  0.00    -0.020 C 
ATOM     22  C   UNL     1      -7.115  14.522  67.263  0.00  0.00    +0.004 C 
ATOM     23  C   UNL     1      -7.605  18.171  67.360  0.00  0.00    +0.034 C 
ATOM     24  C   UNL     1      -7.680  18.129  68.823  0.00  0.00    +0.003 C 
ATOM     25  O   UNL     1      -4.856  17.754  66.115  0.00  0.00    -0.334 OA
ATOM     26  C   UNL     1      -3.953  19.940  65.755  0.00  0.00    +0.061 C 
ENDROOT
BRANCH   4  27
ATOM     27  C   UNL     1      -6.506  20.396  67.671  0.00  0.00    +0.210 C 
ATOM     28  O   UNL     1      -7.267  21.317  67.372  0.00  0.00    -0.291 OA
BRANCH  27  29
ATOM     29  C   UNL     1      -5.480  20.750  68.676  0.00  0.00    +0.248 C 
ATOM     30  O   UNL     1      -5.962  20.815  69.968  0.00  0.00    -0.212 OA
ENDBRANCH  27  29
ENDBRANCH   4  27
TORSDOF 2
ENDMDL
MODEL 9
REMARK VINA RESULT:      -6.8      4.369      8.902
REMARK  Name = 
REMARK  2 active torsions:
REMARK  status: ('A' for Active; 'I' for Inactive)
REMARK    1  A    between atoms: C_25  and  C_26
REMARK    2  A    between atoms: C_26  and  C_28
REMARK                            x       y       z     vdW  Elec       q    Type
REMARK                         _______ _______ _______ _____ _____    ______ ____
ROOT
ATOM      1  C   UNL     1      -8.653  14.138  68.370  0.00  0.00    +0.061 C 
ATOM      2  C   UNL     1      -9.396  13.257  67.539  0.00  0.00    +0.188 C 
ATOM      3  O   UNL     1      -8.673  12.106  67.378  0.00  0.00    -0.330 OA
ATOM      4  C   UNL     1      -9.491  11.076  67.036  0.00  0.00    +0.173 C 
ATOM      5  C   UNL     1     -10.979  11.841  67.064  0.00  0.00    +0.149 C 
ATOM      6  C   UNL     1     -11.666  10.777  68.175  0.00  0.00    +0.033 C 
ATOM      7  C   UNL     1     -10.317  10.717  69.101  0.00  0.00    +0.005 C 
ATOM      8  C   UNL     1     -10.764   9.218  69.788  0.00  0.00    +0.004 C 
ATOM      9  C   UNL     1      -9.346   9.216  70.709  0.00  0.00    +0.038 C 
ATOM     10  C   UNL     1      -8.370   8.357  69.543  0.00  0.00    +0.153 C 
ATOM     11  C   UNL     1      -8.357   9.591  68.429  0.00  0.00    +0.036 C 
ATOM     12  O   UNL     1      -9.550   7.579  68.920  0.00  0.00    -0.223 OA
ATOM     13  C   UNL     1      -9.710   7.920  71.582  0.00  0.00    +0.036 C 
ATOM     14  C   UNL     1     -11.140   7.717  71.704  0.00  0.00    -0.038 C 
ATOM     15  C   UNL     1     -11.436   6.710  72.534  0.00  0.00    +0.034 C 
ATOM     16  C   UNL     1     -10.475   6.215  73.534  0.00  0.00    +0.195 C 
ATOM     17  C   UNL     1      -9.394   7.174  73.809  0.00  0.00    +0.038 C 
ATOM     18  O   UNL     1     -10.657   5.173  74.202  0.00  0.00    -0.287 OA
ATOM     19  C   UNL     1     -12.186   8.787  71.666  0.00  0.00    +0.022 C 
ATOM     20  C   UNL     1      -8.944   6.731  71.212  0.00  0.00    +0.009 C 
ATOM     21  C   UNL     1      -9.266   8.223  72.991  0.00  0.00    -0.020 C 
ATOM     22  C   UNL     1     -11.569   9.962  70.975  0.00  0.00    +0.004 C 
ATOM     23  C   UNL     1      -9.593   9.920  67.866  0.00  0.00    +0.034 C 
ATOM     24  C   UNL     1     -10.547   8.985  67.265  0.00  0.00    +0.003 C 
ATOM     25  O   UNL     1     -10.520  12.803  68.200  0.00  0.00    -0.334 OA
ATOM     26  C   UNL     1      -9.736  13.978  66.271  0.00  0.00    +0.061 C 
ENDROOT
BRANCH   4  27
ATOM     27  C   UNL     1      -9.347  10.857  65.561  0.00  0.00    +0.210 C 
ATOM     28  O   UNL     1      -8.257  10.603  65.048  0.00  0.00    -0.291 OA
BRANCH  27  29
ATOM     29  C   UNL     1     -10.454  11.033  64.595  0.00  0.00    +0.248 C 
ATOM     30  O   UNL     1     -10.119  11.795  63.494  0.00  0.00    -0.212 OA
ENDBRANCH  27  29
ENDBRANCH   4  27
TORSDOF 2
ENDMDL
