MODEL 1
REMARK VINA RESULT:      -7.2      0.000      0.000
REMARK  Name = 
REMARK  4 active torsions:
REMARK  status: ('A' for Active; 'I' for Inactive)
REMARK    1  A    between atoms: O_2  and  C_3
REMARK    2  A    between atoms: C_5  and  C_6
REMARK    3  A    between atoms: C_25  and  O_26
REMARK    4  A    between atoms: C_28  and  O_29
REMARK                            x       y       z     vdW  Elec       q    Type
REMARK                         _______ _______ _______ _____ _____    ______ ____
ROOT
ATOM      1  C   UNL     1     -11.265  14.980  67.201  0.00  0.00    +0.055 C 
ATOM      2  C   UNL     1     -10.848  14.459  68.757  0.00  0.00    +0.113 C 
ATOM      3  C   UNL     1     -12.077  13.327  68.696  0.00  0.00    +0.090 C 
ATOM      4  C   UNL     1     -12.167  13.323  70.291  0.00  0.00    +0.212 C 
ATOM      5  O   UNL     1     -12.565  14.691  70.378  0.00  0.00    -0.448 OA
ATOM      6  C   UNL     1     -10.916  12.088  68.649  0.00  0.00    +0.178 C 
ATOM      7  O   UNL     1     -11.937  11.122  68.082  0.00  0.00    -0.218 OA
ATOM      8  C   UNL     1     -10.405  12.557  67.198  0.00  0.00    +0.007 A 
ATOM      9  C   UNL     1      -9.617  11.628  66.528  0.00  0.00    +0.038 A 
ATOM     10  C   UNL     1      -9.500  11.671  65.139  0.00  0.00    +0.176 A 
ATOM     11  O   UNL     1      -9.151  10.684  64.222  0.00  0.00    -0.435 OA
ATOM     12  C   UNL     1     -10.131  10.567  63.205  0.00  0.00    +0.429 C 
ATOM     13  O   UNL     1     -10.853  11.779  63.303  0.00  0.00    -0.435 OA
ATOM     14  C   UNL     1     -10.481  12.414  64.493  0.00  0.00    +0.176 A 
ATOM     15  C   UNL     1     -11.009  13.515  65.157  0.00  0.00    +0.036 A 
ATOM     16  C   UNL     1     -11.811  15.472  69.491  0.00  0.00    +0.317 C 
ATOM     17  O   UNL     1     -11.402  16.594  69.925  0.00  0.00    -0.250 OA
ATOM     18  C   UNL     1     -10.929  13.565  66.545  0.00  0.00    -0.016 A 
ENDROOT
BRANCH   1  23
ATOM     19  C   UNL     1      -8.080  16.466  68.262  0.00  0.00    +0.175 A 
ATOM     20  C   UNL     1      -8.370  17.773  67.889  0.00  0.00    +0.206 A 
ATOM     21  C   UNL     1      -9.111  17.883  66.716  0.00  0.00    +0.175 A 
ATOM     22  C   UNL     1      -9.815  16.782  66.248  0.00  0.00    +0.036 A 
ATOM     23  C   UNL     1      -9.803  15.553  66.892  0.00  0.00    -0.012 A 
ATOM     24  C   UNL     1      -8.840  15.386  67.848  0.00  0.00    +0.036 A 
BRANCH  19  26
ATOM     25  C   UNL     1      -6.602  15.914  69.521  0.00  0.00    +0.253 C 
ATOM     26  O   UNL     1      -7.086  16.332  69.234  0.00  0.00    -0.468 OA
ENDBRANCH  19  26
BRANCH  20  27
ATOM     27  O   UNL     1      -8.309  18.834  68.770  0.00  0.00    -0.465 OA
ATOM     28  C   UNL     1      -7.174  19.685  68.897  0.00  0.00    +0.253 C 
ENDBRANCH  20  27
BRANCH  21  29
ATOM     29  O   UNL     1      -9.069  19.091  66.055  0.00  0.00    -0.468 OA
ATOM     30  C   UNL     1     -10.128  20.007  65.976  0.00  0.00    +0.253 C 
ENDBRANCH  21  29
ENDBRANCH   1  23
TORSDOF 4
ENDMDL
MODEL 2
REMARK VINA RESULT:      -7.0      1.807      3.691
REMARK  Name = 
REMARK  4 active torsions:
REMARK  status: ('A' for Active; 'I' for Inactive)
REMARK    1  A    between atoms: O_2  and  C_3
REMARK    2  A    between atoms: C_5  and  C_6
REMARK    3  A    between atoms: C_25  and  O_26
REMARK    4  A    between atoms: C_28  and  O_29
REMARK                            x       y       z     vdW  Elec       q    Type
REMARK                         _______ _______ _______ _____ _____    ______ ____
ROOT
ATOM      1  C   UNL     1      -9.524  14.515  66.012  0.00  0.00    +0.055 C 
ATOM      2  C   UNL     1     -11.083  15.175  65.978  0.00  0.00    +0.113 C 
ATOM      3  C   UNL     1     -11.467  14.175  64.694  0.00  0.00    +0.090 C 
ATOM      4  C   UNL     1     -12.590  15.205  64.214  0.00  0.00    +0.212 C 
ATOM      5  O   UNL     1     -11.663  16.256  63.948  0.00  0.00    -0.448 OA
ATOM      6  C   UNL     1     -12.530  13.313  65.700  0.00  0.00    +0.178 C 
ATOM      7  O   UNL     1     -12.496  12.126  64.757  0.00  0.00    -0.218 OA
ATOM      8  C   UNL     1     -11.313  12.764  66.596  0.00  0.00    +0.007 A 
ATOM      9  C   UNL     1     -11.636  11.697  67.427  0.00  0.00    +0.038 A 
ATOM     10  C   UNL     1     -10.641  10.834  67.886  0.00  0.00    +0.176 A 
ATOM     11  O   UNL     1     -10.714   9.523  68.348  0.00  0.00    -0.435 OA
ATOM     12  C   UNL     1      -9.814   8.685  67.641  0.00  0.00    +0.429 C 
ATOM     13  O   UNL     1      -8.914   9.599  67.044  0.00  0.00    -0.435 OA
ATOM     14  C   UNL     1      -9.448  10.886  67.174  0.00  0.00    +0.176 A 
ATOM     15  C   UNL     1      -9.075  12.102  66.613  0.00  0.00    +0.036 A 
ATOM     16  C   UNL     1     -10.709  16.332  64.971  0.00  0.00    +0.317 C 
ATOM     17  O   UNL     1     -10.393  17.496  65.372  0.00  0.00    -0.250 OA
ATOM     18  C   UNL     1     -10.058  13.052  66.354  0.00  0.00    -0.016 A 
ENDROOT
BRANCH   1  23
ATOM     19  C   UNL     1     -10.559  16.116  69.149  0.00  0.00    +0.175 A 
ATOM     20  C   UNL     1      -9.729  17.227  69.054  0.00  0.00    +0.206 A 
ATOM     21  C   UNL     1      -8.478  16.962  68.506  0.00  0.00    +0.175 A 
ATOM     22  C   UNL     1      -8.289  15.803  67.764  0.00  0.00    +0.036 A 
ATOM     23  C   UNL     1      -9.297  14.873  67.555  0.00  0.00    -0.012 A 
ATOM     24  C   UNL     1     -10.404  14.998  68.348  0.00  0.00    +0.036 A 
BRANCH  19  26
ATOM     25  C   UNL     1     -12.103  15.978  70.442  0.00  0.00    +0.253 C 
ATOM     26  O   UNL     1     -11.674  16.277  69.974  0.00  0.00    -0.468 OA
ENDBRANCH  19  26
BRANCH  20  27
ATOM     27  O   UNL     1     -10.203  18.522  69.099  0.00  0.00    -0.465 OA
ATOM     28  C   UNL     1     -10.231  19.388  67.969  0.00  0.00    +0.253 C 
ENDBRANCH  20  27
BRANCH  21  29
ATOM     29  O   UNL     1      -7.470  17.865  68.769  0.00  0.00    -0.468 OA
ATOM     30  C   UNL     1      -6.586  18.390  67.816  0.00  0.00    +0.253 C 
ENDBRANCH  21  29
ENDBRANCH   1  23
TORSDOF 4
ENDMDL
MODEL 3
REMARK VINA RESULT:      -6.7      2.830      7.582
REMARK  Name = 
REMARK  4 active torsions:
REMARK  status: ('A' for Active; 'I' for Inactive)
REMARK    1  A    between atoms: O_2  and  C_3
REMARK    2  A    between atoms: C_5  and  C_6
REMARK    3  A    between atoms: C_25  and  O_26
REMARK    4  A    between atoms: C_28  and  O_29
REMARK                            x       y       z     vdW  Elec       q    Type
REMARK                         _______ _______ _______ _____ _____    ______ ____
ROOT
ATOM      1  C   UNL     1     -11.994  12.538  68.420  0.00  0.00    +0.055 C 
ATOM      2  C   UNL     1     -10.761  13.265  67.516  0.00  0.00    +0.113 C 
ATOM      3  C   UNL     1     -11.778  14.550  67.181  0.00  0.00    +0.090 C 
ATOM      4  C   UNL     1     -10.958  14.865  65.847  0.00  0.00    +0.212 C 
ATOM      5  O   UNL     1     -11.279  13.620  65.228  0.00  0.00    -0.448 OA
ATOM      6  C   UNL     1     -10.806  15.554  68.147  0.00  0.00    +0.178 C 
ATOM      7  O   UNL     1     -11.939  16.550  68.292  0.00  0.00    -0.218 OA
ATOM      8  C   UNL     1     -11.211  14.747  69.477  0.00  0.00    +0.007 A 
ATOM      9  C   UNL     1     -10.906  15.395  70.669  0.00  0.00    +0.038 A 
ATOM     10  C   UNL     1     -11.590  15.076  71.842  0.00  0.00    +0.176 A 
ATOM     11  O   UNL     1     -11.785  15.805  73.011  0.00  0.00    -0.435 OA
ATOM     12  C   UNL     1     -13.163  15.888  73.333  0.00  0.00    +0.429 C 
ATOM     13  O   UNL     1     -13.742  14.848  72.569  0.00  0.00    -0.435 OA
ATOM     14  C   UNL     1     -12.787  14.394  71.653  0.00  0.00    +0.176 A 
ATOM     15  C   UNL     1     -12.884  13.536  70.565  0.00  0.00    +0.036 A 
ATOM     16  C   UNL     1     -11.177  12.576  66.157  0.00  0.00    +0.317 C 
ATOM     17  O   UNL     1     -10.629  11.504  65.753  0.00  0.00    -0.250 OA
ATOM     18  C   UNL     1     -12.041  13.733  69.476  0.00  0.00    -0.016 A 
ENDROOT
BRANCH   1  23
ATOM     19  C   UNL     1      -9.245  10.135  68.796  0.00  0.00    +0.175 A 
ATOM     20  C   UNL     1     -10.026   9.036  69.132  0.00  0.00    +0.206 A 
ATOM     21  C   UNL     1     -11.123   9.336  69.933  0.00  0.00    +0.175 A 
ATOM     22  C   UNL     1     -11.580  10.646  70.001  0.00  0.00    +0.036 A 
ATOM     23  C   UNL     1     -10.975  11.689  69.315  0.00  0.00    -0.012 A 
ATOM     24  C   UNL     1      -9.738  11.428  68.795  0.00  0.00    +0.036 A 
BRANCH  19  26
ATOM     25  C   UNL     1      -7.390  10.082  68.001  0.00  0.00    +0.253 C 
ATOM     26  O   UNL     1      -7.984   9.832  68.276  0.00  0.00    -0.468 OA
ENDBRANCH  19  26
BRANCH  20  27
ATOM     27  O   UNL     1      -9.985   7.847  68.433  0.00  0.00    -0.465 OA
ATOM     28  C   UNL     1     -10.535   7.683  67.129  0.00  0.00    +0.253 C 
ENDBRANCH  20  27
BRANCH  21  29
ATOM     29  O   UNL     1     -11.680   8.302  70.655  0.00  0.00    -0.468 OA
ATOM     30  C   UNL     1     -11.790   8.258  72.051  0.00  0.00    +0.253 C 
ENDBRANCH  21  29
ENDBRANCH   1  23
TORSDOF 4
ENDMDL
MODEL 4
REMARK VINA RESULT:      -6.6      1.783      6.568
REMARK  Name = 
REMARK  4 active torsions:
REMARK  status: ('A' for Active; 'I' for Inactive)
REMARK    1  A    between atoms: O_2  and  C_3
REMARK    2  A    between atoms: C_5  and  C_6
REMARK    3  A    between atoms: C_25  and  O_26
REMARK    4  A    between atoms: C_28  and  O_29
REMARK                            x       y       z     vdW  Elec       q    Type
REMARK                         _______ _______ _______ _____ _____    ______ ____
ROOT
ATOM      1  C   UNL     1      -8.829  14.843  66.474  0.00  0.00    +0.055 C 
ATOM      2  C   UNL     1      -8.327  14.165  67.942  0.00  0.00    +0.113 C 
ATOM      3  C   UNL     1      -6.907  15.044  67.850  0.00  0.00    +0.090 C 
ATOM      4  C   UNL     1      -6.166  13.964  68.764  0.00  0.00    +0.212 C 
ATOM      5  O   UNL     1      -6.321  12.904  67.821  0.00  0.00    -0.448 OA
ATOM      6  C   UNL     1      -7.415  15.978  69.174  0.00  0.00    +0.178 C 
ATOM      7  O   UNL     1      -6.442  17.079  68.801  0.00  0.00    -0.218 OA
ATOM      8  C   UNL     1      -8.620  16.617  68.322  0.00  0.00    +0.007 A 
ATOM      9  C   UNL     1      -9.198  17.749  68.886  0.00  0.00    +0.038 A 
ATOM     10  C   UNL     1      -9.890  18.661  68.089  0.00  0.00    +0.176 A 
ATOM     11  O   UNL     1     -10.185  20.006  68.289  0.00  0.00    -0.435 OA
ATOM     12  C   UNL     1      -9.755  20.790  67.188  0.00  0.00    +0.429 C 
ATOM     13  O   UNL     1      -9.579  19.837  66.157  0.00  0.00    -0.435 OA
ATOM     14  C   UNL     1      -9.631  18.561  66.727  0.00  0.00    +0.176 A 
ATOM     15  C   UNL     1      -9.337  17.305  66.209  0.00  0.00    +0.036 A 
ATOM     16  C   UNL     1      -7.610  12.929  67.271  0.00  0.00    +0.317 C 
ATOM     17  O   UNL     1      -8.193  11.808  67.131  0.00  0.00    -0.250 OA
ATOM     18  C   UNL     1      -8.843  16.324  67.064  0.00  0.00    -0.016 A 
ENDROOT
BRANCH   1  23
ATOM     19  C   UNL     1     -11.562  13.216  68.306  0.00  0.00    +0.175 A 
ATOM     20  C   UNL     1     -11.919  12.313  67.311  0.00  0.00    +0.206 A 
ATOM     21  C   UNL     1     -11.830  12.821  66.018  0.00  0.00    +0.175 A 
ATOM     22  C   UNL     1     -11.061  13.953  65.781  0.00  0.00    +0.036 A 
ATOM     23  C   UNL     1     -10.383  14.624  66.788  0.00  0.00    -0.012 A 
ATOM     24  C   UNL     1     -10.731  14.297  68.069  0.00  0.00    +0.036 A 
BRANCH  19  26
ATOM     25  C   UNL     1     -11.976  13.044  70.274  0.00  0.00    +0.253 C 
ATOM     26  O   UNL     1     -11.942  12.853  69.600  0.00  0.00    -0.468 OA
ENDBRANCH  19  26
BRANCH  20  27
ATOM     27  O   UNL     1     -11.959  10.949  67.516  0.00  0.00    -0.465 OA
ATOM     28  C   UNL     1     -10.799  10.124  67.540  0.00  0.00    +0.253 C 
ENDBRANCH  20  27
BRANCH  21  29
ATOM     29  O   UNL     1     -12.555  12.180  65.037  0.00  0.00    -0.468 OA
ATOM     30  C   UNL     1     -12.267  12.214  63.665  0.00  0.00    +0.253 C 
ENDBRANCH  21  29
ENDBRANCH   1  23
TORSDOF 4
ENDMDL
MODEL 5
REMARK VINA RESULT:      -6.5      3.577      7.628
REMARK  Name = 
REMARK  4 active torsions:
REMARK  status: ('A' for Active; 'I' for Inactive)
REMARK    1  A    between atoms: O_2  and  C_3
REMARK    2  A    between atoms: C_5  and  C_6
REMARK    3  A    between atoms: C_25  and  O_26
REMARK    4  A    between atoms: C_28  and  O_29
REMARK                            x       y       z     vdW  Elec       q    Type
REMARK                         _______ _______ _______ _____ _____    ______ ____
ROOT
ATOM      1  C   UNL     1     -11.256   9.882  67.893  0.00  0.00    +0.055 C 
ATOM      2  C   UNL     1      -9.785   9.066  67.696  0.00  0.00    +0.113 C 
ATOM      3  C   UNL     1      -9.887   9.302  66.044  0.00  0.00    +0.090 C 
ATOM      4  C   UNL     1      -8.968   8.019  65.793  0.00  0.00    +0.212 C 
ATOM      5  O   UNL     1      -9.903   7.106  66.365  0.00  0.00    -0.448 OA
ATOM      6  C   UNL     1      -8.567  10.368  66.128  0.00  0.00    +0.178 C 
ATOM      7  O   UNL     1      -8.950  10.984  64.797  0.00  0.00    -0.218 OA
ATOM      8  C   UNL     1      -9.419  11.432  66.980  0.00  0.00    +0.007 A 
ATOM      9  C   UNL     1      -8.861  12.704  67.052  0.00  0.00    +0.038 A 
ATOM     10  C   UNL     1      -9.662  13.812  67.324  0.00  0.00    +0.176 A 
ATOM     11  O   UNL     1      -9.469  15.164  67.055  0.00  0.00    -0.435 OA
ATOM     12  C   UNL     1     -10.577  15.704  66.353  0.00  0.00    +0.429 C 
ATOM     13  O   UNL     1     -11.603  14.756  66.578  0.00  0.00    -0.435 OA
ATOM     14  C   UNL     1     -11.024  13.610  67.135  0.00  0.00    +0.176 A 
ATOM     15  C   UNL     1     -11.534  12.340  67.372  0.00  0.00    +0.036 A 
ATOM     16  C   UNL     1     -10.450   7.643  67.539  0.00  0.00    +0.317 C 
ATOM     17  O   UNL     1     -10.581   6.850  68.523  0.00  0.00    -0.250 OA
ATOM     18  C   UNL     1     -10.675  11.247  67.308  0.00  0.00    -0.016 A 
ENDROOT
BRANCH   1  23
ATOM     19  C   UNL     1      -9.759   9.247  71.184  0.00  0.00    +0.175 A 
ATOM     20  C   UNL     1     -10.929   8.865  71.831  0.00  0.00    +0.206 A 
ATOM     21  C   UNL     1     -12.059   9.575  71.437  0.00  0.00    +0.175 A 
ATOM     22  C   UNL     1     -12.044  10.269  70.234  0.00  0.00    +0.036 A 
ATOM     23  C   UNL     1     -10.935  10.306  69.402  0.00  0.00    -0.012 A 
ATOM     24  C   UNL     1      -9.760   9.870  69.948  0.00  0.00    +0.036 A 
BRANCH  19  26
ATOM     25  C   UNL     1      -7.925   8.559  71.670  0.00  0.00    +0.253 C 
ATOM     26  O   UNL     1      -8.579   8.791  71.774  0.00  0.00    -0.468 OA
ENDBRANCH  19  26
BRANCH  20  27
ATOM     27  O   UNL     1     -11.065   7.656  72.481  0.00  0.00    -0.465 OA
ATOM     28  C   UNL     1     -11.425   6.446  71.822  0.00  0.00    +0.253 C 
ENDBRANCH  20  27
BRANCH  21  29
ATOM     29  O   UNL     1     -13.135   9.579  72.299  0.00  0.00    -0.468 OA
ATOM     30  C   UNL     1     -14.262   8.753  72.189  0.00  0.00    +0.253 C 
ENDBRANCH  21  29
ENDBRANCH   1  23
TORSDOF 4
ENDMDL
MODEL 6
REMARK VINA RESULT:      -6.4      1.285      1.545
REMARK  Name = 
REMARK  4 active torsions:
REMARK  status: ('A' for Active; 'I' for Inactive)
REMARK    1  A    between atoms: O_2  and  C_3
REMARK    2  A    between atoms: C_5  and  C_6
REMARK    3  A    between atoms: C_25  and  O_26
REMARK    4  A    between atoms: C_28  and  O_29
REMARK                            x       y       z     vdW  Elec       q    Type
REMARK                         _______ _______ _______ _____ _____    ______ ____
ROOT
ATOM      1  C   UNL     1     -10.945  13.530  66.491  0.00  0.00    +0.055 C 
ATOM      2  C   UNL     1     -10.508  13.115  68.073  0.00  0.00    +0.113 C 
ATOM      3  C   UNL     1     -11.535  11.797  68.000  0.00  0.00    +0.090 C 
ATOM      4  C   UNL     1     -11.683  11.811  69.591  0.00  0.00    +0.212 C 
ATOM      5  O   UNL     1     -12.300  13.098  69.628  0.00  0.00    -0.448 OA
ATOM      6  C   UNL     1     -10.188  10.763  68.024  0.00  0.00    +0.178 C 
ATOM      7  O   UNL     1     -11.017   9.632  67.449  0.00  0.00    -0.218 OA
ATOM      8  C   UNL     1      -9.706  11.280  66.580  0.00  0.00    +0.007 A 
ATOM      9  C   UNL     1      -8.753  10.478  65.962  0.00  0.00    +0.038 A 
ATOM     10  C   UNL     1      -8.593  10.511  64.577  0.00  0.00    +0.176 A 
ATOM     11  O   UNL     1      -8.054   9.575  63.698  0.00  0.00    -0.435 OA
ATOM     12  C   UNL     1      -8.964   9.280  62.651  0.00  0.00    +0.429 C 
ATOM     13  O   UNL     1      -9.876  10.361  62.694  0.00  0.00    -0.435 OA
ATOM     14  C   UNL     1      -9.656  11.072  63.879  0.00  0.00    +0.176 A 
ATOM     15  C   UNL     1     -10.379  12.086  64.495  0.00  0.00    +0.036 A 
ATOM     16  C   UNL     1     -11.650  13.973  68.748  0.00  0.00    +0.317 C 
ATOM     17  O   UNL     1     -11.444  15.155  69.166  0.00  0.00    -0.250 OA
ATOM     18  C   UNL     1     -10.361  12.176  65.884  0.00  0.00    -0.016 A 
ENDROOT
BRANCH   1  23
ATOM     19  C   UNL     1      -7.922  15.265  67.642  0.00  0.00    +0.175 A 
ATOM     20  C   UNL     1      -8.393  16.561  67.468  0.00  0.00    +0.206 A 
ATOM     21  C   UNL     1      -9.201  16.730  66.347  0.00  0.00    +0.175 A 
ATOM     22  C   UNL     1      -9.785  15.619  65.753  0.00  0.00    +0.036 A 
ATOM     23  C   UNL     1      -9.585  14.327  66.216  0.00  0.00    -0.012 A 
ATOM     24  C   UNL     1      -8.561  14.160  67.106  0.00  0.00    +0.036 A 
BRANCH  19  26
ATOM     25  C   UNL     1      -6.561  14.727  69.032  0.00  0.00    +0.253 C 
ATOM     26  O   UNL     1      -6.870  15.133  68.552  0.00  0.00    -0.468 OA
ENDBRANCH  19  26
BRANCH  20  27
ATOM     27  O   UNL     1      -8.421  17.491  68.486  0.00  0.00    -0.465 OA
ATOM     28  C   UNL     1      -7.453  18.526  68.631  0.00  0.00    +0.253 C 
ENDBRANCH  20  27
BRANCH  21  29
ATOM     29  O   UNL     1      -9.346  18.012  65.862  0.00  0.00    -0.468 OA
ATOM     30  C   UNL     1     -10.423  18.865  66.140  0.00  0.00    +0.253 C 
ENDBRANCH  21  29
ENDBRANCH   1  23
TORSDOF 4
ENDMDL
MODEL 7
REMARK VINA RESULT:      -6.4      2.857      6.881
REMARK  Name = 
REMARK  4 active torsions:
REMARK  status: ('A' for Active; 'I' for Inactive)
REMARK    1  A    between atoms: O_2  and  C_3
REMARK    2  A    between atoms: C_5  and  C_6
REMARK    3  A    between atoms: C_25  and  O_26
REMARK    4  A    between atoms: C_28  and  O_29
REMARK                            x       y       z     vdW  Elec       q    Type
REMARK                         _______ _______ _______ _____ _____    ______ ____
ROOT
ATOM      1  C   UNL     1      -7.910  17.182  67.899  0.00  0.00    +0.055 C 
ATOM      2  C   UNL     1      -9.068  18.084  67.055  0.00  0.00    +0.113 C 
ATOM      3  C   UNL     1      -8.367  19.493  67.619  0.00  0.00    +0.090 C 
ATOM      4  C   UNL     1      -9.757  20.264  67.450  0.00  0.00    +0.212 C 
ATOM      5  O   UNL     1     -10.440  19.463  68.413  0.00  0.00    -0.448 OA
ATOM      6  C   UNL     1      -7.850  19.852  66.041  0.00  0.00    +0.178 C 
ATOM      7  O   UNL     1      -6.803  20.808  66.577  0.00  0.00    -0.218 OA
ATOM      8  C   UNL     1      -6.846  18.596  66.034  0.00  0.00    +0.007 A 
ATOM      9  C   UNL     1      -5.894  18.617  65.020  0.00  0.00    +0.038 A 
ATOM     10  C   UNL     1      -4.706  17.897  65.153  0.00  0.00    +0.176 A 
ATOM     11  O   UNL     1      -3.469  18.058  64.535  0.00  0.00    -0.435 OA
ATOM     12  C   UNL     1      -2.430  18.150  65.496  0.00  0.00    +0.429 C 
ATOM     13  O   UNL     1      -3.021  17.625  66.669  0.00  0.00    -0.435 OA
ATOM     14  C   UNL     1      -4.398  17.511  66.452  0.00  0.00    +0.176 A 
ATOM     15  C   UNL     1      -5.450  17.234  67.317  0.00  0.00    +0.036 A 
ATOM     16  C   UNL     1     -10.100  18.113  68.249  0.00  0.00    +0.317 C 
ATOM     17  O   UNL     1     -11.047  17.271  68.340  0.00  0.00    -0.250 OA
ATOM     18  C   UNL     1      -6.699  17.790  67.056  0.00  0.00    -0.016 A 
ENDROOT
BRANCH   1  23
ATOM     19  C   UNL     1      -9.895  14.856  65.870  0.00  0.00    +0.175 A 
ATOM     20  C   UNL     1      -9.923  13.812  66.787  0.00  0.00    +0.206 A 
ATOM     21  C   UNL     1      -8.745  13.654  67.510  0.00  0.00    +0.175 A 
ATOM     22  C   UNL     1      -7.838  14.704  67.576  0.00  0.00    +0.036 A 
ATOM     23  C   UNL     1      -8.044  15.915  66.932  0.00  0.00    -0.012 A 
ATOM     24  C   UNL     1      -9.038  15.935  65.993  0.00  0.00    +0.036 A 
BRANCH  19  26
ATOM     25  C   UNL     1     -11.403  15.213  64.576  0.00  0.00    +0.253 C 
ATOM     26  O   UNL     1     -10.920  14.839  64.920  0.00  0.00    -0.468 OA
ENDBRANCH  19  26
BRANCH  20  27
ATOM     27  O   UNL     1     -11.096  13.250  67.247  0.00  0.00    -0.465 OA
ATOM     28  C   UNL     1     -11.855  13.788  68.326  0.00  0.00    +0.253 C 
ENDBRANCH  20  27
BRANCH  21  29
ATOM     29  O   UNL     1      -8.525  12.427  68.098  0.00  0.00    -0.468 OA
ATOM     30  C   UNL     1      -8.088  11.275  67.429  0.00  0.00    +0.253 C 
ENDBRANCH  21  29
ENDBRANCH   1  23
TORSDOF 4
ENDMDL
MODEL 8
REMARK VINA RESULT:      -6.3      2.114      6.561
REMARK  Name = 
REMARK  4 active torsions:
REMARK  status: ('A' for Active; 'I' for Inactive)
REMARK    1  A    between atoms: O_2  and  C_3
REMARK    2  A    between atoms: C_5  and  C_6
REMARK    3  A    between atoms: C_25  and  O_26
REMARK    4  A    between atoms: C_28  and  O_29
REMARK                            x       y       z     vdW  Elec       q    Type
REMARK                         _______ _______ _______ _____ _____    ______ ____
ROOT
ATOM      1  C   UNL     1      -7.688  15.553  66.909  0.00  0.00    +0.055 C 
ATOM      2  C   UNL     1      -7.765  15.177  68.559  0.00  0.00    +0.113 C 
ATOM      3  C   UNL     1      -6.109  15.381  68.671  0.00  0.00    +0.090 C 
ATOM      4  C   UNL     1      -6.064  14.403  69.934  0.00  0.00    +0.212 C 
ATOM      5  O   UNL     1      -6.517  13.264  69.203  0.00  0.00    -0.448 OA
ATOM      6  C   UNL     1      -6.358  16.770  69.617  0.00  0.00    +0.178 C 
ATOM      7  O   UNL     1      -4.958  17.260  69.306  0.00  0.00    -0.218 OA
ATOM      8  C   UNL     1      -7.016  17.554  68.377  0.00  0.00    +0.007 A 
ATOM      9  C   UNL     1      -7.123  18.930  68.547  0.00  0.00    +0.038 A 
ATOM     10  C   UNL     1      -7.216  19.773  67.440  0.00  0.00    +0.176 A 
ATOM     11  O   UNL     1      -6.923  21.126  67.297  0.00  0.00    -0.435 OA
ATOM     12  C   UNL     1      -6.030  21.341  66.216  0.00  0.00    +0.429 C 
ATOM     13  O   UNL     1      -6.129  20.146  65.466  0.00  0.00    -0.435 OA
ATOM     14  C   UNL     1      -6.819  19.202  66.236  0.00  0.00    +0.176 A 
ATOM     15  C   UNL     1      -7.025  17.839  66.060  0.00  0.00    +0.036 A 
ATOM     16  C   UNL     1      -7.563  13.625  68.343  0.00  0.00    +0.317 C 
ATOM     17  O   UNL     1      -8.547  12.823  68.273  0.00  0.00    -0.250 OA
ATOM     18  C   UNL     1      -7.146  17.028  67.184  0.00  0.00    -0.016 A 
ENDROOT
BRANCH   1  23
ATOM     19  C   UNL     1     -11.146  15.538  68.140  0.00  0.00    +0.175 A 
ATOM     20  C   UNL     1     -11.668  14.692  67.168  0.00  0.00    +0.206 A 
ATOM     21  C   UNL     1     -11.126  14.874  65.900  0.00  0.00    +0.175 A 
ATOM     22  C   UNL     1      -9.911  15.533  65.765  0.00  0.00    +0.036 A 
ATOM     23  C   UNL     1      -9.210  16.044  66.847  0.00  0.00    -0.012 A 
ATOM     24  C   UNL     1      -9.899  16.126  68.025  0.00  0.00    +0.036 A 
BRANCH  19  26
ATOM     25  C   UNL     1     -11.907  15.844  69.985  0.00  0.00    +0.253 C 
ATOM     26  O   UNL     1     -11.881  15.604  69.326  0.00  0.00    -0.468 OA
ENDBRANCH  19  26
BRANCH  20  27
ATOM     27  O   UNL     1     -12.337  13.524  67.473  0.00  0.00    -0.465 OA
ATOM     28  C   UNL     1     -11.679  12.293  67.757  0.00  0.00    +0.253 C 
ENDBRANCH  20  27
BRANCH  21  29
ATOM     29  O   UNL     1     -11.860  14.413  64.828  0.00  0.00    -0.468 OA
ATOM     30  C   UNL     1     -11.578  13.253  64.093  0.00  0.00    +0.253 C 
ENDBRANCH  21  29
ENDBRANCH   1  23
TORSDOF 4
ENDMDL
MODEL 9
REMARK VINA RESULT:      -6.3      2.106      6.628
REMARK  Name = 
REMARK  4 active torsions:
REMARK  status: ('A' for Active; 'I' for Inactive)
REMARK    1  A    between atoms: O_2  and  C_3
REMARK    2  A    between atoms: C_5  and  C_6
REMARK    3  A    between atoms: C_25  and  O_26
REMARK    4  A    between atoms: C_28  and  O_29
REMARK                            x       y       z     vdW  Elec       q    Type
REMARK                         _______ _______ _______ _____ _____    ______ ____
ROOT
ATOM      1  C   UNL     1     -11.614  13.970  67.268  0.00  0.00    +0.055 C 
ATOM      2  C   UNL     1     -11.067  13.478  65.743  0.00  0.00    +0.113 C 
ATOM      3  C   UNL     1     -11.954  14.710  65.040  0.00  0.00    +0.090 C 
ATOM      4  C   UNL     1     -12.033  13.886  63.673  0.00  0.00    +0.212 C 
ATOM      5  O   UNL     1     -12.777  12.809  64.240  0.00  0.00    -0.448 OA
ATOM      6  C   UNL     1     -10.508  15.491  64.614  0.00  0.00    +0.178 C 
ATOM      7  O   UNL     1     -11.240  16.809  64.455  0.00  0.00    -0.218 OA
ATOM      8  C   UNL     1     -10.146  15.764  66.157  0.00  0.00    +0.007 A 
ATOM      9  C   UNL     1      -9.143  16.705  66.364  0.00  0.00    +0.038 A 
ATOM     10  C   UNL     1      -9.049  17.381  67.580  0.00  0.00    +0.176 A 
ATOM     11  O   UNL     1      -8.455  18.598  67.904  0.00  0.00    -0.435 OA
ATOM     12  C   UNL     1      -9.375  19.450  68.566  0.00  0.00    +0.429 C 
ATOM     13  O   UNL     1     -10.391  18.565  68.998  0.00  0.00    -0.435 OA
ATOM     14  C   UNL     1     -10.194  17.332  68.366  0.00  0.00    +0.176 A 
ATOM     15  C   UNL     1     -10.990  16.196  68.290  0.00  0.00    +0.036 A 
ATOM     16  C   UNL     1     -12.260  12.473  65.499  0.00  0.00    +0.317 C 
ATOM     17  O   UNL     1     -12.159  11.234  65.763  0.00  0.00    -0.250 OA
ATOM     18  C   UNL     1     -10.920  15.401  67.150  0.00  0.00    -0.016 A 
ENDROOT
BRANCH   1  23
ATOM     19  C   UNL     1      -8.651  11.806  67.390  0.00  0.00    +0.175 A 
ATOM     20  C   UNL     1      -9.243  10.746  68.067  0.00  0.00    +0.206 A 
ATOM     21  C   UNL     1     -10.164  11.130  69.037  0.00  0.00    +0.175 A 
ATOM     22  C   UNL     1     -10.706  12.407  68.997  0.00  0.00    +0.036 A 
ATOM     23  C   UNL     1     -10.356  13.341  68.033  0.00  0.00    -0.012 A 
ATOM     24  C   UNL     1      -9.243  13.054  67.294  0.00  0.00    +0.036 A 
BRANCH  19  26
ATOM     25  C   UNL     1      -6.813  11.406  66.657  0.00  0.00    +0.253 C 
ATOM     26  O   UNL     1      -7.511  11.478  66.654  0.00  0.00    -0.468 OA
ENDBRANCH  19  26
BRANCH  20  27
ATOM     27  O   UNL     1      -9.251   9.456  67.577  0.00  0.00    -0.465 OA
ATOM     28  C   UNL     1      -9.977   9.061  66.417  0.00  0.00    +0.253 C 
ENDBRANCH  20  27
BRANCH  21  29
ATOM     29  O   UNL     1     -10.460  10.213  70.023  0.00  0.00    -0.468 OA
ATOM     30  C   UNL     1     -11.704  10.076  70.654  0.00  0.00    +0.253 C 
ENDBRANCH  21  29
ENDBRANCH   1  23
TORSDOF 4
ENDMDL
