MODEL 1
REMARK VINA RESULT:      -7.5      0.000      0.000
REMARK  Name = 
REMARK  2 active torsions:
REMARK  status: ('A' for Active; 'I' for Inactive)
REMARK    1  A    between atoms: C_9  and  O_10
REMARK    2  A    between atoms: O_10  and  S_11
REMARK                            x       y       z     vdW  Elec       q    Type
REMARK                         _______ _______ _______ _____ _____    ______ ____
ROOT
ATOM      1  C   UNL     1     -12.087  11.816  65.184  0.00  0.00    +0.007 C 
ATOM      2  C   UNL     1     -10.803  11.449  65.711  0.00  0.00    +0.052 C 
ATOM      3  C   UNL     1      -9.952  10.868  64.669  0.00  0.00    +0.150 C 
ATOM      4  O   UNL     1      -8.915  10.255  64.924  0.00  0.00    -0.296 OA
ATOM      5  C   UNL     1      -9.941  11.921  63.595  0.00  0.00    +0.064 C 
ATOM      6  C   UNL     1     -10.433  13.204  64.261  0.00  0.00    +0.008 C 
ATOM      7  C   UNL     1      -9.910  12.830  65.773  0.00  0.00    +0.007 C 
ATOM      8  C   UNL     1     -11.183  13.674  66.534  0.00  0.00    +0.005 C 
ATOM      9  C   UNL     1     -10.646  13.097  68.055  0.00  0.00    +0.022 C 
ATOM     10  C   UNL     1     -11.775  13.955  68.844  0.00  0.00    -0.026 A 
ATOM     11  C   UNL     1     -11.348  15.277  68.918  0.00  0.00    -0.023 A 
ATOM     12  C   UNL     1     -11.022  15.941  67.617  0.00  0.00    +0.026 C 
ATOM     13  C   UNL     1     -11.439  16.007  70.100  0.00  0.00    +0.035 A 
ATOM     14  C   UNL     1     -11.883  15.416  71.269  0.00  0.00    +0.171 A 
ATOM     15  C   UNL     1     -12.445  14.153  71.147  0.00  0.00    +0.039 A 
ATOM     16  C   UNL     1     -12.205  13.372  70.022  0.00  0.00    -0.001 A 
ATOM     17  C   UNL     1     -11.626  11.772  67.943  0.00  0.00    +0.005 C 
ATOM     18  C   UNL     1     -10.311  15.023  66.663  0.00  0.00    +0.005 C 
ATOM     19  C   UNL     1     -10.754  10.875  67.062  0.00  0.00    +0.007 C 
ENDROOT
BRANCH  14  20
ATOM     20  O   UNL     1     -11.447  15.821  72.531  0.00  0.00    -0.359 OA
BRANCH  20  21
ATOM     21  S   UNL     1     -12.637  15.951  73.741  0.00  0.00    +0.042 S 
ATOM     22  O   UNL     1     -14.148  16.294  73.117  0.00  0.00    -0.259 OA
ATOM     23  O   UNL     1     -12.643  14.635  74.472  0.00  0.00    -0.336 OA
ATOM     24  O   UNL     1     -12.308  17.040  74.728  0.00  0.00    -0.336 OA
ENDBRANCH  20  21
ENDBRANCH  14  20
TORSDOF 2
ENDMDL
MODEL 2
REMARK VINA RESULT:      -7.4      5.438      8.298
REMARK  Name = 
REMARK  2 active torsions:
REMARK  status: ('A' for Active; 'I' for Inactive)
REMARK    1  A    between atoms: C_9  and  O_10
REMARK    2  A    between atoms: O_10  and  S_11
REMARK                            x       y       z     vdW  Elec       q    Type
REMARK                         _______ _______ _______ _____ _____    ______ ____
ROOT
ATOM      1  C   UNL     1      -4.483  18.794  68.431  0.00  0.00    +0.007 C 
ATOM      2  C   UNL     1      -5.206  18.580  69.653  0.00  0.00    +0.052 C 
ATOM      3  C   UNL     1      -4.703  19.446  70.722  0.00  0.00    +0.150 C 
ATOM      4  O   UNL     1      -4.987  19.271  71.907  0.00  0.00    -0.296 OA
ATOM      5  C   UNL     1      -4.808  20.827  70.135  0.00  0.00    +0.064 C 
ATOM      6  C   UNL     1      -5.751  20.704  68.940  0.00  0.00    +0.008 C 
ATOM      7  C   UNL     1      -6.609  19.430  69.523  0.00  0.00    +0.007 C 
ATOM      8  C   UNL     1      -6.908  18.788  67.970  0.00  0.00    +0.005 C 
ATOM      9  C   UNL     1      -7.646  17.418  68.687  0.00  0.00    +0.022 C 
ATOM     10  C   UNL     1      -8.045  16.803  67.239  0.00  0.00    -0.026 A 
ATOM     11  C   UNL     1      -9.172  17.474  66.774  0.00  0.00    -0.023 A 
ATOM     12  C   UNL     1      -9.063  18.964  66.682  0.00  0.00    +0.026 C 
ATOM     13  C   UNL     1     -10.247  16.791  66.213  0.00  0.00    +0.035 A 
ATOM     14  C   UNL     1     -10.269  15.409  66.172  0.00  0.00    +0.171 A 
ATOM     15  C   UNL     1      -9.083  14.763  66.496  0.00  0.00    +0.039 A 
ATOM     16  C   UNL     1      -8.084  15.421  67.204  0.00  0.00    -0.001 A 
ATOM     17  C   UNL     1      -6.207  16.608  68.716  0.00  0.00    +0.005 C 
ATOM     18  C   UNL     1      -8.316  19.561  67.841  0.00  0.00    +0.005 C 
ATOM     19  C   UNL     1      -5.597  17.203  69.986  0.00  0.00    +0.007 C 
ENDROOT
BRANCH  14  20
ATOM     20  O   UNL     1     -11.452  14.671  66.224  0.00  0.00    -0.359 OA
BRANCH  20  21
ATOM     21  S   UNL     1     -11.970  13.964  64.765  0.00  0.00    +0.042 S 
ATOM     22  O   UNL     1     -13.113  12.770  65.003  0.00  0.00    -0.259 OA
ATOM     23  O   UNL     1     -12.529  15.083  63.927  0.00  0.00    -0.336 OA
ATOM     24  O   UNL     1     -10.824  13.337  64.015  0.00  0.00    -0.336 OA
ENDBRANCH  20  21
ENDBRANCH  14  20
TORSDOF 2
ENDMDL
MODEL 3
REMARK VINA RESULT:      -7.3      4.335      6.690
REMARK  Name = 
REMARK  2 active torsions:
REMARK  status: ('A' for Active; 'I' for Inactive)
REMARK    1  A    between atoms: C_9  and  O_10
REMARK    2  A    between atoms: O_10  and  S_11
REMARK                            x       y       z     vdW  Elec       q    Type
REMARK                         _______ _______ _______ _____ _____    ______ ____
ROOT
ATOM      1  C   UNL     1      -9.472   8.529  71.422  0.00  0.00    +0.007 C 
ATOM      2  C   UNL     1     -10.326   7.935  70.433  0.00  0.00    +0.052 C 
ATOM      3  C   UNL     1     -10.816   6.627  70.877  0.00  0.00    +0.150 C 
ATOM      4  O   UNL     1     -11.350   5.824  70.112  0.00  0.00    -0.296 OA
ATOM      5  C   UNL     1     -11.461   6.925  72.202  0.00  0.00    +0.064 C 
ATOM      6  C   UNL     1     -11.673   8.437  72.236  0.00  0.00    +0.008 C 
ATOM      7  C   UNL     1     -11.806   8.633  70.610  0.00  0.00    +0.007 C 
ATOM      8  C   UNL     1     -11.117  10.194  70.638  0.00  0.00    +0.005 C 
ATOM      9  C   UNL     1     -11.153  10.232  68.925  0.00  0.00    +0.022 C 
ATOM     10  C   UNL     1     -10.593  11.754  68.889  0.00  0.00    -0.026 A 
ATOM     11  C   UNL     1     -11.646  12.617  69.177  0.00  0.00    -0.023 A 
ATOM     12  C   UNL     1     -12.369  12.371  70.464  0.00  0.00    +0.026 C 
ATOM     13  C   UNL     1     -11.867  13.772  68.432  0.00  0.00    +0.035 A 
ATOM     14  C   UNL     1     -11.092  14.062  67.324  0.00  0.00    +0.171 A 
ATOM     15  C   UNL     1      -9.959  13.282  67.141  0.00  0.00    +0.039 A 
ATOM     16  C   UNL     1      -9.833  12.049  67.772  0.00  0.00    -0.001 A 
ATOM     17  C   UNL     1      -9.633   9.592  68.839  0.00  0.00    +0.005 C 
ATOM     18  C   UNL     1     -12.557  10.908  70.750  0.00  0.00    +0.005 C 
ATOM     19  C   UNL     1      -9.964   8.109  69.020  0.00  0.00    +0.007 C 
ENDROOT
BRANCH  14  20
ATOM     20  O   UNL     1     -11.581  14.776  66.229  0.00  0.00    -0.359 OA
BRANCH  20  21
ATOM     21  S   UNL     1     -11.960  13.868  64.839  0.00  0.00    +0.042 S 
ATOM     22  O   UNL     1     -12.941  12.560  65.177  0.00  0.00    -0.259 OA
ATOM     23  O   UNL     1     -12.638  14.817  63.886  0.00  0.00    -0.336 OA
ATOM     24  O   UNL     1     -10.721  13.332  64.172  0.00  0.00    -0.336 OA
ENDBRANCH  20  21
ENDBRANCH  14  20
TORSDOF 2
ENDMDL
MODEL 4
REMARK VINA RESULT:      -7.2      5.945      7.548
REMARK  Name = 
REMARK  2 active torsions:
REMARK  status: ('A' for Active; 'I' for Inactive)
REMARK    1  A    between atoms: C_9  and  O_10
REMARK    2  A    between atoms: O_10  and  S_11
REMARK                            x       y       z     vdW  Elec       q    Type
REMARK                         _______ _______ _______ _____ _____    ______ ____
ROOT
ATOM      1  C   UNL     1     -10.125  17.631  66.262  0.00  0.00    +0.007 C 
ATOM      2  C   UNL     1     -10.142  17.031  67.566  0.00  0.00    +0.052 C 
ATOM      3  C   UNL     1     -11.067  15.895  67.611  0.00  0.00    +0.150 C 
ATOM      4  O   UNL     1     -11.440  15.385  68.667  0.00  0.00    -0.296 OA
ATOM      5  C   UNL     1     -10.593  15.010  66.491  0.00  0.00    +0.064 C 
ATOM      6  C   UNL     1      -9.181  15.483  66.152  0.00  0.00    +0.008 C 
ATOM      7  C   UNL     1      -8.821  16.053  67.650  0.00  0.00    +0.007 C 
ATOM      8  C   UNL     1      -7.811  17.290  67.050  0.00  0.00    +0.005 C 
ATOM      9  C   UNL     1      -7.628  17.903  68.639  0.00  0.00    +0.022 C 
ATOM     10  C   UNL     1      -6.583  19.041  68.143  0.00  0.00    -0.026 A 
ATOM     11  C   UNL     1      -5.338  18.446  67.964  0.00  0.00    -0.023 A 
ATOM     12  C   UNL     1      -5.294  17.274  67.035  0.00  0.00    +0.026 C 
ATOM     13  C   UNL     1      -4.172  19.040  68.437  0.00  0.00    +0.035 A 
ATOM     14  C   UNL     1      -4.217  20.209  69.175  0.00  0.00    +0.171 A 
ATOM     15  C   UNL     1      -5.438  20.867  69.214  0.00  0.00    +0.039 A 
ATOM     16  C   UNL     1      -6.617  20.202  68.893  0.00  0.00    -0.001 A 
ATOM     17  C   UNL     1      -8.926  18.905  68.445  0.00  0.00    +0.005 C 
ATOM     18  C   UNL     1      -6.490  16.376  67.179  0.00  0.00    +0.005 C 
ATOM     19  C   UNL     1     -10.062  17.921  68.732  0.00  0.00    +0.007 C 
ENDROOT
BRANCH  14  20
ATOM     20  O   UNL     1      -3.274  20.518  70.156  0.00  0.00    -0.359 OA
BRANCH  20  21
ATOM     21  S   UNL     1      -3.823  20.509  71.767  0.00  0.00    +0.042 S 
ATOM     22  O   UNL     1      -4.554  21.946  72.202  0.00  0.00    -0.259 OA
ATOM     23  O   UNL     1      -4.789  19.359  71.879  0.00  0.00    -0.336 OA
ATOM     24  O   UNL     1      -2.694  20.276  72.736  0.00  0.00    -0.336 OA
ENDBRANCH  20  21
ENDBRANCH  14  20
TORSDOF 2
ENDMDL
MODEL 5
REMARK VINA RESULT:      -7.0      5.265      8.111
REMARK  Name = 
REMARK  2 active torsions:
REMARK  status: ('A' for Active; 'I' for Inactive)
REMARK    1  A    between atoms: C_9  and  O_10
REMARK    2  A    between atoms: O_10  and  S_11
REMARK                            x       y       z     vdW  Elec       q    Type
REMARK                         _______ _______ _______ _____ _____    ______ ____
ROOT
ATOM      1  C   UNL     1      -7.078  19.757  69.448  0.00  0.00    +0.007 C 
ATOM      2  C   UNL     1      -6.860  20.154  68.086  0.00  0.00    +0.052 C 
ATOM      3  C   UNL     1      -5.775  21.134  67.990  0.00  0.00    +0.150 C 
ATOM      4  O   UNL     1      -5.573  21.803  66.976  0.00  0.00    -0.296 OA
ATOM      5  C   UNL     1      -4.619  20.446  68.662  0.00  0.00    +0.064 C 
ATOM      6  C   UNL     1      -4.989  18.966  68.723  0.00  0.00    +0.008 C 
ATOM      7  C   UNL     1      -5.952  18.970  67.392  0.00  0.00    +0.007 C 
ATOM      8  C   UNL     1      -6.983  17.756  68.006  0.00  0.00    +0.005 C 
ATOM      9  C   UNL     1      -8.011  17.952  66.649  0.00  0.00    +0.022 C 
ATOM     10  C   UNL     1      -8.975  16.740  67.131  0.00  0.00    -0.026 A 
ATOM     11  C   UNL     1      -8.361  15.534  66.803  0.00  0.00    -0.023 A 
ATOM     12  C   UNL     1      -6.979  15.329  67.339  0.00  0.00    +0.026 C 
ATOM     13  C   UNL     1      -9.071  14.493  66.211  0.00  0.00    +0.035 A 
ATOM     14  C   UNL     1     -10.397  14.650  65.852  0.00  0.00    +0.171 A 
ATOM     15  C   UNL     1     -11.033  15.791  66.320  0.00  0.00    +0.039 A 
ATOM     16  C   UNL     1     -10.298  16.888  66.756  0.00  0.00    -0.001 A 
ATOM     17  C   UNL     1      -8.912  19.084  67.445  0.00  0.00    +0.005 C 
ATOM     18  C   UNL     1      -6.148  16.580  67.287  0.00  0.00    +0.005 C 
ATOM     19  C   UNL     1      -8.037  20.319  67.223  0.00  0.00    +0.007 C 
ENDROOT
BRANCH  14  20
ATOM     20  O   UNL     1     -10.970  13.975  64.773  0.00  0.00    -0.359 OA
BRANCH  20  21
ATOM     21  S   UNL     1     -12.394  13.099  65.095  0.00  0.00    +0.042 S 
ATOM     22  O   UNL     1     -12.866  12.149  63.806  0.00  0.00    -0.259 OA
ATOM     23  O   UNL     1     -12.105  12.254  66.308  0.00  0.00    -0.336 OA
ATOM     24  O   UNL     1     -13.547  14.013  65.418  0.00  0.00    -0.336 OA
ENDBRANCH  20  21
ENDBRANCH  14  20
TORSDOF 2
ENDMDL
MODEL 6
REMARK VINA RESULT:      -7.0      4.931      6.442
REMARK  Name = 
REMARK  2 active torsions:
REMARK  status: ('A' for Active; 'I' for Inactive)
REMARK    1  A    between atoms: C_9  and  O_10
REMARK    2  A    between atoms: O_10  and  S_11
REMARK                            x       y       z     vdW  Elec       q    Type
REMARK                         _______ _______ _______ _____ _____    ______ ____
ROOT
ATOM      1  C   UNL     1     -10.694  15.709  66.098  0.00  0.00    +0.007 C 
ATOM      2  C   UNL     1     -10.825  15.436  67.501  0.00  0.00    +0.052 C 
ATOM      3  C   UNL     1     -11.668  14.260  67.732  0.00  0.00    +0.150 C 
ATOM      4  O   UNL     1     -12.128  13.981  68.840  0.00  0.00    -0.296 OA
ATOM      5  C   UNL     1     -11.003  13.184  66.918  0.00  0.00    +0.064 C 
ATOM      6  C   UNL     1      -9.597  13.697  66.614  0.00  0.00    +0.008 C 
ATOM      7  C   UNL     1      -9.459  14.638  67.954  0.00  0.00    +0.007 C 
ATOM      8  C   UNL     1      -8.472  15.789  67.170  0.00  0.00    +0.005 C 
ATOM      9  C   UNL     1      -8.523  16.776  68.570  0.00  0.00    +0.022 C 
ATOM     10  C   UNL     1      -7.508  17.858  67.915  0.00  0.00    -0.026 A 
ATOM     11  C   UNL     1      -6.213  17.360  68.013  0.00  0.00    -0.023 A 
ATOM     12  C   UNL     1      -5.976  16.011  67.409  0.00  0.00    +0.026 C 
ATOM     13  C   UNL     1      -5.155  18.159  68.437  0.00  0.00    +0.035 A 
ATOM     14  C   UNL     1      -5.369  19.460  68.857  0.00  0.00    +0.171 A 
ATOM     15  C   UNL     1      -6.628  19.988  68.611  0.00  0.00    +0.039 A 
ATOM     16  C   UNL     1      -7.712  19.156  68.349  0.00  0.00    -0.001 A 
ATOM     17  C   UNL     1      -9.856  17.574  68.008  0.00  0.00    +0.005 C 
ATOM     18  C   UNL     1      -7.116  15.063  67.651  0.00  0.00    +0.005 C 
ATOM     19  C   UNL     1     -10.946  16.580  68.414  0.00  0.00    +0.007 C 
ENDROOT
BRANCH  14  20
ATOM     20  O   UNL     1      -4.573  20.081  69.819  0.00  0.00    -0.359 OA
BRANCH  20  21
ATOM     21  S   UNL     1      -4.942  19.740  71.445  0.00  0.00    +0.042 S 
ATOM     22  O   UNL     1      -3.710  20.172  72.486  0.00  0.00    -0.259 OA
ATOM     23  O   UNL     1      -6.204  20.501  71.762  0.00  0.00    -0.336 OA
ATOM     24  O   UNL     1      -5.209  18.273  71.658  0.00  0.00    -0.336 OA
ENDBRANCH  20  21
ENDBRANCH  14  20
TORSDOF 2
ENDMDL
MODEL 7
REMARK VINA RESULT:      -7.0      4.813      7.516
REMARK  Name = 
REMARK  2 active torsions:
REMARK  status: ('A' for Active; 'I' for Inactive)
REMARK    1  A    between atoms: C_9  and  O_10
REMARK    2  A    between atoms: O_10  and  S_11
REMARK                            x       y       z     vdW  Elec       q    Type
REMARK                         _______ _______ _______ _____ _____    ______ ____
ROOT
ATOM      1  C   UNL     1      -8.007  18.951  68.662  0.00  0.00    +0.007 C 
ATOM      2  C   UNL     1      -7.937  19.062  67.232  0.00  0.00    +0.052 C 
ATOM      3  C   UNL     1      -6.910  20.026  66.828  0.00  0.00    +0.150 C 
ATOM      4  O   UNL     1      -6.834  20.474  65.684  0.00  0.00    -0.296 OA
ATOM      5  C   UNL     1      -5.666  19.519  67.506  0.00  0.00    +0.064 C 
ATOM      6  C   UNL     1      -5.963  18.076  67.904  0.00  0.00    +0.008 C 
ATOM      7  C   UNL     1      -7.047  17.781  66.706  0.00  0.00    +0.007 C 
ATOM      8  C   UNL     1      -7.960  16.697  67.656  0.00  0.00    +0.005 C 
ATOM      9  C   UNL     1      -9.120  16.583  66.400  0.00  0.00    +0.022 C 
ATOM     10  C   UNL     1      -9.979  15.474  67.215  0.00  0.00    -0.026 A 
ATOM     11  C   UNL     1      -9.347  14.242  67.079  0.00  0.00    -0.023 A 
ATOM     12  C   UNL     1      -7.912  14.185  67.502  0.00  0.00    +0.026 C 
ATOM     13  C   UNL     1     -10.062  13.084  66.787  0.00  0.00    +0.035 A 
ATOM     14  C   UNL     1     -11.422  13.131  66.541  0.00  0.00    +0.171 A 
ATOM     15  C   UNL     1     -12.061  14.329  66.829  0.00  0.00    +0.039 A 
ATOM     16  C   UNL     1     -11.337  15.510  66.954  0.00  0.00    -0.001 A 
ATOM     17  C   UNL     1      -9.991  17.834  67.036  0.00  0.00    +0.005 C 
ATOM     18  C   UNL     1      -7.146  15.418  67.112  0.00  0.00    +0.005 C 
ATOM     19  C   UNL     1      -9.196  19.016  66.478  0.00  0.00    +0.007 C 
ENDROOT
BRANCH  14  20
ATOM     20  O   UNL     1     -12.065  12.234  65.687  0.00  0.00    -0.359 OA
BRANCH  20  21
ATOM     21  S   UNL     1     -12.078  12.637  64.033  0.00  0.00    +0.042 S 
ATOM     22  O   UNL     1     -12.549  14.216  63.763  0.00  0.00    -0.259 OA
ATOM     23  O   UNL     1     -10.679  12.399  63.528  0.00  0.00    -0.336 OA
ATOM     24  O   UNL     1     -13.019  11.755  63.255  0.00  0.00    -0.336 OA
ENDBRANCH  20  21
ENDBRANCH  14  20
TORSDOF 2
ENDMDL
MODEL 8
REMARK VINA RESULT:      -6.8      5.026      7.390
REMARK  Name = 
REMARK  2 active torsions:
REMARK  status: ('A' for Active; 'I' for Inactive)
REMARK    1  A    between atoms: C_9  and  O_10
REMARK    2  A    between atoms: O_10  and  S_11
REMARK                            x       y       z     vdW  Elec       q    Type
REMARK                         _______ _______ _______ _____ _____    ______ ____
ROOT
ATOM      1  C   UNL     1     -12.054   6.605  71.403  0.00  0.00    +0.007 C 
ATOM      2  C   UNL     1     -10.752   7.067  71.793  0.00  0.00    +0.052 C 
ATOM      3  C   UNL     1     -10.016   6.025  72.515  0.00  0.00    +0.150 C 
ATOM      4  O   UNL     1      -8.995   6.260  73.160  0.00  0.00    -0.296 OA
ATOM      5  C   UNL     1     -10.038   4.858  71.567  0.00  0.00    +0.064 C 
ATOM      6  C   UNL     1     -10.410   5.433  70.202  0.00  0.00    +0.008 C 
ATOM      7  C   UNL     1      -9.788   6.931  70.466  0.00  0.00    +0.007 C 
ATOM      8  C   UNL     1     -10.954   7.701  69.484  0.00  0.00    +0.005 C 
ATOM      9  C   UNL     1     -10.328   9.226  69.950  0.00  0.00    +0.022 C 
ATOM     10  C   UNL     1     -11.346  10.011  68.961  0.00  0.00    -0.026 A 
ATOM     11  C   UNL     1     -10.849   9.927  67.663  0.00  0.00    -0.023 A 
ATOM     12  C   UNL     1     -10.594   8.547  67.141  0.00  0.00    +0.026 C 
ATOM     13  C   UNL     1     -10.809  11.037  66.825  0.00  0.00    +0.035 A 
ATOM     14  C   UNL     1     -11.188  12.287  67.280  0.00  0.00    +0.171 A 
ATOM     15  C   UNL     1     -11.821  12.328  68.515  0.00  0.00    +0.039 A 
ATOM     16  C   UNL     1     -11.710  11.268  69.408  0.00  0.00    -0.001 A 
ATOM     17  C   UNL     1     -11.378   9.314  71.222  0.00  0.00    +0.005 C 
ATOM     18  C   UNL     1     -10.007   7.636  68.182  0.00  0.00    +0.005 C 
ATOM     19  C   UNL     1     -10.624   8.460  72.243  0.00  0.00    +0.007 C 
ENDROOT
BRANCH  14  20
ATOM     20  O   UNL     1     -10.634  13.468  66.787  0.00  0.00    -0.359 OA
BRANCH  20  21
ATOM     21  S   UNL     1     -11.247  14.034  65.304  0.00  0.00    +0.042 S 
ATOM     22  O   UNL     1     -12.912  13.943  65.223  0.00  0.00    -0.259 OA
ATOM     23  O   UNL     1     -10.779  15.459  65.168  0.00  0.00    -0.336 OA
ATOM     24  O   UNL     1     -10.703  13.244  64.142  0.00  0.00    -0.336 OA
ENDBRANCH  20  21
ENDBRANCH  14  20
TORSDOF 2
ENDMDL
MODEL 9
REMARK VINA RESULT:      -6.8      5.392      7.604
REMARK  Name = 
REMARK  2 active torsions:
REMARK  status: ('A' for Active; 'I' for Inactive)
REMARK    1  A    between atoms: C_9  and  O_10
REMARK    2  A    between atoms: O_10  and  S_11
REMARK                            x       y       z     vdW  Elec       q    Type
REMARK                         _______ _______ _______ _____ _____    ______ ____
ROOT
ATOM      1  C   UNL     1      -8.450   7.743  72.677  0.00  0.00    +0.007 C 
ATOM      2  C   UNL     1      -9.118   6.767  71.864  0.00  0.00    +0.052 C 
ATOM      3  C   UNL     1      -9.263   5.496  72.579  0.00  0.00    +0.150 C 
ATOM      4  O   UNL     1      -9.571   4.447  72.012  0.00  0.00    -0.296 OA
ATOM      5  C   UNL     1      -9.973   5.884  73.846  0.00  0.00    +0.064 C 
ATOM      6  C   UNL     1     -10.562   7.270  73.590  0.00  0.00    +0.008 C 
ATOM      7  C   UNL     1     -10.728   7.093  71.965  0.00  0.00    +0.007 C 
ATOM      8  C   UNL     1     -10.458   8.749  71.653  0.00  0.00    +0.005 C 
ATOM      9  C   UNL     1     -10.490   8.430  69.970  0.00  0.00    +0.022 C 
ATOM     10  C   UNL     1     -10.334  10.004  69.610  0.00  0.00    -0.026 A 
ATOM     11  C   UNL     1     -11.574  10.616  69.768  0.00  0.00    -0.023 A 
ATOM     12  C   UNL     1     -12.221  10.462  71.109  0.00  0.00    +0.026 C 
ATOM     13  C   UNL     1     -12.075  11.503  68.820  0.00  0.00    +0.035 A 
ATOM     14  C   UNL     1     -11.391  11.748  67.643  0.00  0.00    +0.171 A 
ATOM     15  C   UNL     1     -10.096  11.256  67.568  0.00  0.00    +0.039 A 
ATOM     16  C   UNL     1      -9.666  10.247  68.423  0.00  0.00    -0.001 A 
ATOM     17  C   UNL     1      -8.857   8.186  69.945  0.00  0.00    +0.005 C 
ATOM     18  C   UNL     1     -12.033   9.088  71.686  0.00  0.00    +0.005 C 
ATOM     19  C   UNL     1      -8.801   6.736  70.430  0.00  0.00    +0.007 C 
ENDROOT
BRANCH  14  20
ATOM     20  O   UNL     1     -12.037  12.080  66.451  0.00  0.00    -0.359 OA
BRANCH  20  21
ATOM     21  S   UNL     1     -11.934  13.706  65.959  0.00  0.00    +0.042 S 
ATOM     22  O   UNL     1     -10.596  14.002  65.004  0.00  0.00    -0.259 OA
ATOM     23  O   UNL     1     -13.206  14.002  65.208  0.00  0.00    -0.336 OA
ATOM     24  O   UNL     1     -11.851  14.639  67.138  0.00  0.00    -0.336 OA
ENDBRANCH  20  21
ENDBRANCH  14  20
TORSDOF 2
ENDMDL
