MODEL 1
REMARK VINA RESULT:      -6.8      0.000      0.000
REMARK  Name = 
REMARK  7 active torsions:
REMARK  status: ('A' for Active; 'I' for Inactive)
REMARK    1  A    between atoms: N_2  and  C_3
REMARK    2  A    between atoms: C_3  and  C_5
REMARK    3  A    between atoms: C_10  and  O_11
REMARK    4  A    between atoms: O_11  and  C_12
REMARK    5  A    between atoms: C_15  and  O_16
REMARK    6  A    between atoms: O_16  and  C_17
REMARK    7  A    between atoms: C_23  and  N_24
REMARK                            x       y       z     vdW  Elec       q    Type
REMARK                         _______ _______ _______ _____ _____    ______ ____
ROOT
ATOM      1  C   UNL     1      -8.623  17.386  68.035  0.00  0.00    +0.168 C 
ATOM      2  C   UNL     1      -9.622  18.279  66.989  0.00  0.00    +0.123 C 
ATOM      3  N   UNL     1     -10.847  18.394  67.939  0.00  0.00    -0.130 NA
ATOM      4  C   UNL     1      -8.966  19.580  67.749  0.00  0.00    +0.043 C 
ATOM      5  C   UNL     1      -7.834  19.761  66.611  0.00  0.00    +0.123 C 
ATOM      6  N   UNL     1      -7.432  21.154  67.181  0.00  0.00    -0.130 NA
ATOM      7  C   UNL     1      -6.553  18.862  67.322  0.00  0.00    +0.168 C 
ATOM      8  C   UNL     1      -7.261  17.325  66.984  0.00  0.00    +0.209 C 
ATOM      9  O   UNL     1      -7.931  17.689  65.698  0.00  0.00    -0.218 OA
ENDROOT
BRANCH   1  10
ATOM     10  O   UNL     1      -8.890  15.998  67.619  0.00  0.00    -0.328 OA
BRANCH  10  13
ATOM     11  C   UNL     1     -11.790  14.299  68.462  0.00  0.00    +0.134 C 
ATOM     12  O   UNL     1     -10.722  15.071  67.767  0.00  0.00    -0.331 OA
ATOM     13  C   UNL     1      -9.525  15.176  68.691  0.00  0.00    +0.253 C 
ATOM     14  C   UNL     1      -8.812  13.634  68.301  0.00  0.00    +0.148 C 
ATOM     15  N   UNL     1      -7.949  14.049  67.076  0.00  0.00    -0.128 NA
ATOM     16  C   UNL     1      -9.963  13.063  67.308  0.00  0.00    +0.027 C 
ATOM     17  C   UNL     1     -11.035  12.853  68.278  0.00  0.00    +0.033 C 
BRANCH  11  18
ATOM     18  C   UNL     1     -11.248  14.535  70.071  0.00  0.00    +0.100 C 
ATOM     19  C   UNL     1     -12.235  15.827  70.205  0.00  0.00    +0.021 C 
BRANCH  18  21
ATOM     20  C   UNL     1     -12.578  13.449  71.066  0.00  0.00    +0.107 C 
ATOM     21  N   UNL     1     -12.329  13.605  70.708  0.00  0.00    -0.215 NA
ENDBRANCH  18  21
ENDBRANCH  11  18
ENDBRANCH  10  13
ENDBRANCH   1  10
BRANCH   7  22
ATOM     22  O   UNL     1      -6.906  18.823  68.736  0.00  0.00    -0.327 OA
BRANCH  22  23
ATOM     23  C   UNL     1      -5.940  19.625  69.578  0.00  0.00    +0.268 C 
ATOM     24  C   UNL     1      -5.124  18.398  70.493  0.00  0.00    +0.226 C 
ATOM     25  O   UNL     1      -6.056  17.269  70.272  0.00  0.00    -0.216 OA
ATOM     26  C   UNL     1      -4.045  17.881  69.280  0.00  0.00    +0.138 C 
ATOM     27  C   UNL     1      -2.976  19.059  69.626  0.00  0.00    +0.171 C 
ATOM     28  O   UNL     1      -2.570  18.986  70.901  0.00  0.00    -0.222 OA
ATOM     29  C   UNL     1      -1.938  19.070  68.568  0.00  0.00    +0.037 C 
ATOM     30  C   UNL     1      -3.832  20.304  69.406  0.00  0.00    +0.176 C 
ATOM     31  O   UNL     1      -4.822  19.791  68.548  0.00  0.00    -0.326 OA
BRANCH  26  32
ATOM     32  N   UNL     1      -3.411  16.851  70.262  0.00  0.00    -0.213 NA
ATOM     33  C   UNL     1      -3.017  15.721  69.461  0.00  0.00    +0.108 C 
ENDBRANCH  26  32
ENDBRANCH  22  23
ENDBRANCH   7  22
TORSDOF 7
ENDMDL
MODEL 2
REMARK VINA RESULT:      -6.5      5.209      8.151
REMARK  Name = 
REMARK  7 active torsions:
REMARK  status: ('A' for Active; 'I' for Inactive)
REMARK    1  A    between atoms: N_2  and  C_3
REMARK    2  A    between atoms: C_3  and  C_5
REMARK    3  A    between atoms: C_10  and  O_11
REMARK    4  A    between atoms: O_11  and  C_12
REMARK    5  A    between atoms: C_15  and  O_16
REMARK    6  A    between atoms: O_16  and  C_17
REMARK    7  A    between atoms: C_23  and  N_24
REMARK                            x       y       z     vdW  Elec       q    Type
REMARK                         _______ _______ _______ _____ _____    ______ ____
ROOT
ATOM      1  C   UNL     1      -9.529   9.533  67.935  0.00  0.00    +0.168 C 
ATOM      2  C   UNL     1      -9.305   8.237  66.859  0.00  0.00    +0.123 C 
ATOM      3  N   UNL     1     -10.733   7.636  66.976  0.00  0.00    -0.130 NA
ATOM      4  C   UNL     1      -9.888   9.289  65.739  0.00  0.00    +0.043 C 
ATOM      5  C   UNL     1      -8.403   9.745  65.293  0.00  0.00    +0.123 C 
ATOM      6  N   UNL     1      -8.967  10.491  64.048  0.00  0.00    -0.130 NA
ATOM      7  C   UNL     1      -8.204  11.125  66.298  0.00  0.00    +0.168 C 
ATOM      8  C   UNL     1      -7.958  10.210  67.740  0.00  0.00    +0.209 C 
ATOM      9  O   UNL     1      -7.265   9.040  67.121  0.00  0.00    -0.218 OA
ENDROOT
BRANCH   1  10
ATOM     10  O   UNL     1      -9.032   8.979  69.206  0.00  0.00    -0.328 OA
BRANCH  10  13
ATOM     11  C   UNL     1     -11.800   7.891  70.985  0.00  0.00    +0.134 C 
ATOM     12  O   UNL     1     -10.658   8.028  70.038  0.00  0.00    -0.331 OA
ATOM     13  C   UNL     1      -9.907   9.303  70.371  0.00  0.00    +0.253 C 
ATOM     14  C   UNL     1      -8.913   8.646  71.642  0.00  0.00    +0.148 C 
ATOM     15  N   UNL     1      -7.719   8.121  70.794  0.00  0.00    -0.128 NA
ATOM     16  C   UNL     1      -9.536   7.148  71.708  0.00  0.00    +0.027 C 
ATOM     17  C   UNL     1     -10.854   7.460  72.255  0.00  0.00    +0.033 C 
BRANCH  11  18
ATOM     18  C   UNL     1     -11.921   9.535  71.454  0.00  0.00    +0.100 C 
ATOM     19  C   UNL     1     -12.774   9.849  70.100  0.00  0.00    +0.021 C 
BRANCH  18  21
ATOM     20  C   UNL     1     -13.643   9.484  72.440  0.00  0.00    +0.107 C 
ATOM     21  N   UNL     1     -13.236   9.337  72.272  0.00  0.00    -0.215 NA
ENDBRANCH  18  21
ENDBRANCH  11  18
ENDBRANCH  10  13
ENDBRANCH   1  10
BRANCH   7  22
ATOM     22  O   UNL     1      -9.570  11.495  66.647  0.00  0.00    -0.327 OA
BRANCH  22  23
ATOM     23  C   UNL     1      -9.877  12.928  66.279  0.00  0.00    +0.268 C 
ATOM     24  C   UNL     1     -11.389  13.212  67.078  0.00  0.00    +0.226 C 
ATOM     25  O   UNL     1     -11.781  11.811  67.363  0.00  0.00    -0.216 OA
ATOM     26  C   UNL     1     -10.780  13.470  68.648  0.00  0.00    +0.138 C 
ATOM     27  C   UNL     1     -10.473  15.041  68.349  0.00  0.00    +0.171 C 
ATOM     28  O   UNL     1     -11.589  15.693  67.993  0.00  0.00    -0.222 OA
ATOM     29  C   UNL     1      -9.685  15.584  69.481  0.00  0.00    +0.037 C 
ATOM     30  C   UNL     1      -9.515  14.932  67.166  0.00  0.00    +0.176 C 
ATOM     31  O   UNL     1      -9.029  13.624  67.344  0.00  0.00    -0.326 OA
BRANCH  26  32
ATOM     32  N   UNL     1     -12.221  13.728  69.181  0.00  0.00    -0.213 NA
ATOM     33  C   UNL     1     -12.200  13.382  70.579  0.00  0.00    +0.108 C 
ENDBRANCH  26  32
ENDBRANCH  22  23
ENDBRANCH   7  22
TORSDOF 7
ENDMDL
MODEL 3
REMARK VINA RESULT:      -6.4      3.211      7.640
REMARK  Name = 
REMARK  7 active torsions:
REMARK  status: ('A' for Active; 'I' for Inactive)
REMARK    1  A    between atoms: N_2  and  C_3
REMARK    2  A    between atoms: C_3  and  C_5
REMARK    3  A    between atoms: C_10  and  O_11
REMARK    4  A    between atoms: O_11  and  C_12
REMARK    5  A    between atoms: C_15  and  O_16
REMARK    6  A    between atoms: O_16  and  C_17
REMARK    7  A    between atoms: C_23  and  N_24
REMARK                            x       y       z     vdW  Elec       q    Type
REMARK                         _______ _______ _______ _____ _____    ______ ____
ROOT
ATOM      1  C   UNL     1      -5.214  19.380  67.125  0.00  0.00    +0.168 C 
ATOM      2  C   UNL     1      -4.598  20.832  67.759  0.00  0.00    +0.123 C 
ATOM      3  N   UNL     1      -5.370  21.800  66.818  0.00  0.00    -0.130 NA
ATOM      4  C   UNL     1      -5.929  20.778  68.721  0.00  0.00    +0.043 C 
ATOM      5  C   UNL     1      -5.118  20.063  69.921  0.00  0.00    +0.123 C 
ATOM      6  N   UNL     1      -6.297  20.301  70.910  0.00  0.00    -0.130 NA
ATOM      7  C   UNL     1      -5.463  18.416  69.570  0.00  0.00    +0.168 C 
ATOM      8  C   UNL     1      -4.392  18.336  68.220  0.00  0.00    +0.209 C 
ATOM      9  O   UNL     1      -3.355  19.286  68.727  0.00  0.00    -0.218 OA
ENDROOT
BRANCH   1  10
ATOM     10  O   UNL     1      -4.187  19.005  66.139  0.00  0.00    -0.328 OA
BRANCH  10  13
ATOM     11  C   UNL     1      -4.061  20.495  63.012  0.00  0.00    +0.134 C 
ATOM     12  O   UNL     1      -3.842  20.107  64.434  0.00  0.00    -0.331 OA
ATOM     13  C   UNL     1      -4.717  18.909  64.747  0.00  0.00    +0.253 C 
ATOM     14  C   UNL     1      -3.637  17.685  64.135  0.00  0.00    +0.148 C 
ATOM     15  N   UNL     1      -2.778  17.436  65.408  0.00  0.00    -0.128 NA
ATOM     16  C   UNL     1      -2.476  18.646  63.529  0.00  0.00    +0.027 C 
ATOM     17  C   UNL     1      -3.209  19.230  62.408  0.00  0.00    +0.033 C 
BRANCH  11  18
ATOM     18  C   UNL     1      -5.590  19.751  62.794  0.00  0.00    +0.100 C 
ATOM     19  C   UNL     1      -6.319  21.127  63.275  0.00  0.00    +0.021 C 
BRANCH  18  21
ATOM     20  C   UNL     1      -5.969  20.279  60.919  0.00  0.00    +0.107 C 
ATOM     21  N   UNL     1      -5.721  20.169  61.295  0.00  0.00    -0.215 NA
ENDBRANCH  18  21
ENDBRANCH  11  18
ENDBRANCH  10  13
ENDBRANCH   1  10
BRANCH   7  22
ATOM     22  O   UNL     1      -6.661  18.485  68.742  0.00  0.00    -0.327 OA
BRANCH  22  23
ATOM     23  C   UNL     1      -7.611  17.347  69.032  0.00  0.00    +0.268 C 
ATOM     24  C   UNL     1      -9.164  18.067  68.752  0.00  0.00    +0.226 C 
ATOM     25  O   UNL     1      -8.776  19.496  68.768  0.00  0.00    -0.216 OA
ATOM     26  C   UNL     1      -9.160  17.977  67.051  0.00  0.00    +0.138 C 
ATOM     27  C   UNL     1      -9.707  16.443  67.057  0.00  0.00    +0.171 C 
ATOM     28  O   UNL     1     -10.885  16.352  67.690  0.00  0.00    -0.222 OA
ATOM     29  C   UNL     1      -9.618  15.912  65.677  0.00  0.00    +0.037 C 
ATOM     30  C   UNL     1      -8.612  15.746  67.862  0.00  0.00    +0.176 C 
ATOM     31  O   UNL     1      -7.543  16.642  67.677  0.00  0.00    -0.326 OA
BRANCH  26  32
ATOM     32  N   UNL     1     -10.582  18.612  67.000  0.00  0.00    -0.213 NA
ATOM     33  C   UNL     1     -10.587  19.496  65.863  0.00  0.00    +0.108 C 
ENDBRANCH  26  32
ENDBRANCH  22  23
ENDBRANCH   7  22
TORSDOF 7
ENDMDL
MODEL 4
REMARK VINA RESULT:      -6.4      2.338      6.353
REMARK  Name = 
REMARK  7 active torsions:
REMARK  status: ('A' for Active; 'I' for Inactive)
REMARK    1  A    between atoms: N_2  and  C_3
REMARK    2  A    between atoms: C_3  and  C_5
REMARK    3  A    between atoms: C_10  and  O_11
REMARK    4  A    between atoms: O_11  and  C_12
REMARK    5  A    between atoms: C_15  and  O_16
REMARK    6  A    between atoms: O_16  and  C_17
REMARK    7  A    between atoms: C_23  and  N_24
REMARK                            x       y       z     vdW  Elec       q    Type
REMARK                         _______ _______ _______ _____ _____    ______ ____
ROOT
ATOM      1  C   UNL     1      -6.601  17.068  68.042  0.00  0.00    +0.168 C 
ATOM      2  C   UNL     1      -5.610  18.019  67.041  0.00  0.00    +0.123 C 
ATOM      3  N   UNL     1      -5.072  16.867  66.147  0.00  0.00    -0.130 NA
ATOM      4  C   UNL     1      -6.939  18.086  66.077  0.00  0.00    +0.043 C 
ATOM      5  C   UNL     1      -7.417  19.491  66.716  0.00  0.00    +0.123 C 
ATOM      6  N   UNL     1      -8.482  19.680  65.595  0.00  0.00    -0.130 NA
ATOM      7  C   UNL     1      -8.487  18.913  67.931  0.00  0.00    +0.168 C 
ATOM      8  C   UNL     1      -7.226  18.371  68.978  0.00  0.00    +0.209 C 
ATOM      9  O   UNL     1      -6.216  19.419  68.637  0.00  0.00    -0.218 OA
ENDROOT
BRANCH   1  10
ATOM     10  O   UNL     1      -5.720  16.789  69.188  0.00  0.00    -0.328 OA
BRANCH  10  13
ATOM     11  C   UNL     1      -4.646  13.494  69.110  0.00  0.00    +0.134 C 
ATOM     12  O   UNL     1      -4.814  14.961  68.908  0.00  0.00    -0.331 OA
ATOM     13  C   UNL     1      -5.948  15.443  69.791  0.00  0.00    +0.253 C 
ATOM     14  C   UNL     1      -5.018  15.644  71.251  0.00  0.00    +0.148 C 
ATOM     15  N   UNL     1      -4.514  17.100  71.040  0.00  0.00    -0.128 NA
ATOM     16  C   UNL     1      -3.593  15.066  70.729  0.00  0.00    +0.027 C 
ATOM     17  C   UNL     1      -3.943  13.655  70.585  0.00  0.00    +0.033 C 
BRANCH  11  18
ATOM     18  C   UNL     1      -6.206  13.159  69.736  0.00  0.00    +0.100 C 
ATOM     19  C   UNL     1      -6.714  12.768  68.237  0.00  0.00    +0.021 C 
BRANCH  18  21
ATOM     20  C   UNL     1      -6.024  11.228  70.155  0.00  0.00    +0.107 C 
ATOM     21  N   UNL     1      -5.897  11.662  70.054  0.00  0.00    -0.215 NA
ENDBRANCH  18  21
ENDBRANCH  11  18
ENDBRANCH  10  13
ENDBRANCH   1  10
BRANCH   7  22
ATOM     22  O   UNL     1      -8.824  17.568  67.480  0.00  0.00    -0.327 OA
BRANCH  22  23
ATOM     23  C   UNL     1     -10.302  17.284  67.617  0.00  0.00    +0.268 C 
ATOM     24  C   UNL     1     -10.584  16.121  66.362  0.00  0.00    +0.226 C 
ATOM     25  O   UNL     1      -9.347  16.312  65.570  0.00  0.00    -0.216 OA
ATOM     26  C   UNL     1      -9.979  14.751  67.173  0.00  0.00    +0.138 C 
ATOM     27  C   UNL     1     -11.391  14.488  67.939  0.00  0.00    +0.171 C 
ATOM     28  O   UNL     1     -12.391  14.310  67.063  0.00  0.00    -0.222 OA
ATOM     29  C   UNL     1     -11.176  13.442  68.966  0.00  0.00    +0.037 C 
ATOM     30  C   UNL     1     -11.566  15.805  68.690  0.00  0.00    +0.176 C 
ATOM     31  O   UNL     1     -10.233  16.252  68.744  0.00  0.00    -0.326 OA
BRANCH  26  32
ATOM     32  N   UNL     1     -10.334  13.852  65.951  0.00  0.00    -0.213 NA
ATOM     33  C   UNL     1      -9.508  12.678  66.062  0.00  0.00    +0.108 C 
ENDBRANCH  26  32
ENDBRANCH  22  23
ENDBRANCH   7  22
TORSDOF 7
ENDMDL
MODEL 5
REMARK VINA RESULT:      -6.4      5.723      9.617
REMARK  Name = 
REMARK  7 active torsions:
REMARK  status: ('A' for Active; 'I' for Inactive)
REMARK    1  A    between atoms: N_2  and  C_3
REMARK    2  A    between atoms: C_3  and  C_5
REMARK    3  A    between atoms: C_10  and  O_11
REMARK    4  A    between atoms: O_11  and  C_12
REMARK    5  A    between atoms: C_15  and  O_16
REMARK    6  A    between atoms: O_16  and  C_17
REMARK    7  A    between atoms: C_23  and  N_24
REMARK                            x       y       z     vdW  Elec       q    Type
REMARK                         _______ _______ _______ _____ _____    ______ ____
ROOT
ATOM      1  C   UNL     1      -9.411  10.333  66.876  0.00  0.00    +0.168 C 
ATOM      2  C   UNL     1      -7.888  10.309  66.122  0.00  0.00    +0.123 C 
ATOM      3  N   UNL     1      -7.309  11.577  66.810  0.00  0.00    -0.130 NA
ATOM      4  C   UNL     1      -7.437   9.441  67.443  0.00  0.00    +0.043 C 
ATOM      5  C   UNL     1      -7.686   8.034  66.689  0.00  0.00    +0.123 C 
ATOM      6  N   UNL     1      -6.971   7.254  67.832  0.00  0.00    -0.130 NA
ATOM      7  C   UNL     1      -9.300   7.714  67.189  0.00  0.00    +0.168 C 
ATOM      8  C   UNL     1     -10.004   8.892  66.143  0.00  0.00    +0.209 C 
ATOM      9  O   UNL     1      -9.027   8.774  65.018  0.00  0.00    -0.218 OA
ENDROOT
BRANCH   1  10
ATOM     10  O   UNL     1     -10.237  11.061  65.898  0.00  0.00    -0.328 OA
BRANCH  10  13
ATOM     11  C   UNL     1     -10.243  14.455  66.601  0.00  0.00    +0.134 C 
ATOM     12  O   UNL     1      -9.918  13.084  66.117  0.00  0.00    -0.331 OA
ATOM     13  C   UNL     1     -11.049  12.153  66.511  0.00  0.00    +0.253 C 
ATOM     14  C   UNL     1     -12.095  12.497  65.161  0.00  0.00    +0.148 C 
ATOM     15  N   UNL     1     -11.550  11.460  64.138  0.00  0.00    -0.128 NA
ATOM     16  C   UNL     1     -11.223  13.669  64.452  0.00  0.00    +0.027 C 
ATOM     17  C   UNL     1     -11.381  14.724  65.450  0.00  0.00    +0.033 C 
BRANCH  11  18
ATOM     18  C   UNL     1     -11.373  14.019  67.815  0.00  0.00    +0.100 C 
ATOM     19  C   UNL     1     -10.146  13.800  68.866  0.00  0.00    +0.021 C 
BRANCH  18  21
ATOM     20  C   UNL     1     -11.693  15.791  68.648  0.00  0.00    +0.107 C 
ATOM     21  N   UNL     1     -11.586  15.480  68.321  0.00  0.00    -0.215 NA
ENDBRANCH  18  21
ENDBRANCH  11  18
ENDBRANCH  10  13
ENDBRANCH   1  10
BRANCH   7  22
ATOM     22  O   UNL     1      -9.458   8.535  68.383  0.00  0.00    -0.327 OA
BRANCH  22  23
ATOM     23  C   UNL     1      -9.505   7.696  69.640  0.00  0.00    +0.268 C 
ATOM     24  C   UNL     1      -9.957   8.851  70.852  0.00  0.00    +0.226 C 
ATOM     25  O   UNL     1      -9.674  10.103  70.113  0.00  0.00    -0.216 OA
ATOM     26  C   UNL     1     -11.625   8.906  70.512  0.00  0.00    +0.138 C 
ATOM     27  C   UNL     1     -11.930   7.597  71.433  0.00  0.00    +0.171 C 
ATOM     28  O   UNL     1     -11.539   7.795  72.700  0.00  0.00    -0.222 OA
ATOM     29  C   UNL     1     -13.333   7.180  71.198  0.00  0.00    +0.037 C 
ATOM     30  C   UNL     1     -11.047   6.552  70.757  0.00  0.00    +0.176 C 
ATOM     31  O   UNL     1     -10.910   7.116  69.475  0.00  0.00    -0.326 OA
BRANCH  26  32
ATOM     32  N   UNL     1     -11.843   9.923  71.672  0.00  0.00    -0.213 NA
ATOM     33  C   UNL     1     -12.907  10.796  71.246  0.00  0.00    +0.108 C 
ENDBRANCH  26  32
ENDBRANCH  22  23
ENDBRANCH   7  22
TORSDOF 7
ENDMDL
MODEL 6
REMARK VINA RESULT:      -6.4      2.207      3.194
REMARK  Name = 
REMARK  7 active torsions:
REMARK  status: ('A' for Active; 'I' for Inactive)
REMARK    1  A    between atoms: N_2  and  C_3
REMARK    2  A    between atoms: C_3  and  C_5
REMARK    3  A    between atoms: C_10  and  O_11
REMARK    4  A    between atoms: O_11  and  C_12
REMARK    5  A    between atoms: C_15  and  O_16
REMARK    6  A    between atoms: O_16  and  C_17
REMARK    7  A    between atoms: C_23  and  N_24
REMARK                            x       y       z     vdW  Elec       q    Type
REMARK                         _______ _______ _______ _____ _____    ______ ____
ROOT
ATOM      1  C   UNL     1      -8.374  17.489  67.152  0.00  0.00    +0.168 C 
ATOM      2  C   UNL     1      -9.287  18.811  67.705  0.00  0.00    +0.123 C 
ATOM      3  N   UNL     1      -9.935  18.104  68.929  0.00  0.00    -0.130 NA
ATOM      4  C   UNL     1      -7.968  19.115  68.637  0.00  0.00    +0.043 C 
ATOM      5  C   UNL     1      -7.360  20.153  67.559  0.00  0.00    +0.123 C 
ATOM      6  N   UNL     1      -6.294  20.648  68.582  0.00  0.00    -0.130 NA
ATOM      7  C   UNL     1      -6.334  19.094  66.676  0.00  0.00    +0.168 C 
ATOM      8  C   UNL     1      -7.627  18.315  65.840  0.00  0.00    +0.209 C 
ATOM      9  O   UNL     1      -8.542  19.492  65.742  0.00  0.00    -0.218 OA
ENDROOT
BRANCH   1  10
ATOM     10  O   UNL     1      -9.265  16.888  66.146  0.00  0.00    -0.328 OA
BRANCH  10  13
ATOM     11  C   UNL     1     -10.257  13.968  67.728  0.00  0.00    +0.134 C 
ATOM     12  O   UNL     1     -10.065  15.382  67.302  0.00  0.00    -0.331 OA
ATOM     13  C   UNL     1      -9.162  15.400  66.084  0.00  0.00    +0.253 C 
ATOM     14  C   UNL     1     -10.397  15.097  64.892  0.00  0.00    +0.148 C 
ATOM     15  N   UNL     1     -10.858  16.557  64.617  0.00  0.00    -0.128 NA
ATOM     16  C   UNL     1     -11.663  14.876  65.885  0.00  0.00    +0.027 C 
ATOM     17  C   UNL     1     -11.274  13.605  66.492  0.00  0.00    +0.033 C 
BRANCH  11  18
ATOM     18  C   UNL     1      -8.872  13.299  66.971  0.00  0.00    +0.100 C 
ATOM     19  C   UNL     1      -8.040  13.468  68.362  0.00  0.00    +0.021 C 
BRANCH  18  21
ATOM     20  C   UNL     1      -9.123  11.376  67.395  0.00  0.00    +0.107 C 
ATOM     21  N   UNL     1      -9.232  11.823  67.330  0.00  0.00    -0.215 NA
ENDBRANCH  18  21
ENDBRANCH  11  18
ENDBRANCH  10  13
ENDBRANCH   1  10
BRANCH   7  22
ATOM     22  O   UNL     1      -6.121  17.980  67.591  0.00  0.00    -0.327 OA
BRANCH  22  23
ATOM     23  C   UNL     1      -4.679  17.528  67.603  0.00  0.00    +0.268 C 
ATOM     24  C   UNL     1      -4.449  17.032  69.248  0.00  0.00    +0.226 C 
ATOM     25  O   UNL     1      -5.635  17.671  69.864  0.00  0.00    -0.216 OA
ATOM     26  C   UNL     1      -5.198  15.506  69.139  0.00  0.00    +0.138 C 
ATOM     27  C   UNL     1      -3.843  14.798  68.579  0.00  0.00    +0.171 C 
ATOM     28  O   UNL     1      -2.830  14.941  69.445  0.00  0.00    -0.222 OA
ATOM     29  C   UNL     1      -4.185  13.427  68.132  0.00  0.00    +0.037 C 
ATOM     30  C   UNL     1      -3.586  15.616  67.315  0.00  0.00    +0.176 C 
ATOM     31  O   UNL     1      -4.878  16.112  67.061  0.00  0.00    -0.326 OA
BRANCH  26  32
ATOM     32  N   UNL     1      -4.874  15.223  70.636  0.00  0.00    -0.213 NA
ATOM     33  C   UNL     1      -5.868  14.286  71.092  0.00  0.00    +0.108 C 
ENDBRANCH  26  32
ENDBRANCH  22  23
ENDBRANCH   7  22
TORSDOF 7
ENDMDL
MODEL 7
REMARK VINA RESULT:      -6.4      2.775      7.416
REMARK  Name = 
REMARK  7 active torsions:
REMARK  status: ('A' for Active; 'I' for Inactive)
REMARK    1  A    between atoms: N_2  and  C_3
REMARK    2  A    between atoms: C_3  and  C_5
REMARK    3  A    between atoms: C_10  and  O_11
REMARK    4  A    between atoms: O_11  and  C_12
REMARK    5  A    between atoms: C_15  and  O_16
REMARK    6  A    between atoms: O_16  and  C_17
REMARK    7  A    between atoms: C_23  and  N_24
REMARK                            x       y       z     vdW  Elec       q    Type
REMARK                         _______ _______ _______ _____ _____    ______ ____
ROOT
ATOM      1  C   UNL     1      -6.750  15.006  68.417  0.00  0.00    +0.168 C 
ATOM      2  C   UNL     1      -5.406  14.932  69.454  0.00  0.00    +0.123 C 
ATOM      3  N   UNL     1      -5.919  15.947  70.514  0.00  0.00    -0.130 NA
ATOM      4  C   UNL     1      -6.274  13.765  70.219  0.00  0.00    +0.043 C 
ATOM      5  C   UNL     1      -5.540  12.583  69.397  0.00  0.00    +0.123 C 
ATOM      6  N   UNL     1      -6.144  11.501  70.340  0.00  0.00    -0.130 NA
ATOM      7  C   UNL     1      -6.655  12.387  68.103  0.00  0.00    +0.168 C 
ATOM      8  C   UNL     1      -6.181  13.834  67.292  0.00  0.00    +0.209 C 
ATOM      9  O   UNL     1      -4.736  13.815  67.672  0.00  0.00    -0.218 OA
ENDROOT
BRANCH   1  10
ATOM     10  O   UNL     1      -6.334  16.019  67.432  0.00  0.00    -0.328 OA
BRANCH  10  13
ATOM     11  C   UNL     1      -8.191  18.854  68.156  0.00  0.00    +0.134 C 
ATOM     12  O   UNL     1      -7.187  17.753  68.142  0.00  0.00    -0.331 OA
ATOM     13  C   UNL     1      -7.464  16.864  66.946  0.00  0.00    +0.253 C 
ATOM     14  C   UNL     1      -6.599  17.811  65.766  0.00  0.00    +0.148 C 
ATOM     15  N   UNL     1      -5.177  17.203  65.935  0.00  0.00    -0.128 NA
ATOM     16  C   UNL     1      -6.181  19.070  66.702  0.00  0.00    +0.027 C 
ATOM     17  C   UNL     1      -7.500  19.665  66.907  0.00  0.00    +0.033 C 
BRANCH  11  18
ATOM     18  C   UNL     1      -9.387  18.100  67.187  0.00  0.00    +0.100 C 
ATOM     19  C   UNL     1     -10.198  17.674  68.536  0.00  0.00    +0.021 C 
BRANCH  18  21
ATOM     20  C   UNL     1     -10.655  19.607  66.940  0.00  0.00    +0.107 C 
ATOM     21  N   UNL     1     -10.257  19.387  67.034  0.00  0.00    -0.215 NA
ENDBRANCH  18  21
ENDBRANCH  11  18
ENDBRANCH  10  13
ENDBRANCH   1  10
BRANCH   7  22
ATOM     22  O   UNL     1      -7.888  12.964  68.623  0.00  0.00    -0.327 OA
BRANCH  22  23
ATOM     23  C   UNL     1      -9.065  12.033  68.445  0.00  0.00    +0.268 C 
ATOM     24  C   UNL     1     -10.364  13.124  68.085  0.00  0.00    +0.226 C 
ATOM     25  O   UNL     1      -9.744  14.394  68.528  0.00  0.00    -0.216 OA
ATOM     26  C   UNL     1      -9.994  13.394  66.444  0.00  0.00    +0.138 C 
ATOM     27  C   UNL     1     -10.789  12.055  65.968  0.00  0.00    +0.171 C 
ATOM     28  O   UNL     1     -12.076  12.099  66.338  0.00  0.00    -0.222 OA
ATOM     29  C   UNL     1     -10.487  11.819  64.537  0.00  0.00    +0.037 C 
ATOM     30  C   UNL     1     -10.043  10.978  66.752  0.00  0.00    +0.176 C 
ATOM     31  O   UNL     1      -8.819  11.630  66.990  0.00  0.00    -0.326 OA
BRANCH  26  32
ATOM     32  N   UNL     1     -11.234  14.327  66.303  0.00  0.00    -0.213 NA
ATOM     33  C   UNL     1     -10.888  15.306  65.305  0.00  0.00    +0.108 C 
ENDBRANCH  26  32
ENDBRANCH  22  23
ENDBRANCH   7  22
TORSDOF 7
ENDMDL
MODEL 8
REMARK VINA RESULT:      -6.3      3.471      8.031
REMARK  Name = 
REMARK  7 active torsions:
REMARK  status: ('A' for Active; 'I' for Inactive)
REMARK    1  A    between atoms: N_2  and  C_3
REMARK    2  A    between atoms: C_3  and  C_5
REMARK    3  A    between atoms: C_10  and  O_11
REMARK    4  A    between atoms: O_11  and  C_12
REMARK    5  A    between atoms: C_15  and  O_16
REMARK    6  A    between atoms: O_16  and  C_17
REMARK    7  A    between atoms: C_23  and  N_24
REMARK                            x       y       z     vdW  Elec       q    Type
REMARK                         _______ _______ _______ _____ _____    ______ ____
ROOT
ATOM      1  C   UNL     1     -10.366  14.164  66.672  0.00  0.00    +0.168 C 
ATOM      2  C   UNL     1     -11.315  14.909  65.475  0.00  0.00    +0.123 C 
ATOM      3  N   UNL     1     -10.254  15.940  64.997  0.00  0.00    -0.130 NA
ATOM      4  C   UNL     1     -10.623  13.802  64.477  0.00  0.00    +0.043 C 
ATOM      5  C   UNL     1     -11.863  12.779  64.639  0.00  0.00    +0.123 C 
ATOM      6  N   UNL     1     -11.336  11.898  63.467  0.00  0.00    -0.130 NA
ATOM      7  C   UNL     1     -11.273  11.801  65.924  0.00  0.00    +0.168 C 
ATOM      8  C   UNL     1     -11.541  12.996  67.139  0.00  0.00    +0.209 C 
ATOM      9  O   UNL     1     -12.758  13.624  66.542  0.00  0.00    -0.218 OA
ENDROOT
BRANCH   1  10
ATOM     10  O   UNL     1     -10.751  14.903  67.886  0.00  0.00    -0.328 OA
BRANCH  10  13
ATOM     11  C   UNL     1      -7.728  16.596  67.818  0.00  0.00    +0.134 C 
ATOM     12  O   UNL     1      -9.057  16.005  67.494  0.00  0.00    -0.331 OA
ATOM     13  C   UNL     1      -9.584  15.299  68.728  0.00  0.00    +0.253 C 
ATOM     14  C   UNL     1     -10.277  16.700  69.500  0.00  0.00    +0.148 C 
ATOM     15  N   UNL     1     -11.688  16.687  68.845  0.00  0.00    -0.128 NA
ATOM     16  C   UNL     1      -9.790  17.839  68.451  0.00  0.00    +0.027 C 
ATOM     17  C   UNL     1      -8.354  17.816  68.719  0.00  0.00    +0.033 C 
BRANCH  11  18
ATOM     18  C   UNL     1      -7.349  15.607  69.166  0.00  0.00    +0.100 C 
ATOM     19  C   UNL     1      -6.449  14.650  68.200  0.00  0.00    +0.021 C 
BRANCH  18  21
ATOM     20  C   UNL     1      -5.684  16.483  69.800  0.00  0.00    +0.107 C 
ATOM     21  N   UNL     1      -6.087  16.431  69.576  0.00  0.00    -0.215 NA
ENDBRANCH  18  21
ENDBRANCH  11  18
ENDBRANCH  10  13
ENDBRANCH   1  10
BRANCH   7  22
ATOM     22  O   UNL     1      -9.832  12.018  65.887  0.00  0.00    -0.327 OA
BRANCH  22  23
ATOM     23  C   UNL     1      -9.081  10.752  65.544  0.00  0.00    +0.268 C 
ATOM     24  C   UNL     1      -8.216  10.415  67.008  0.00  0.00    +0.226 C 
ATOM     25  O   UNL     1      -8.345  11.731  67.676  0.00  0.00    -0.216 OA
ATOM     26  C   UNL     1      -9.502   9.725  67.887  0.00  0.00    +0.138 C 
ATOM     27  C   UNL     1      -9.260   8.255  67.230  0.00  0.00    +0.171 C 
ATOM     28  O   UNL     1      -8.020   7.812  67.478  0.00  0.00    -0.222 OA
ATOM     29  C   UNL     1     -10.397   7.383  67.609  0.00  0.00    +0.037 C 
ATOM     30  C   UNL     1      -9.430   8.567  65.745  0.00  0.00    +0.176 C 
ATOM     31  O   UNL     1     -10.199   9.744  65.813  0.00  0.00    -0.326 OA
BRANCH  26  32
ATOM     32  N   UNL     1      -8.558   9.472  69.099  0.00  0.00    -0.213 NA
ATOM     33  C   UNL     1      -9.382   9.562  70.277  0.00  0.00    +0.108 C 
ENDBRANCH  26  32
ENDBRANCH  22  23
ENDBRANCH   7  22
TORSDOF 7
ENDMDL
MODEL 9
REMARK VINA RESULT:      -6.2      2.564      5.858
REMARK  Name = 
REMARK  7 active torsions:
REMARK  status: ('A' for Active; 'I' for Inactive)
REMARK    1  A    between atoms: N_2  and  C_3
REMARK    2  A    between atoms: C_3  and  C_5
REMARK    3  A    between atoms: C_10  and  O_11
REMARK    4  A    between atoms: O_11  and  C_12
REMARK    5  A    between atoms: C_15  and  O_16
REMARK    6  A    between atoms: O_16  and  C_17
REMARK    7  A    between atoms: C_23  and  N_24
REMARK                            x       y       z     vdW  Elec       q    Type
REMARK                         _______ _______ _______ _____ _____    ______ ____
ROOT
ATOM      1  C   UNL     1      -4.741  17.608  67.762  0.00  0.00    +0.168 C 
ATOM      2  C   UNL     1      -3.435  17.859  66.704  0.00  0.00    +0.123 C 
ATOM      3  N   UNL     1      -3.719  16.662  65.754  0.00  0.00    -0.130 NA
ATOM      4  C   UNL     1      -4.522  18.742  65.844  0.00  0.00    +0.043 C 
ATOM      5  C   UNL     1      -4.054  20.123  66.539  0.00  0.00    +0.123 C 
ATOM      6  N   UNL     1      -4.864  20.960  65.505  0.00  0.00    -0.130 NA
ATOM      7  C   UNL     1      -5.194  20.208  67.823  0.00  0.00    +0.168 C 
ATOM      8  C   UNL     1      -4.435  18.976  68.762  0.00  0.00    +0.209 C 
ATOM      9  O   UNL     1      -3.023  19.257  68.361  0.00  0.00    -0.218 OA
ENDROOT
BRANCH   1  10
ATOM     10  O   UNL     1      -4.129  16.803  68.833  0.00  0.00    -0.328 OA
BRANCH  10  13
ATOM     11  C   UNL     1      -4.800  13.450  68.269  0.00  0.00    +0.134 C 
ATOM     12  O   UNL     1      -4.231  14.827  68.265  0.00  0.00    -0.331 OA
ATOM     13  C   UNL     1      -4.988  15.665  69.276  0.00  0.00    +0.253 C 
ATOM     14  C   UNL     1      -4.082  15.180  70.683  0.00  0.00    +0.148 C 
ATOM     15  N   UNL     1      -2.931  16.224  70.625  0.00  0.00    -0.128 NA
ATOM     16  C   UNL     1      -3.118  14.067  69.998  0.00  0.00    +0.027 C 
ATOM     17  C   UNL     1      -4.113  13.038  69.701  0.00  0.00    +0.033 C 
BRANCH  11  18
ATOM     18  C   UNL     1      -6.328  13.826  68.951  0.00  0.00    +0.100 C 
ATOM     19  C   UNL     1      -6.897  14.172  67.463  0.00  0.00    +0.021 C 
BRANCH  18  21
ATOM     20  C   UNL     1      -7.206  12.047  68.900  0.00  0.00    +0.107 C 
ATOM     21  N   UNL     1      -6.873  12.366  68.852  0.00  0.00    -0.215 NA
ENDBRANCH  18  21
ENDBRANCH  11  18
ENDBRANCH  10  13
ENDBRANCH   1  10
BRANCH   7  22
ATOM     22  O   UNL     1      -6.277  19.340  67.378  0.00  0.00    -0.327 OA
BRANCH  22  23
ATOM     23  C   UNL     1      -7.634  19.919  67.707  0.00  0.00    +0.268 C 
ATOM     24  C   UNL     1      -8.641  19.265  66.456  0.00  0.00    +0.226 C 
ATOM     25  O   UNL     1      -7.593  18.817  65.509  0.00  0.00    -0.216 OA
ATOM     26  C   UNL     1      -8.854  17.710  67.117  0.00  0.00    +0.138 C 
ATOM     27  C   UNL     1     -10.089  18.200  68.060  0.00  0.00    +0.171 C 
ATOM     28  O   UNL     1     -11.085  18.713  67.325  0.00  0.00    -0.222 OA
ATOM     29  C   UNL     1     -10.416  17.105  69.003  0.00  0.00    +0.037 C 
ATOM     30  C   UNL     1      -9.412  19.294  68.882  0.00  0.00    +0.176 C 
ATOM     31  O   UNL     1      -8.063  18.907  68.769  0.00  0.00    -0.326 OA
BRANCH  26  32
ATOM     32  N   UNL     1      -9.768  17.310  65.921  0.00  0.00    -0.213 NA
ATOM     33  C   UNL     1      -9.669  15.878  65.800  0.00  0.00    +0.108 C 
ENDBRANCH  26  32
ENDBRANCH  22  23
ENDBRANCH   7  22
TORSDOF 7
ENDMDL
