MODEL 1
REMARK VINA RESULT:      -6.3      0.000      0.000
REMARK  Name = 
REMARK  6 active torsions:
REMARK  status: ('A' for Active; 'I' for Inactive)
REMARK    1  A    between atoms: C_2  and  N_4
REMARK    2  A    between atoms: C_11  and  O_12
REMARK    3  A    between atoms: O_12  and  C_13
REMARK    4  A    between atoms: C_13  and  C_15
REMARK    5  A    between atoms: C_15  and  C_16
REMARK    6  A    between atoms: C_15  and  C_18
REMARK                            x       y       z     vdW  Elec       q    Type
REMARK                         _______ _______ _______ _____ _____    ______ ____
ROOT
ATOM      1  N   UNL     1      -9.286  17.917  67.365  0.00  0.00    +0.289 N 
ATOM      2  C   UNL     1      -8.233  16.866  66.833  0.00  0.00    +0.062 C 
ATOM      3  C   UNL     1      -9.008  15.405  66.704  0.00  0.00    +0.099 C 
ATOM      4  C   UNL     1      -9.898  15.428  65.370  0.00  0.00    +0.180 C 
ATOM      5  C   UNL     1     -10.456  16.831  65.936  0.00  0.00    +0.099 C 
ATOM      6  C   UNL     1      -8.131  16.462  68.439  0.00  0.00    +0.061 C 
ATOM      7  C   UNL     1      -9.537  15.862  68.291  0.00  0.00    +0.061 C 
ATOM      8  C   UNL     1     -10.512  16.970  67.565  0.00  0.00    +0.062 C 
ATOM      9  C   UNL     1      -9.018  18.367  68.671  0.00  0.00    +0.170 C 
ENDROOT
BRANCH   1  11
ATOM     10  C   UNL     1     -10.146  19.979  66.667  0.00  0.00    +0.061 C 
ATOM     11  C   UNL     1      -9.407  18.892  66.484  0.00  0.00    +0.058 C 
ATOM     12  C   UNL     1      -7.954  19.229  66.120  0.00  0.00    +0.061 C 
ENDBRANCH   1  11
BRANCH   4  13
ATOM     13  O   UNL     1     -11.184  14.696  65.853  0.00  0.00    -0.452 OA
BRANCH  13  14
ATOM     14  C   UNL     1     -11.840  13.811  65.167  0.00  0.00    +0.323 C 
ATOM     15  O   UNL     1     -13.024  14.224  64.989  0.00  0.00    -0.250 OA
BRANCH  14  16
ATOM     16  C   UNL     1     -11.980  12.246  65.533  0.00  0.00    +0.154 C 
BRANCH  16  17
ATOM     17  C   UNL     1     -10.544  11.872  64.897  0.00  0.00    -0.009 A 
ATOM     18  C   UNL     1     -10.137  10.634  65.386  0.00  0.00    -0.004 A 
ATOM     19  C   UNL     1      -9.454   9.735  64.578  0.00  0.00    -0.000 A 
ATOM     20  C   UNL     1      -9.373   9.959  63.215  0.00  0.00    -0.000 A 
ATOM     21  C   UNL     1      -9.544  11.273  62.797  0.00  0.00    -0.000 A 
ATOM     22  C   UNL     1     -10.399  12.034  63.550  0.00  0.00    -0.004 A 
ENDBRANCH  16  17
BRANCH  16  23
ATOM     23  C   UNL     1     -11.317  12.355  67.032  0.00  0.00    +0.198 C 
ATOM     24  O   UNL     1     -12.093  11.784  67.943  0.00  0.00    -0.219 OA
ENDBRANCH  16  23
ENDBRANCH  14  16
ENDBRANCH  13  14
ENDBRANCH   4  13
TORSDOF 6
ENDMDL
MODEL 2
REMARK VINA RESULT:      -6.0      2.159      6.428
REMARK  Name = 
REMARK  6 active torsions:
REMARK  status: ('A' for Active; 'I' for Inactive)
REMARK    1  A    between atoms: C_2  and  N_4
REMARK    2  A    between atoms: C_11  and  O_12
REMARK    3  A    between atoms: O_12  and  C_13
REMARK    4  A    between atoms: C_13  and  C_15
REMARK    5  A    between atoms: C_15  and  C_16
REMARK    6  A    between atoms: C_15  and  C_18
REMARK                            x       y       z     vdW  Elec       q    Type
REMARK                         _______ _______ _______ _____ _____    ______ ____
ROOT
ATOM      1  N   UNL     1     -10.790  12.137  65.230  0.00  0.00    +0.289 N 
ATOM      2  C   UNL     1     -12.143  12.862  65.606  0.00  0.00    +0.062 C 
ATOM      3  C   UNL     1     -11.753  14.313  66.307  0.00  0.00    +0.099 C 
ATOM      4  C   UNL     1     -11.342  15.336  65.143  0.00  0.00    +0.180 C 
ATOM      5  C   UNL     1     -10.369  14.153  64.641  0.00  0.00    +0.099 C 
ATOM      6  C   UNL     1     -11.812  12.253  67.113  0.00  0.00    +0.061 C 
ATOM      7  C   UNL     1     -10.671  13.279  67.185  0.00  0.00    +0.061 C 
ATOM      8  C   UNL     1      -9.777  13.174  65.809  0.00  0.00    +0.062 C 
ATOM      9  C   UNL     1     -10.539  10.985  65.998  0.00  0.00    +0.170 C 
ENDROOT
BRANCH   1  11
ATOM     10  C   UNL     1     -10.051  10.966  63.343  0.00  0.00    +0.061 C 
ATOM     11  C   UNL     1     -10.763  11.920  63.928  0.00  0.00    +0.058 C 
ATOM     12  C   UNL     1     -12.249  11.859  63.543  0.00  0.00    +0.061 C 
ENDBRANCH   1  11
BRANCH   4  13
ATOM     13  O   UNL     1     -10.141  16.076  65.801  0.00  0.00    -0.452 OA
BRANCH  13  14
ATOM     14  C   UNL     1     -10.166  17.298  66.236  0.00  0.00    +0.323 C 
ATOM     15  O   UNL     1     -10.758  18.025  65.384  0.00  0.00    -0.250 OA
BRANCH  14  16
ATOM     16  C   UNL     1      -8.887  18.155  66.720  0.00  0.00    +0.154 C 
BRANCH  16  17
ATOM     17  C   UNL     1      -8.923  17.541  68.213  0.00  0.00    -0.009 A 
ATOM     18  C   UNL     1     -10.219  17.631  68.712  0.00  0.00    -0.004 A 
ATOM     19  C   UNL     1     -10.749  16.630  69.513  0.00  0.00    -0.000 A 
ATOM     20  C   UNL     1     -10.084  15.423  69.636  0.00  0.00    -0.000 A 
ATOM     21  C   UNL     1      -8.722  15.441  69.361  0.00  0.00    -0.000 A 
ATOM     22  C   UNL     1      -8.317  16.334  68.404  0.00  0.00    -0.004 A 
ENDBRANCH  16  17
BRANCH  16  23
ATOM     23  C   UNL     1      -7.755  17.054  66.267  0.00  0.00    +0.198 C 
ATOM     24  O   UNL     1      -6.876  17.585  65.429  0.00  0.00    -0.219 OA
ENDBRANCH  16  23
ENDBRANCH  14  16
ENDBRANCH  13  14
ENDBRANCH   4  13
TORSDOF 6
ENDMDL
MODEL 3
REMARK VINA RESULT:      -6.0      1.803      3.051
REMARK  Name = 
REMARK  6 active torsions:
REMARK  status: ('A' for Active; 'I' for Inactive)
REMARK    1  A    between atoms: C_2  and  N_4
REMARK    2  A    between atoms: C_11  and  O_12
REMARK    3  A    between atoms: O_12  and  C_13
REMARK    4  A    between atoms: C_13  and  C_15
REMARK    5  A    between atoms: C_15  and  C_16
REMARK    6  A    between atoms: C_15  and  C_18
REMARK                            x       y       z     vdW  Elec       q    Type
REMARK                         _______ _______ _______ _____ _____    ______ ____
ROOT
ATOM      1  N   UNL     1      -8.408  17.579  67.569  0.00  0.00    +0.289 N 
ATOM      2  C   UNL     1      -9.839  18.039  68.058  0.00  0.00    +0.062 C 
ATOM      3  C   UNL     1     -10.815  16.698  68.074  0.00  0.00    +0.099 C 
ATOM      4  C   UNL     1     -10.466  15.843  69.385  0.00  0.00    +0.180 C 
ATOM      5  C   UNL     1      -8.936  15.983  68.897  0.00  0.00    +0.099 C 
ATOM      6  C   UNL     1     -10.170  18.034  66.432  0.00  0.00    +0.061 C 
ATOM      7  C   UNL     1     -10.097  16.502  66.508  0.00  0.00    +0.061 C 
ATOM      8  C   UNL     1      -8.710  16.075  67.280  0.00  0.00    +0.062 C 
ATOM      9  C   UNL     1      -8.061  18.082  66.301  0.00  0.00    +0.170 C 
ENDROOT
BRANCH   1  11
ATOM     10  C   UNL     1      -6.222  17.609  68.404  0.00  0.00    +0.061 C 
ATOM     11  C   UNL     1      -7.522  17.854  68.508  0.00  0.00    +0.058 C 
ATOM     12  C   UNL     1      -7.814  19.320  68.860  0.00  0.00    +0.061 C 
ENDBRANCH   1  11
BRANCH   4  13
ATOM     13  O   UNL     1     -10.536  14.392  68.826  0.00  0.00    -0.452 OA
BRANCH  13  14
ATOM     14  C   UNL     1     -11.627  13.715  68.642  0.00  0.00    +0.323 C 
ATOM     15  O   UNL     1     -12.188  13.528  69.763  0.00  0.00    -0.250 OA
BRANCH  14  16
ATOM     16  C   UNL     1     -11.747  12.309  67.860  0.00  0.00    +0.154 C 
BRANCH  16  17
ATOM     17  C   UNL     1     -11.334  12.957  66.440  0.00  0.00    -0.009 A 
ATOM     18  C   UNL     1     -10.740  11.980  65.648  0.00  0.00    -0.004 A 
ATOM     19  C   UNL     1     -10.956  11.939  64.277  0.00  0.00    -0.000 A 
ATOM     20  C   UNL     1     -11.947  12.723  63.714  0.00  0.00    -0.000 A 
ATOM     21  C   UNL     1     -12.335  13.841  64.443  0.00  0.00    -0.000 A 
ATOM     22  C   UNL     1     -12.275  13.716  65.806  0.00  0.00    -0.004 A 
ENDBRANCH  16  17
BRANCH  16  23
ATOM     23  C   UNL     1     -10.198  11.829  68.121  0.00  0.00    +0.198 C 
ATOM     24  O   UNL     1     -10.133  10.911  69.074  0.00  0.00    -0.219 OA
ENDBRANCH  16  23
ENDBRANCH  14  16
ENDBRANCH  13  14
ENDBRANCH   4  13
TORSDOF 6
ENDMDL
MODEL 4
REMARK VINA RESULT:      -6.0      3.646      5.641
REMARK  Name = 
REMARK  6 active torsions:
REMARK  status: ('A' for Active; 'I' for Inactive)
REMARK    1  A    between atoms: C_2  and  N_4
REMARK    2  A    between atoms: C_11  and  O_12
REMARK    3  A    between atoms: O_12  and  C_13
REMARK    4  A    between atoms: C_13  and  C_15
REMARK    5  A    between atoms: C_15  and  C_16
REMARK    6  A    between atoms: C_15  and  C_18
REMARK                            x       y       z     vdW  Elec       q    Type
REMARK                         _______ _______ _______ _____ _____    ______ ____
ROOT
ATOM      1  N   UNL     1      -6.873  18.858  67.641  0.00  0.00    +0.289 N 
ATOM      2  C   UNL     1      -7.940  18.773  66.478  0.00  0.00    +0.062 C 
ATOM      3  C   UNL     1      -9.131  17.729  66.971  0.00  0.00    +0.099 C 
ATOM      4  C   UNL     1     -10.081  18.507  68.002  0.00  0.00    +0.180 C 
ATOM      5  C   UNL     1      -8.708  18.908  68.745  0.00  0.00    +0.099 C 
ATOM      6  C   UNL     1      -7.123  17.376  66.110  0.00  0.00    +0.061 C 
ATOM      7  C   UNL     1      -7.740  16.779  67.383  0.00  0.00    +0.061 C 
ATOM      8  C   UNL     1      -7.492  17.821  68.631  0.00  0.00    +0.062 C 
ATOM      9  C   UNL     1      -5.634  18.278  67.309  0.00  0.00    +0.170 C 
ENDROOT
BRANCH   1  11
ATOM     10  C   UNL     1      -5.907  20.538  68.955  0.00  0.00    +0.061 C 
ATOM     11  C   UNL     1      -6.778  20.109  68.050  0.00  0.00    +0.058 C 
ATOM     12  C   UNL     1      -6.703  20.910  66.742  0.00  0.00    +0.061 C 
ENDBRANCH   1  11
BRANCH   4  13
ATOM     13  O   UNL     1     -10.354  17.396  69.057  0.00  0.00    -0.452 OA
BRANCH  13  14
ATOM     14  C   UNL     1     -10.908  16.249  68.807  0.00  0.00    +0.323 C 
ATOM     15  O   UNL     1     -12.151  16.424  68.628  0.00  0.00    -0.250 OA
BRANCH  14  16
ATOM     16  C   UNL     1     -10.786  14.922  69.717  0.00  0.00    +0.154 C 
BRANCH  16  17
ATOM     17  C   UNL     1     -12.000  15.363  70.687  0.00  0.00    -0.009 A 
ATOM     18  C   UNL     1     -12.817  14.261  70.923  0.00  0.00    -0.004 A 
ATOM     19  C   UNL     1     -13.407  14.061  72.164  0.00  0.00    -0.000 A 
ATOM     20  C   UNL     1     -13.006  14.822  73.247  0.00  0.00    -0.000 A 
ATOM     21  C   UNL     1     -12.410  16.043  72.953  0.00  0.00    -0.000 A 
ATOM     22  C   UNL     1     -11.677  16.087  71.797  0.00  0.00    -0.004 A 
ENDBRANCH  16  17
BRANCH  16  23
ATOM     23  C   UNL     1     -11.805  13.998  68.818  0.00  0.00    +0.198 C 
ATOM     24  O   UNL     1     -11.139  13.096  68.112  0.00  0.00    -0.219 OA
ENDBRANCH  16  23
ENDBRANCH  14  16
ENDBRANCH  13  14
ENDBRANCH   4  13
TORSDOF 6
ENDMDL
MODEL 5
REMARK VINA RESULT:      -6.0      2.043      3.568
REMARK  Name = 
REMARK  6 active torsions:
REMARK  status: ('A' for Active; 'I' for Inactive)
REMARK    1  A    between atoms: C_2  and  N_4
REMARK    2  A    between atoms: C_11  and  O_12
REMARK    3  A    between atoms: O_12  and  C_13
REMARK    4  A    between atoms: C_13  and  C_15
REMARK    5  A    between atoms: C_15  and  C_16
REMARK    6  A    between atoms: C_15  and  C_18
REMARK                            x       y       z     vdW  Elec       q    Type
REMARK                         _______ _______ _______ _____ _____    ______ ____
ROOT
ATOM      1  N   UNL     1      -8.478  18.942  67.068  0.00  0.00    +0.289 N 
ATOM      2  C   UNL     1      -8.303  18.096  68.391  0.00  0.00    +0.062 C 
ATOM      3  C   UNL     1      -9.018  16.621  68.136  0.00  0.00    +0.099 C 
ATOM      4  C   UNL     1      -8.024  15.732  67.246  0.00  0.00    +0.180 C 
ATOM      5  C   UNL     1      -7.970  17.018  66.276  0.00  0.00    +0.099 C 
ATOM      6  C   UNL     1      -9.861  18.596  68.671  0.00  0.00    +0.061 C 
ATOM      7  C   UNL     1     -10.280  17.649  67.537  0.00  0.00    +0.061 C 
ATOM      8  C   UNL     1      -9.324  17.933  66.230  0.00  0.00    +0.062 C 
ATOM      9  C   UNL     1      -9.347  20.039  67.215  0.00  0.00    +0.170 C 
ENDROOT
BRANCH   1  11
ATOM     10  C   UNL     1      -7.082  20.029  65.535  0.00  0.00    +0.061 C 
ATOM     11  C   UNL     1      -7.286  19.271  66.604  0.00  0.00    +0.058 C 
ATOM     12  C   UNL     1      -6.552  19.800  67.845  0.00  0.00    +0.061 C 
ENDBRANCH   1  11
BRANCH   4  13
ATOM     13  O   UNL     1      -9.027  15.024  66.290  0.00  0.00    -0.452 OA
BRANCH  13  14
ATOM     14  C   UNL     1      -9.607  13.887  66.526  0.00  0.00    +0.323 C 
ATOM     15  O   UNL     1      -8.720  12.991  66.649  0.00  0.00    -0.250 OA
BRANCH  14  16
ATOM     16  C   UNL     1     -10.774  13.219  65.634  0.00  0.00    +0.154 C 
BRANCH  16  17
ATOM     17  C   UNL     1     -11.793  13.108  66.882  0.00  0.00    -0.009 A 
ATOM     18  C   UNL     1     -11.674  11.847  67.457  0.00  0.00    -0.004 A 
ATOM     19  C   UNL     1     -11.769  11.674  68.831  0.00  0.00    -0.000 A 
ATOM     20  C   UNL     1     -11.749  12.777  69.666  0.00  0.00    -0.000 A 
ATOM     21  C   UNL     1     -12.121  13.988  69.093  0.00  0.00    -0.000 A 
ATOM     22  C   UNL     1     -11.804  14.145  67.770  0.00  0.00    -0.004 A 
ENDBRANCH  16  17
BRANCH  16  23
ATOM     23  C   UNL     1     -11.466  14.632  65.161  0.00  0.00    +0.198 C 
ATOM     24  O   UNL     1     -12.502  14.416  64.363  0.00  0.00    -0.219 OA
ENDBRANCH  16  23
ENDBRANCH  14  16
ENDBRANCH  13  14
ENDBRANCH   4  13
TORSDOF 6
ENDMDL
MODEL 6
REMARK VINA RESULT:      -5.9      2.593      7.365
REMARK  Name = 
REMARK  6 active torsions:
REMARK  status: ('A' for Active; 'I' for Inactive)
REMARK    1  A    between atoms: C_2  and  N_4
REMARK    2  A    between atoms: C_11  and  O_12
REMARK    3  A    between atoms: O_12  and  C_13
REMARK    4  A    between atoms: C_13  and  C_15
REMARK    5  A    between atoms: C_15  and  C_16
REMARK    6  A    between atoms: C_15  and  C_18
REMARK                            x       y       z     vdW  Elec       q    Type
REMARK                         _______ _______ _______ _____ _____    ______ ____
ROOT
ATOM      1  N   UNL     1     -11.067  13.163  66.672  0.00  0.00    +0.289 N 
ATOM      2  C   UNL     1      -9.695  13.479  65.954  0.00  0.00    +0.062 C 
ATOM      3  C   UNL     1      -9.540  15.128  65.878  0.00  0.00    +0.099 C 
ATOM      4  C   UNL     1      -9.088  15.654  67.324  0.00  0.00    +0.180 C 
ATOM      5  C   UNL     1     -10.320  14.771  67.874  0.00  0.00    +0.099 C 
ATOM      6  C   UNL     1     -10.673  13.694  64.630  0.00  0.00    +0.061 C 
ATOM      7  C   UNL     1     -11.173  14.975  65.313  0.00  0.00    +0.061 C 
ATOM      8  C   UNL     1     -11.596  14.620  66.862  0.00  0.00    +0.062 C 
ATOM      9  C   UNL     1     -12.026  12.587  65.818  0.00  0.00    +0.170 C 
ENDROOT
BRANCH   1  11
ATOM     10  C   UNL     1     -11.773  11.861  68.484  0.00  0.00    +0.061 C 
ATOM     11  C   UNL     1     -10.833  12.453  67.759  0.00  0.00    +0.058 C 
ATOM     12  C   UNL     1      -9.732  11.476  67.320  0.00  0.00    +0.061 C 
ENDBRANCH   1  11
BRANCH   4  13
ATOM     13  O   UNL     1      -9.935  16.955  67.450  0.00  0.00    -0.452 OA
BRANCH  13  14
ATOM     14  C   UNL     1      -9.706  17.915  68.292  0.00  0.00    +0.323 C 
ATOM     15  O   UNL     1     -10.591  17.887  69.198  0.00  0.00    -0.250 OA
BRANCH  14  16
ATOM     16  C   UNL     1      -9.520  19.474  67.919  0.00  0.00    +0.154 C 
BRANCH  16  17
ATOM     17  C   UNL     1      -7.909  19.373  67.900  0.00  0.00    -0.009 A 
ATOM     18  C   UNL     1      -7.395  20.428  67.150  0.00  0.00    -0.004 A 
ATOM     19  C   UNL     1      -6.215  21.059  67.518  0.00  0.00    -0.000 A 
ATOM     20  C   UNL     1      -5.657  20.807  68.759  0.00  0.00    -0.000 A 
ATOM     21  C   UNL     1      -6.017  19.607  69.361  0.00  0.00    -0.000 A 
ATOM     22  C   UNL     1      -7.284  19.160  69.094  0.00  0.00    -0.004 A 
ENDBRANCH  16  17
BRANCH  16  23
ATOM     23  C   UNL     1      -9.579  19.275  66.290  0.00  0.00    +0.198 C 
ATOM     24  O   UNL     1     -10.715  19.739  65.790  0.00  0.00    -0.219 OA
ENDBRANCH  16  23
ENDBRANCH  14  16
ENDBRANCH  13  14
ENDBRANCH   4  13
TORSDOF 6
ENDMDL
MODEL 7
REMARK VINA RESULT:      -5.8      2.952      7.288
REMARK  Name = 
REMARK  6 active torsions:
REMARK  status: ('A' for Active; 'I' for Inactive)
REMARK    1  A    between atoms: C_2  and  N_4
REMARK    2  A    between atoms: C_11  and  O_12
REMARK    3  A    between atoms: O_12  and  C_13
REMARK    4  A    between atoms: C_13  and  C_15
REMARK    5  A    between atoms: C_15  and  C_16
REMARK    6  A    between atoms: C_15  and  C_18
REMARK                            x       y       z     vdW  Elec       q    Type
REMARK                         _______ _______ _______ _____ _____    ______ ____
ROOT
ATOM      1  N   UNL     1     -10.326  14.315  67.101  0.00  0.00    +0.289 N 
ATOM      2  C   UNL     1      -9.521  14.503  68.448  0.00  0.00    +0.062 C 
ATOM      3  C   UNL     1      -9.213  16.123  68.623  0.00  0.00    +0.099 C 
ATOM      4  C   UNL     1     -10.555  16.833  69.138  0.00  0.00    +0.180 C 
ATOM      5  C   UNL     1     -11.266  16.058  67.917  0.00  0.00    +0.099 C 
ATOM      6  C   UNL     1      -8.218  14.553  67.422  0.00  0.00    +0.061 C 
ATOM      7  C   UNL     1      -8.735  15.925  66.967  0.00  0.00    +0.061 C 
ATOM      8  C   UNL     1     -10.332  15.794  66.601  0.00  0.00    +0.062 C 
ATOM      9  C   UNL     1      -9.596  13.646  66.101  0.00  0.00    +0.170 C 
ENDROOT
BRANCH   1  11
ATOM     10  C   UNL     1     -12.380  13.402  66.448  0.00  0.00    +0.061 C 
ATOM     11  C   UNL     1     -11.492  13.756  67.368  0.00  0.00    +0.058 C 
ATOM     12  C   UNL     1     -11.128  12.596  68.305  0.00  0.00    +0.061 C 
ENDBRANCH   1  11
BRANCH   4  13
ATOM     13  O   UNL     1     -10.532  18.155  68.316  0.00  0.00    -0.452 OA
BRANCH  13  14
ATOM     14  C   UNL     1      -9.821  19.201  68.605  0.00  0.00    +0.323 C 
ATOM     15  O   UNL     1     -10.387  19.835  69.545  0.00  0.00    -0.250 OA
BRANCH  14  16
ATOM     16  C   UNL     1      -9.328  20.327  67.560  0.00  0.00    +0.154 C 
BRANCH  16  17
ATOM     17  C   UNL     1      -7.784  19.859  67.640  0.00  0.00    -0.009 A 
ATOM     18  C   UNL     1      -6.980  20.843  67.075  0.00  0.00    -0.004 A 
ATOM     19  C   UNL     1      -5.731  21.139  67.605  0.00  0.00    -0.000 A 
ATOM     20  C   UNL     1      -5.368  20.626  68.837  0.00  0.00    -0.000 A 
ATOM     21  C   UNL     1      -6.041  19.482  69.249  0.00  0.00    -0.000 A 
ATOM     22  C   UNL     1      -7.343  19.374  68.837  0.00  0.00    -0.004 A 
ENDBRANCH  16  17
BRANCH  16  23
ATOM     23  C   UNL     1      -9.558  19.425  66.207  0.00  0.00    +0.198 C 
ATOM     24  O   UNL     1     -10.658  19.793  65.565  0.00  0.00    -0.219 OA
ENDBRANCH  16  23
ENDBRANCH  14  16
ENDBRANCH  13  14
ENDBRANCH   4  13
TORSDOF 6
ENDMDL
MODEL 8
REMARK VINA RESULT:      -5.7      2.409      6.887
REMARK  Name = 
REMARK  6 active torsions:
REMARK  status: ('A' for Active; 'I' for Inactive)
REMARK    1  A    between atoms: C_2  and  N_4
REMARK    2  A    between atoms: C_11  and  O_12
REMARK    3  A    between atoms: O_12  and  C_13
REMARK    4  A    between atoms: C_13  and  C_15
REMARK    5  A    between atoms: C_15  and  C_16
REMARK    6  A    between atoms: C_15  and  C_18
REMARK                            x       y       z     vdW  Elec       q    Type
REMARK                         _______ _______ _______ _____ _____    ______ ____
ROOT
ATOM      1  N   UNL     1     -11.089  12.871  66.569  0.00  0.00    +0.289 N 
ATOM      2  C   UNL     1     -11.865  14.248  66.579  0.00  0.00    +0.062 C 
ATOM      3  C   UNL     1     -10.785  15.426  67.021  0.00  0.00    +0.099 C 
ATOM      4  C   UNL     1      -9.871  15.768  65.748  0.00  0.00    +0.180 C 
ATOM      5  C   UNL     1      -9.656  14.173  65.652  0.00  0.00    +0.099 C 
ATOM      6  C   UNL     1     -11.937  13.960  68.212  0.00  0.00    +0.061 C 
ATOM      7  C   UNL     1     -10.429  14.250  68.244  0.00  0.00    +0.061 C 
ATOM      8  C   UNL     1      -9.694  13.363  67.071  0.00  0.00    +0.062 C 
ATOM      9  C   UNL     1     -11.499  11.989  67.586  0.00  0.00    +0.170 C 
ENDROOT
BRANCH   1  11
ATOM     10  C   UNL     1     -10.778  11.112  65.057  0.00  0.00    +0.061 C 
ATOM     11  C   UNL     1     -11.151  12.349  65.358  0.00  0.00    +0.058 C 
ATOM     12  C   UNL     1     -12.589  12.651  64.910  0.00  0.00    +0.061 C 
ENDBRANCH   1  11
BRANCH   4  13
ATOM     13  O   UNL     1      -8.476  15.939  66.415  0.00  0.00    -0.452 OA
BRANCH  13  14
ATOM     14  C   UNL     1      -7.885  17.075  66.627  0.00  0.00    +0.323 C 
ATOM     15  O   UNL     1      -7.231  17.397  65.590  0.00  0.00    -0.250 OA
BRANCH  14  16
ATOM     16  C   UNL     1      -6.916  17.418  67.871  0.00  0.00    +0.154 C 
BRANCH  16  17
ATOM     17  C   UNL     1      -7.833  18.651  68.366  0.00  0.00    -0.009 A 
ATOM     18  C   UNL     1      -7.495  19.791  67.643  0.00  0.00    -0.004 A 
ATOM     19  C   UNL     1      -8.462  20.709  67.259  0.00  0.00    -0.000 A 
ATOM     20  C   UNL     1      -9.802  20.390  67.386  0.00  0.00    -0.000 A 
ATOM     21  C   UNL     1     -10.114  19.404  68.315  0.00  0.00    -0.000 A 
ATOM     22  C   UNL     1      -9.174  18.421  68.481  0.00  0.00    -0.004 A 
ENDBRANCH  16  17
BRANCH  16  23
ATOM     23  C   UNL     1      -7.644  16.411  68.945  0.00  0.00    +0.198 C 
ATOM     24  O   UNL     1      -6.801  15.486  69.384  0.00  0.00    -0.219 OA
ENDBRANCH  16  23
ENDBRANCH  14  16
ENDBRANCH  13  14
ENDBRANCH   4  13
TORSDOF 6
ENDMDL
MODEL 9
REMARK VINA RESULT:      -5.6      2.437      7.044
REMARK  Name = 
REMARK  6 active torsions:
REMARK  status: ('A' for Active; 'I' for Inactive)
REMARK    1  A    between atoms: C_2  and  N_4
REMARK    2  A    between atoms: C_11  and  O_12
REMARK    3  A    between atoms: O_12  and  C_13
REMARK    4  A    between atoms: C_13  and  C_15
REMARK    5  A    between atoms: C_15  and  C_16
REMARK    6  A    between atoms: C_15  and  C_18
REMARK                            x       y       z     vdW  Elec       q    Type
REMARK                         _______ _______ _______ _____ _____    ______ ____
ROOT
ATOM      1  N   UNL     1     -10.705  12.361  65.612  0.00  0.00    +0.289 N 
ATOM      2  C   UNL     1     -11.994  13.002  66.264  0.00  0.00    +0.062 C 
ATOM      3  C   UNL     1     -11.488  14.194  67.299  0.00  0.00    +0.099 C 
ATOM      4  C   UNL     1     -11.095  15.480  66.426  0.00  0.00    +0.180 C 
ATOM      5  C   UNL     1     -10.215  14.445  65.557  0.00  0.00    +0.099 C 
ATOM      6  C   UNL     1     -11.605  11.996  67.525  0.00  0.00    +0.061 C 
ATOM      7  C   UNL     1     -10.411  12.926  67.788  0.00  0.00    +0.061 C 
ATOM      8  C   UNL     1      -9.606  13.167  66.375  0.00  0.00    +0.062 C 
ATOM      9  C   UNL     1     -10.468  11.036  66.024  0.00  0.00    +0.170 C 
ENDROOT
BRANCH   1  11
ATOM     10  C   UNL     1     -10.009  11.837  63.439  0.00  0.00    +0.061 C 
ATOM     11  C   UNL     1     -10.766  12.504  64.301  0.00  0.00    +0.058 C 
ATOM     12  C   UNL     1     -12.264  12.363  63.994  0.00  0.00    +0.061 C 
ENDBRANCH   1  11
BRANCH   4  13
ATOM     13  O   UNL     1      -9.820  15.973  67.171  0.00  0.00    -0.452 OA
BRANCH  13  14
ATOM     14  C   UNL     1      -9.680  17.143  67.715  0.00  0.00    +0.323 C 
ATOM     15  O   UNL     1     -10.821  17.583  68.045  0.00  0.00    -0.250 OA
BRANCH  14  16
ATOM     16  C   UNL     1      -8.905  18.400  67.064  0.00  0.00    +0.154 C 
BRANCH  16  17
ATOM     17  C   UNL     1      -8.044  18.681  68.400  0.00  0.00    -0.009 A 
ATOM     18  C   UNL     1      -7.349  17.526  68.746  0.00  0.00    -0.004 A 
ATOM     19  C   UNL     1      -6.068  17.593  69.276  0.00  0.00    -0.000 A 
ATOM     20  C   UNL     1      -5.375  18.790  69.251  0.00  0.00    -0.000 A 
ATOM     21  C   UNL     1      -6.144  19.943  69.152  0.00  0.00    -0.000 A 
ATOM     22  C   UNL     1      -7.305  19.828  68.434  0.00  0.00    -0.004 A 
ENDBRANCH  16  17
BRANCH  16  23
ATOM     23  C   UNL     1      -7.669  17.532  66.418  0.00  0.00    +0.198 C 
ATOM     24  O   UNL     1      -7.172  18.129  65.344  0.00  0.00    -0.219 OA
ENDBRANCH  16  23
ENDBRANCH  14  16
ENDBRANCH  13  14
ENDBRANCH   4  13
TORSDOF 6
ENDMDL
