MODEL 1
REMARK VINA RESULT:      -8.6      0.000      0.000
REMARK  Name = 
REMARK  7 active torsions:
REMARK  status: ('A' for Active; 'I' for Inactive)
REMARK    1  A    between atoms: C_7  and  O_8
REMARK    2  A    between atoms: O_8  and  C_9
REMARK    3  A    between atoms: C_9  and  C_10
REMARK    4  A    between atoms: C_10  and  C_11
REMARK    5  A    between atoms: C_11  and  C_12
REMARK    6  A    between atoms: C_12  and  C_13
REMARK    7  A    between atoms: N_17  and  C_18
REMARK                            x       y       z     vdW  Elec       q    Type
REMARK                         _______ _______ _______ _____ _____    ______ ____
ROOT
ATOM      1  C   UNL     1     -10.567  11.719  66.795  0.00  0.00    +0.048 C 
ENDROOT
BRANCH   1   2
ATOM      2  C   UNL     1     -10.929  10.495  67.589  0.00  0.00    +0.205 C 
BRANCH   2   3
ATOM      3  O   UNL     1     -12.070  10.770  68.362  0.00  0.00    -0.475 OA
BRANCH   3  10
ATOM      4  O   UNL     1     -15.294  15.594  71.606  0.00  0.00    -0.273 OA
ATOM      5  C   UNL     1     -14.198  15.005  71.841  0.00  0.00    +0.246 C 
ATOM      6  N   UNL     1     -14.141  13.640  72.268  0.00  0.00    -0.180 NA
ATOM      7  C   UNL     1     -13.102  12.812  71.734  0.00  0.00    +0.070 A 
ATOM      8  C   UNL     1     -12.296  13.413  70.774  0.00  0.00    -0.003 A 
ATOM      9  C   UNL     1     -11.658  12.595  69.851  0.00  0.00    +0.034 A 
ATOM     10  C   UNL     1     -12.012  11.276  69.664  0.00  0.00    +0.138 A 
ATOM     11  C   UNL     1     -12.648  10.652  70.726  0.00  0.00    +0.038 A 
ATOM     12  C   UNL     1     -11.842  14.793  71.059  0.00  0.00    +0.037 C 
ATOM     13  C   UNL     1     -13.181  11.428  71.749  0.00  0.00    +0.019 A 
ATOM     14  C   UNL     1     -12.958  15.720  71.445  0.00  0.00    +0.092 C 
ENDBRANCH   3  10
ENDBRANCH   2   3
ENDBRANCH   1   2
BRANCH   1  15
ATOM     15  C   UNL     1     -11.607  12.082  65.766  0.00  0.00    +0.012 C 
BRANCH  15  16
ATOM     16  C   UNL     1     -12.237  13.421  66.038  0.00  0.00    +0.068 C 
BRANCH  16  17
ATOM     17  C   UNL     1     -11.744  14.479  65.104  0.00  0.00    +0.161 A 
ATOM     18  N   UNL     1     -10.753  15.379  65.306  0.00  0.00    -0.219 N 
ATOM     19  N   UNL     1     -11.044  16.418  64.536  0.00  0.00    -0.043 NA
ATOM     20  N   UNL     1     -12.161  16.223  63.872  0.00  0.00    -0.023 NA
ATOM     21  N   UNL     1     -12.450  14.937  64.042  0.00  0.00    -0.113 NA
BRANCH  18  22
ATOM     22  C   UNL     1      -9.919  15.328  66.499  0.00  0.00    +0.108 C 
ATOM     23  C   UNL     1      -8.541  15.868  66.270  0.00  0.00    +0.024 C 
ATOM     24  C   UNL     1      -8.416  17.343  66.520  0.00  0.00    +0.002 C 
ATOM     25  C   UNL     1      -9.042  17.761  67.846  0.00  0.00    +0.000 C 
ATOM     26  C   UNL     1     -10.527  17.443  67.712  0.00  0.00    +0.002 C 
ATOM     27  C   UNL     1     -10.617  15.922  67.688  0.00  0.00    +0.024 C 
ENDBRANCH  18  22
ENDBRANCH  16  17
ENDBRANCH  15  16
ENDBRANCH   1  15
TORSDOF 7
ENDMDL
MODEL 2
REMARK VINA RESULT:      -7.1      2.795      4.118
REMARK  Name = 
REMARK  7 active torsions:
REMARK  status: ('A' for Active; 'I' for Inactive)
REMARK    1  A    between atoms: C_7  and  O_8
REMARK    2  A    between atoms: O_8  and  C_9
REMARK    3  A    between atoms: C_9  and  C_10
REMARK    4  A    between atoms: C_10  and  C_11
REMARK    5  A    between atoms: C_11  and  C_12
REMARK    6  A    between atoms: C_12  and  C_13
REMARK    7  A    between atoms: N_17  and  C_18
REMARK                            x       y       z     vdW  Elec       q    Type
REMARK                         _______ _______ _______ _____ _____    ______ ____
ROOT
ATOM      1  C   UNL     1     -11.805  13.068  65.362  0.00  0.00    +0.048 C 
ENDROOT
BRANCH   1   2
ATOM      2  C   UNL     1     -11.182  11.866  66.014  0.00  0.00    +0.205 C 
BRANCH   2   3
ATOM      3  O   UNL     1     -11.961  11.489  67.122  0.00  0.00    -0.475 OA
BRANCH   3  10
ATOM      4  O   UNL     1     -12.705   6.790  71.765  0.00  0.00    -0.273 OA
ATOM      5  C   UNL     1     -12.277   7.980  71.829  0.00  0.00    +0.246 C 
ATOM      6  N   UNL     1     -11.020   8.369  71.265  0.00  0.00    -0.180 NA
ATOM      7  C   UNL     1     -10.943   9.639  70.608  0.00  0.00    +0.070 A 
ATOM      8  C   UNL     1     -12.143  10.333  70.512  0.00  0.00    -0.003 A 
ATOM      9  C   UNL     1     -12.287  11.251  69.479  0.00  0.00    +0.034 A 
ATOM     10  C   UNL     1     -11.430  11.289  68.401  0.00  0.00    +0.138 A 
ATOM     11  C   UNL     1     -10.166  10.754  68.598  0.00  0.00    +0.038 A 
ATOM     12  C   UNL     1     -12.989  10.365  71.725  0.00  0.00    +0.037 C 
ATOM     13  C   UNL     1      -9.938   9.940  69.701  0.00  0.00    +0.019 A 
ATOM     14  C   UNL     1     -13.229   9.008  72.322  0.00  0.00    +0.092 C 
ENDBRANCH   3  10
ENDBRANCH   2   3
ENDBRANCH   1   2
BRANCH   1  15
ATOM     15  C   UNL     1     -10.878  14.255  65.307  0.00  0.00    +0.012 C 
BRANCH  15  16
ATOM     16  C   UNL     1     -10.176  14.492  66.616  0.00  0.00    +0.068 C 
BRANCH  16  17
ATOM     17  C   UNL     1     -10.982  15.340  67.547  0.00  0.00    +0.161 A 
ATOM     18  N   UNL     1     -10.769  16.628  67.902  0.00  0.00    -0.219 N 
ATOM     19  N   UNL     1     -11.314  16.769  69.102  0.00  0.00    -0.043 NA
ATOM     20  N   UNL     1     -11.848  15.644  69.519  0.00  0.00    -0.023 NA
ATOM     21  N   UNL     1     -11.853  14.843  68.458  0.00  0.00    -0.113 NA
BRANCH  18  22
ATOM     22  C   UNL     1      -9.720  17.421  67.275  0.00  0.00    +0.108 C 
ATOM     23  C   UNL     1     -10.221  18.251  66.134  0.00  0.00    +0.024 C 
ATOM     24  C   UNL     1     -10.698  19.617  66.539  0.00  0.00    +0.002 C 
ATOM     25  C   UNL     1      -9.703  20.332  67.447  0.00  0.00    +0.000 C 
ATOM     26  C   UNL     1      -9.624  19.481  68.709  0.00  0.00    +0.002 C 
ATOM     27  C   UNL     1      -8.926  18.192  68.290  0.00  0.00    +0.024 C 
ENDBRANCH  18  22
ENDBRANCH  16  17
ENDBRANCH  15  16
ENDBRANCH   1  15
TORSDOF 7
ENDMDL
MODEL 3
REMARK VINA RESULT:      -7.1      2.690      3.534
REMARK  Name = 
REMARK  7 active torsions:
REMARK  status: ('A' for Active; 'I' for Inactive)
REMARK    1  A    between atoms: C_7  and  O_8
REMARK    2  A    between atoms: O_8  and  C_9
REMARK    3  A    between atoms: C_9  and  C_10
REMARK    4  A    between atoms: C_10  and  C_11
REMARK    5  A    between atoms: C_11  and  C_12
REMARK    6  A    between atoms: C_12  and  C_13
REMARK    7  A    between atoms: N_17  and  C_18
REMARK                            x       y       z     vdW  Elec       q    Type
REMARK                         _______ _______ _______ _____ _____    ______ ____
ROOT
ATOM      1  C   UNL     1     -10.694  12.352  63.868  0.00  0.00    +0.048 C 
ENDROOT
BRANCH   1   2
ATOM      2  C   UNL     1     -10.328  11.004  64.423  0.00  0.00    +0.205 C 
BRANCH   2   3
ATOM      3  O   UNL     1     -11.057  10.781  65.604  0.00  0.00    -0.475 OA
BRANCH   3  10
ATOM      4  O   UNL     1     -11.893   8.050  71.607  0.00  0.00    -0.273 OA
ATOM      5  C   UNL     1     -11.469   9.188  71.248  0.00  0.00    +0.246 C 
ATOM      6  N   UNL     1     -10.200   9.361  70.607  0.00  0.00    -0.180 NA
ATOM      7  C   UNL     1     -10.112  10.312  69.540  0.00  0.00    +0.070 A 
ATOM      8  C   UNL     1     -11.312  10.914  69.178  0.00  0.00    -0.003 A 
ATOM      9  C   UNL     1     -11.434  11.400  67.883  0.00  0.00    +0.034 A 
ATOM     10  C   UNL     1     -10.554  11.057  66.879  0.00  0.00    +0.138 A 
ATOM     11  C   UNL     1      -9.293  10.641  67.280  0.00  0.00    +0.038 A 
ATOM     12  C   UNL     1     -12.184  11.370  70.283  0.00  0.00    +0.037 C 
ATOM     13  C   UNL     1      -9.088  10.279  68.606  0.00  0.00    +0.019 A 
ATOM     14  C   UNL     1     -12.434  10.314  71.321  0.00  0.00    +0.092 C 
ENDBRANCH   3  10
ENDBRANCH   2   3
ENDBRANCH   1   2
BRANCH   1  15
ATOM     15  C   UNL     1     -12.165  12.660  63.989  0.00  0.00    +0.012 C 
BRANCH  15  16
ATOM     16  C   UNL     1     -12.439  13.759  64.978  0.00  0.00    +0.068 C 
BRANCH  16  17
ATOM     17  C   UNL     1     -11.541  14.937  64.778  0.00  0.00    +0.161 A 
ATOM     18  N   UNL     1     -10.599  15.425  65.620  0.00  0.00    -0.219 N 
ATOM     19  N   UNL     1     -10.490  16.715  65.335  0.00  0.00    -0.043 NA
ATOM     20  N   UNL     1     -11.312  17.063  64.372  0.00  0.00    -0.023 NA
ATOM     21  N   UNL     1     -11.773  15.919  63.875  0.00  0.00    -0.113 NA
BRANCH  18  22
ATOM     22  C   UNL     1     -10.253  14.727  66.850  0.00  0.00    +0.108 C 
ATOM     23  C   UNL     1      -8.787  14.438  66.964  0.00  0.00    +0.024 C 
ATOM     24  C   UNL     1      -8.002  15.532  67.630  0.00  0.00    +0.002 C 
ATOM     25  C   UNL     1      -8.651  16.004  68.926  0.00  0.00    +0.000 C 
ATOM     26  C   UNL     1      -9.997  16.592  68.514  0.00  0.00    +0.002 C 
ATOM     27  C   UNL     1     -10.836  15.405  68.056  0.00  0.00    +0.024 C 
ENDBRANCH  18  22
ENDBRANCH  16  17
ENDBRANCH  15  16
ENDBRANCH   1  15
TORSDOF 7
ENDMDL
MODEL 4
REMARK VINA RESULT:      -7.0      1.871      2.602
REMARK  Name = 
REMARK  7 active torsions:
REMARK  status: ('A' for Active; 'I' for Inactive)
REMARK    1  A    between atoms: C_7  and  O_8
REMARK    2  A    between atoms: O_8  and  C_9
REMARK    3  A    between atoms: C_9  and  C_10
REMARK    4  A    between atoms: C_10  and  C_11
REMARK    5  A    between atoms: C_11  and  C_12
REMARK    6  A    between atoms: C_12  and  C_13
REMARK    7  A    between atoms: N_17  and  C_18
REMARK                            x       y       z     vdW  Elec       q    Type
REMARK                         _______ _______ _______ _____ _____    ______ ____
ROOT
ATOM      1  C   UNL     1     -10.750  12.632  65.190  0.00  0.00    +0.048 C 
ENDROOT
BRANCH   1   2
ATOM      2  C   UNL     1     -11.998  12.596  66.026  0.00  0.00    +0.205 C 
BRANCH   2   3
ATOM      3  O   UNL     1     -11.864  11.602  67.010  0.00  0.00    -0.475 OA
BRANCH   3  10
ATOM      4  O   UNL     1     -14.736  15.477  71.585  0.00  0.00    -0.273 OA
ATOM      5  C   UNL     1     -13.580  14.964  71.518  0.00  0.00    +0.246 C 
ATOM      6  N   UNL     1     -13.359  13.558  71.671  0.00  0.00    -0.180 NA
ATOM      7  C   UNL     1     -12.385  12.936  70.825  0.00  0.00    +0.070 A 
ATOM      8  C   UNL     1     -11.809  13.765  69.870  0.00  0.00    -0.003 A 
ATOM      9  C   UNL     1     -11.301  13.179  68.717  0.00  0.00    +0.034 A 
ATOM     10  C   UNL     1     -11.599  11.884  68.354  0.00  0.00    +0.138 A 
ATOM     11  C   UNL     1     -11.988  11.031  69.376  0.00  0.00    +0.038 A 
ATOM     12  C   UNL     1     -11.399  15.113  70.322  0.00  0.00    +0.037 C 
ATOM     13  C   UNL     1     -12.371  11.568  70.599  0.00  0.00    +0.019 A 
ATOM     14  C   UNL     1     -12.482  15.851  71.055  0.00  0.00    +0.092 C 
ENDBRANCH   3  10
ENDBRANCH   2   3
ENDBRANCH   1   2
BRANCH   1  15
ATOM     15  C   UNL     1     -10.382  14.024  64.742  0.00  0.00    +0.012 C 
BRANCH  15  16
ATOM     16  C   UNL     1     -10.692  15.061  65.786  0.00  0.00    +0.068 C 
BRANCH  16  17
ATOM     17  C   UNL     1      -9.505  15.379  66.638  0.00  0.00    +0.161 A 
ATOM     18  N   UNL     1      -9.275  16.495  67.370  0.00  0.00    -0.219 N 
ATOM     19  N   UNL     1      -7.958  16.605  67.460  0.00  0.00    -0.043 NA
ATOM     20  N   UNL     1      -7.352  15.629  66.822  0.00  0.00    -0.023 NA
ATOM     21  N   UNL     1      -8.309  14.754  66.531  0.00  0.00    -0.113 NA
BRANCH  18  22
ATOM     22  C   UNL     1     -10.291  17.528  67.510  0.00  0.00    +0.108 C 
ATOM     23  C   UNL     1     -10.151  18.317  68.775  0.00  0.00    +0.024 C 
ATOM     24  C   UNL     1      -9.265  19.523  68.645  0.00  0.00    +0.002 C 
ATOM     25  C   UNL     1      -9.604  20.361  67.417  0.00  0.00    +0.000 C 
ATOM     26  C   UNL     1      -9.328  19.457  66.221  0.00  0.00    +0.002 C 
ATOM     27  C   UNL     1     -10.397  18.373  66.273  0.00  0.00    +0.024 C 
ENDBRANCH  18  22
ENDBRANCH  16  17
ENDBRANCH  15  16
ENDBRANCH   1  15
TORSDOF 7
ENDMDL
MODEL 5
REMARK VINA RESULT:      -6.8      2.764      4.297
REMARK  Name = 
REMARK  7 active torsions:
REMARK  status: ('A' for Active; 'I' for Inactive)
REMARK    1  A    between atoms: C_7  and  O_8
REMARK    2  A    between atoms: O_8  and  C_9
REMARK    3  A    between atoms: C_9  and  C_10
REMARK    4  A    between atoms: C_10  and  C_11
REMARK    5  A    between atoms: C_11  and  C_12
REMARK    6  A    between atoms: C_12  and  C_13
REMARK    7  A    between atoms: N_17  and  C_18
REMARK                            x       y       z     vdW  Elec       q    Type
REMARK                         _______ _______ _______ _____ _____    ______ ____
ROOT
ATOM      1  C   UNL     1     -10.919  12.075  66.914  0.00  0.00    +0.048 C 
ENDROOT
BRANCH   1   2
ATOM      2  C   UNL     1     -10.034  12.307  68.106  0.00  0.00    +0.205 C 
BRANCH   2   3
ATOM      3  O   UNL     1      -9.829  11.085  68.770  0.00  0.00    -0.475 OA
BRANCH   3  10
ATOM      4  O   UNL     1     -10.301   6.835  73.860  0.00  0.00    -0.273 OA
ATOM      5  C   UNL     1     -11.030   7.017  72.841  0.00  0.00    +0.246 C 
ATOM      6  N   UNL     1     -11.843   8.185  72.684  0.00  0.00    -0.180 NA
ATOM      7  C   UNL     1     -11.934   8.768  71.379  0.00  0.00    +0.070 A 
ATOM      8  C   UNL     1     -11.140   8.175  70.405  0.00  0.00    -0.003 A 
ATOM      9  C   UNL     1     -10.752   8.948  69.318  0.00  0.00    +0.034 A 
ATOM     10  C   UNL     1     -10.869  10.321  69.309  0.00  0.00    +0.138 A 
ATOM     11  C   UNL     1     -11.816  10.865  70.164  0.00  0.00    +0.038 A 
ATOM     12  C   UNL     1     -11.123   6.696  70.373  0.00  0.00    +0.037 C 
ATOM     13  C   UNL     1     -12.339  10.079  71.185  0.00  0.00    +0.019 A 
ATOM     14  C   UNL     1     -10.845   6.072  71.710  0.00  0.00    +0.092 C 
ENDBRANCH   3  10
ENDBRANCH   2   3
ENDBRANCH   1   2
BRANCH   1  15
ATOM     15  C   UNL     1     -11.884  13.207  66.669  0.00  0.00    +0.012 C 
BRANCH  15  16
ATOM     16  C   UNL     1     -11.296  14.546  67.022  0.00  0.00    +0.068 C 
BRANCH  16  17
ATOM     17  C   UNL     1     -11.043  15.390  65.815  0.00  0.00    +0.161 A 
ATOM     18  N   UNL     1     -10.549  16.649  65.762  0.00  0.00    -0.219 N 
ATOM     19  N   UNL     1     -11.028  17.181  64.647  0.00  0.00    -0.043 NA
ATOM     20  N   UNL     1     -11.797  16.332  64.004  0.00  0.00    -0.023 NA
ATOM     21  N   UNL     1     -11.602  15.161  64.603  0.00  0.00    -0.113 NA
BRANCH  18  22
ATOM     22  C   UNL     1     -10.063  17.320  66.960  0.00  0.00    +0.108 C 
ATOM     23  C   UNL     1      -8.571  17.286  67.082  0.00  0.00    +0.024 C 
ATOM     24  C   UNL     1      -7.880  18.447  66.426  0.00  0.00    +0.002 C 
ATOM     25  C   UNL     1      -8.511  19.783  66.802  0.00  0.00    +0.000 C 
ATOM     26  C   UNL     1      -9.933  19.728  66.256  0.00  0.00    +0.002 C 
ATOM     27  C   UNL     1     -10.656  18.691  67.108  0.00  0.00    +0.024 C 
ENDBRANCH  18  22
ENDBRANCH  16  17
ENDBRANCH  15  16
ENDBRANCH   1  15
TORSDOF 7
ENDMDL
MODEL 6
REMARK VINA RESULT:      -6.8      2.946      3.890
REMARK  Name = 
REMARK  7 active torsions:
REMARK  status: ('A' for Active; 'I' for Inactive)
REMARK    1  A    between atoms: C_7  and  O_8
REMARK    2  A    between atoms: O_8  and  C_9
REMARK    3  A    between atoms: C_9  and  C_10
REMARK    4  A    between atoms: C_10  and  C_11
REMARK    5  A    between atoms: C_11  and  C_12
REMARK    6  A    between atoms: C_12  and  C_13
REMARK    7  A    between atoms: N_17  and  C_18
REMARK                            x       y       z     vdW  Elec       q    Type
REMARK                         _______ _______ _______ _____ _____    ______ ____
ROOT
ATOM      1  C   UNL     1      -9.565  10.562  65.309  0.00  0.00    +0.048 C 
ENDROOT
BRANCH   1   2
ATOM      2  C   UNL     1     -10.546   9.912  66.244  0.00  0.00    +0.205 C 
BRANCH   2   3
ATOM      3  O   UNL     1     -11.012  10.871  67.159  0.00  0.00    -0.475 OA
BRANCH   3  10
ATOM      4  O   UNL     1     -12.860   6.713  72.006  0.00  0.00    -0.273 OA
ATOM      5  C   UNL     1     -12.413   7.897  72.034  0.00  0.00    +0.246 C 
ATOM      6  N   UNL     1     -11.054   8.207  71.707  0.00  0.00    -0.180 NA
ATOM      7  C   UNL     1     -10.800   9.398  70.953  0.00  0.00    +0.070 A 
ATOM      8  C   UNL     1     -11.930  10.092  70.537  0.00  0.00    -0.003 A 
ATOM      9  C   UNL     1     -11.826  10.894  69.407  0.00  0.00    +0.034 A 
ATOM     10  C   UNL     1     -10.764  10.804  68.534  0.00  0.00    +0.138 A 
ATOM     11  C   UNL     1      -9.587  10.279  69.045  0.00  0.00    +0.038 A 
ATOM     12  C   UNL     1     -13.007  10.265  71.537  0.00  0.00    +0.037 C 
ATOM     13  C   UNL     1      -9.620   9.587  70.250  0.00  0.00    +0.019 A 
ATOM     14  C   UNL     1     -13.411   8.983  72.208  0.00  0.00    +0.092 C 
ENDBRANCH   3  10
ENDBRANCH   2   3
ENDBRANCH   1   2
BRANCH   1  15
ATOM     15  C   UNL     1     -10.094  10.700  63.903  0.00  0.00    +0.012 C 
BRANCH  15  16
ATOM     16  C   UNL     1     -10.136  12.132  63.447  0.00  0.00    +0.068 C 
BRANCH  16  17
ATOM     17  C   UNL     1     -11.289  12.880  64.035  0.00  0.00    +0.161 A 
ATOM     18  N   UNL     1     -11.262  13.873  64.955  0.00  0.00    -0.219 N 
ATOM     19  N   UNL     1     -12.429  13.821  65.581  0.00  0.00    -0.043 NA
ATOM     20  N   UNL     1     -13.180  12.851  65.111  0.00  0.00    -0.023 NA
ATOM     21  N   UNL     1     -12.570  12.440  64.004  0.00  0.00    -0.113 NA
BRANCH  18  22
ATOM     22  C   UNL     1     -10.002  14.442  65.414  0.00  0.00    +0.108 C 
ATOM     23  C   UNL     1     -10.018  15.939  65.452  0.00  0.00    +0.024 C 
ATOM     24  C   UNL     1     -10.492  16.509  66.759  0.00  0.00    +0.002 C 
ATOM     25  C   UNL     1      -9.808  15.858  67.956  0.00  0.00    +0.000 C 
ATOM     26  C   UNL     1     -10.230  14.393  67.916  0.00  0.00    +0.002 C 
ATOM     27  C   UNL     1      -9.539  13.803  66.692  0.00  0.00    +0.024 C 
ENDBRANCH  18  22
ENDBRANCH  16  17
ENDBRANCH  15  16
ENDBRANCH   1  15
TORSDOF 7
ENDMDL
MODEL 7
REMARK VINA RESULT:      -6.7      2.770      3.909
REMARK  Name = 
REMARK  7 active torsions:
REMARK  status: ('A' for Active; 'I' for Inactive)
REMARK    1  A    between atoms: C_7  and  O_8
REMARK    2  A    between atoms: O_8  and  C_9
REMARK    3  A    between atoms: C_9  and  C_10
REMARK    4  A    between atoms: C_10  and  C_11
REMARK    5  A    between atoms: C_11  and  C_12
REMARK    6  A    between atoms: C_12  and  C_13
REMARK    7  A    between atoms: N_17  and  C_18
REMARK                            x       y       z     vdW  Elec       q    Type
REMARK                         _______ _______ _______ _____ _____    ______ ____
ROOT
ATOM      1  C   UNL     1     -10.389   8.627  69.492  0.00  0.00    +0.048 C 
ENDROOT
BRANCH   1   2
ATOM      2  C   UNL     1     -10.133   9.746  70.462  0.00  0.00    +0.205 C 
BRANCH   2   3
ATOM      3  O   UNL     1     -11.357  10.175  71.002  0.00  0.00    -0.475 OA
BRANCH   3  10
ATOM      4  O   UNL     1     -11.795  16.538  72.877  0.00  0.00    -0.273 OA
ATOM      5  C   UNL     1     -12.544  15.817  72.154  0.00  0.00    +0.246 C 
ATOM      6  N   UNL     1     -12.154  15.383  70.847  0.00  0.00    -0.180 NA
ATOM      7  C   UNL     1     -12.495  14.049  70.453  0.00  0.00    +0.070 A 
ATOM      8  C   UNL     1     -13.105  13.276  71.434  0.00  0.00    -0.003 A 
ATOM      9  C   UNL     1     -12.982  11.895  71.348  0.00  0.00    +0.034 A 
ATOM     10  C   UNL     1     -12.060  11.286  70.525  0.00  0.00    +0.138 A 
ATOM     11  C   UNL     1     -11.617  12.027  69.439  0.00  0.00    +0.038 A 
ATOM     12  C   UNL     1     -14.169  13.930  72.227  0.00  0.00    +0.037 C 
ATOM     13  C   UNL     1     -11.844  13.398  69.416  0.00  0.00    +0.019 A 
ATOM     14  C   UNL     1     -13.757  15.255  72.801  0.00  0.00    +0.092 C 
ENDBRANCH   3  10
ENDBRANCH   2   3
ENDBRANCH   1   2
BRANCH   1  15
ATOM     15  C   UNL     1      -9.759   8.862  68.142  0.00  0.00    +0.012 C 
BRANCH  15  16
ATOM     16  C   UNL     1     -10.707   9.519  67.177  0.00  0.00    +0.068 C 
BRANCH  16  17
ATOM     17  C   UNL     1     -10.007  10.043  65.964  0.00  0.00    +0.161 A 
ATOM     18  N   UNL     1     -10.156  11.250  65.368  0.00  0.00    -0.219 N 
ATOM     19  N   UNL     1      -9.831  11.069  64.096  0.00  0.00    -0.043 NA
ATOM     20  N   UNL     1      -9.494   9.821  63.862  0.00  0.00    -0.023 NA
ATOM     21  N   UNL     1      -9.372   9.260  65.061  0.00  0.00    -0.113 NA
BRANCH  18  22
ATOM     22  C   UNL     1     -10.990  12.287  65.961  0.00  0.00    +0.108 C 
ATOM     23  C   UNL     1     -10.250  13.568  66.191  0.00  0.00    +0.024 C 
ATOM     24  C   UNL     1     -10.296  14.514  65.025  0.00  0.00    +0.002 C 
ATOM     25  C   UNL     1     -11.708  14.694  64.480  0.00  0.00    +0.000 C 
ATOM     26  C   UNL     1     -12.123  13.318  63.970  0.00  0.00    +0.002 C 
ATOM     27  C   UNL     1     -12.282  12.453  65.215  0.00  0.00    +0.024 C 
ENDBRANCH  18  22
ENDBRANCH  16  17
ENDBRANCH  15  16
ENDBRANCH   1  15
TORSDOF 7
ENDMDL
MODEL 8
REMARK VINA RESULT:      -6.7      2.143      4.432
REMARK  Name = 
REMARK  7 active torsions:
REMARK  status: ('A' for Active; 'I' for Inactive)
REMARK    1  A    between atoms: C_7  and  O_8
REMARK    2  A    between atoms: O_8  and  C_9
REMARK    3  A    between atoms: C_9  and  C_10
REMARK    4  A    between atoms: C_10  and  C_11
REMARK    5  A    between atoms: C_11  and  C_12
REMARK    6  A    between atoms: C_12  and  C_13
REMARK    7  A    between atoms: N_17  and  C_18
REMARK                            x       y       z     vdW  Elec       q    Type
REMARK                         _______ _______ _______ _____ _____    ______ ____
ROOT
ATOM      1  C   UNL     1      -9.981  15.771  66.089  0.00  0.00    +0.048 C 
ENDROOT
BRANCH   1   2
ATOM      2  C   UNL     1     -10.465  16.501  67.311  0.00  0.00    +0.205 C 
BRANCH   2   3
ATOM      3  O   UNL     1      -9.732  16.064  68.427  0.00  0.00    -0.475 OA
BRANCH   3  10
ATOM      4  O   UNL     1     -15.623  15.536  71.463  0.00  0.00    -0.273 OA
ATOM      5  C   UNL     1     -14.474  15.099  71.767  0.00  0.00    +0.246 C 
ATOM      6  N   UNL     1     -13.842  14.042  71.037  0.00  0.00    -0.180 NA
ATOM      7  C   UNL     1     -12.433  14.141  70.797  0.00  0.00    +0.070 A 
ATOM      8  C   UNL     1     -11.836  15.318  71.234  0.00  0.00    -0.003 A 
ATOM      9  C   UNL     1     -10.671  15.733  70.601  0.00  0.00    +0.034 A 
ATOM     10  C   UNL     1     -10.255  15.204  69.399  0.00  0.00    +0.138 A 
ATOM     11  C   UNL     1     -10.724  13.937  69.086  0.00  0.00    +0.038 A 
ATOM     12  C   UNL     1     -12.225  15.799  72.578  0.00  0.00    +0.037 C 
ATOM     13  C   UNL     1     -11.805  13.421  69.793  0.00  0.00    +0.019 A 
ATOM     14  C   UNL     1     -13.711  15.874  72.779  0.00  0.00    +0.092 C 
ENDBRANCH   3  10
ENDBRANCH   2   3
ENDBRANCH   1   2
BRANCH   1  15
ATOM     15  C   UNL     1     -11.106  15.250  65.231  0.00  0.00    +0.012 C 
BRANCH  15  16
ATOM     16  C   UNL     1     -11.914  14.191  65.929  0.00  0.00    +0.068 C 
BRANCH  16  17
ATOM     17  C   UNL     1     -12.110  12.976  65.080  0.00  0.00    +0.161 A 
ATOM     18  N   UNL     1     -11.379  11.836  65.067  0.00  0.00    -0.219 N 
ATOM     19  N   UNL     1     -11.516  11.330  63.850  0.00  0.00    -0.043 NA
ATOM     20  N   UNL     1     -12.282  12.090  63.100  0.00  0.00    -0.023 NA
ATOM     21  N   UNL     1     -12.835  12.963  63.936  0.00  0.00    -0.113 NA
BRANCH  18  22
ATOM     22  C   UNL     1     -10.318  11.609  66.039  0.00  0.00    +0.108 C 
ATOM     23  C   UNL     1     -10.796  10.902  67.269  0.00  0.00    +0.024 C 
ATOM     24  C   UNL     1     -10.722   9.405  67.177  0.00  0.00    +0.002 C 
ATOM     25  C   UNL     1      -9.372   8.922  66.660  0.00  0.00    +0.000 C 
ATOM     26  C   UNL     1      -9.260   9.474  65.243  0.00  0.00    +0.002 C 
ATOM     27  C   UNL     1      -9.110  10.982  65.404  0.00  0.00    +0.024 C 
ENDBRANCH  18  22
ENDBRANCH  16  17
ENDBRANCH  15  16
ENDBRANCH   1  15
TORSDOF 7
ENDMDL
MODEL 9
REMARK VINA RESULT:      -6.6      2.714      3.822
REMARK  Name = 
REMARK  7 active torsions:
REMARK  status: ('A' for Active; 'I' for Inactive)
REMARK    1  A    between atoms: C_7  and  O_8
REMARK    2  A    between atoms: O_8  and  C_9
REMARK    3  A    between atoms: C_9  and  C_10
REMARK    4  A    between atoms: C_10  and  C_11
REMARK    5  A    between atoms: C_11  and  C_12
REMARK    6  A    between atoms: C_12  and  C_13
REMARK    7  A    between atoms: N_17  and  C_18
REMARK                            x       y       z     vdW  Elec       q    Type
REMARK                         _______ _______ _______ _____ _____    ______ ____
ROOT
ATOM      1  C   UNL     1     -10.033  14.573  65.789  0.00  0.00    +0.048 C 
ENDROOT
BRANCH   1   2
ATOM      2  C   UNL     1     -11.487  14.673  65.424  0.00  0.00    +0.205 C 
BRANCH   2   3
ATOM      3  O   UNL     1     -12.255  14.042  66.418  0.00  0.00    -0.475 OA
BRANCH   3  10
ATOM      4  O   UNL     1     -14.605  13.417  72.605  0.00  0.00    -0.273 OA
ATOM      5  C   UNL     1     -13.424  13.449  72.149  0.00  0.00    +0.246 C 
ATOM      6  N   UNL     1     -12.875  12.374  71.379  0.00  0.00    -0.180 NA
ATOM      7  C   UNL     1     -12.043  12.705  70.262  0.00  0.00    +0.070 A 
ATOM      8  C   UNL     1     -11.926  14.063  69.989  0.00  0.00    -0.003 A 
ATOM      9  C   UNL     1     -11.621  14.444  68.688  0.00  0.00    +0.034 A 
ATOM     10  C   UNL     1     -11.718  13.576  67.622  0.00  0.00    +0.138 A 
ATOM     11  C   UNL     1     -11.637  12.224  67.918  0.00  0.00    +0.038 A 
ATOM     12  C   UNL     1     -11.712  14.956  71.149  0.00  0.00    +0.037 C 
ATOM     13  C   UNL     1     -11.796  11.807  69.235  0.00  0.00    +0.019 A 
ATOM     14  C   UNL     1     -12.700  14.741  72.259  0.00  0.00    +0.092 C 
ENDBRANCH   3  10
ENDBRANCH   2   3
ENDBRANCH   1   2
BRANCH   1  15
ATOM     15  C   UNL     1      -9.330  15.907  65.781  0.00  0.00    +0.012 C 
BRANCH  15  16
ATOM     16  C   UNL     1      -9.245  16.515  67.154  0.00  0.00    +0.068 C 
BRANCH  16  17
ATOM     17  C   UNL     1      -9.593  17.969  67.152  0.00  0.00    +0.161 A 
ATOM     18  N   UNL     1      -8.755  19.031  67.207  0.00  0.00    -0.219 N 
ATOM     19  N   UNL     1      -9.453  20.017  67.753  0.00  0.00    -0.043 NA
ATOM     20  N   UNL     1     -10.674  19.631  68.049  0.00  0.00    -0.023 NA
ATOM     21  N   UNL     1     -10.822  18.451  67.454  0.00  0.00    -0.113 NA
BRANCH  18  22
ATOM     22  C   UNL     1      -7.311  18.856  67.148  0.00  0.00    +0.108 C 
ATOM     23  C   UNL     1      -6.626  19.929  66.358  0.00  0.00    +0.024 C 
ATOM     24  C   UNL     1      -6.221  21.121  67.176  0.00  0.00    +0.002 C 
ATOM     25  C   UNL     1      -5.496  20.726  68.458  0.00  0.00    +0.000 C 
ATOM     26  C   UNL     1      -6.515  19.936  69.272  0.00  0.00    +0.002 C 
ATOM     27  C   UNL     1      -6.723  18.632  68.511  0.00  0.00    +0.024 C 
ENDBRANCH  18  22
ENDBRANCH  16  17
ENDBRANCH  15  16
ENDBRANCH   1  15
TORSDOF 7
ENDMDL
