MODEL 1
REMARK VINA RESULT:      -7.5      0.000      0.000
REMARK  Name = 
REMARK  5 active torsions:
REMARK  status: ('A' for Active; 'I' for Inactive)
REMARK    1  A    between atoms: C_2  and  C_3
REMARK    2  A    between atoms: C_4  and  C_5
REMARK    3  A    between atoms: C_9  and  S_10
REMARK    4  A    between atoms: S_10  and  N_13
REMARK    5  A    between atoms: N_13  and  C_14
REMARK                            x       y       z     vdW  Elec       q    Type
REMARK                         _______ _______ _______ _____ _____    ______ ____
ROOT
ATOM      1  C   UNL     1      -8.467  19.369  68.372  0.00  0.00    +0.001 A 
ATOM      2  C   UNL     1      -8.988  18.113  68.666  0.00  0.00    +0.020 A 
ATOM      3  C   UNL     1     -10.127  17.640  68.027  0.00  0.00    +0.127 A 
ATOM      4  C   UNL     1     -10.534  18.246  66.844  0.00  0.00    +0.020 A 
ATOM      5  C   UNL     1     -10.244  19.601  66.742  0.00  0.00    +0.001 A 
ATOM      6  C   UNL     1      -9.283  20.162  67.575  0.00  0.00    +0.000 A 
ENDROOT
BRANCH   3   7
ATOM      7  S   UNL     1     -10.711  16.022  68.382  0.00  0.00    +0.093 S 
ATOM      8  O   UNL     1     -11.143  15.372  67.093  0.00  0.00    -0.148 OA
ATOM      9  O   UNL     1      -9.650  15.184  69.023  0.00  0.00    -0.148 OA
BRANCH   7  10
ATOM     10  N   UNL     1     -12.121  16.079  69.391  0.00  0.00    -0.097 NA
BRANCH  10  11
ATOM     11  C   UNL     1     -12.120  15.467  70.685  0.00  0.00    +0.091 A 
ATOM     12  C   UNL     1     -11.761  16.165  71.831  0.00  0.00    +0.018 A 
ATOM     13  C   UNL     1     -12.498  16.027  73.000  0.00  0.00    +0.001 A 
ATOM     14  C   UNL     1     -13.001  14.770  73.256  0.00  0.00    +0.000 A 
ATOM     15  C   UNL     1     -13.286  13.954  72.170  0.00  0.00    +0.001 A 
ATOM     16  C   UNL     1     -12.887  14.330  70.893  0.00  0.00    +0.018 A 
ENDBRANCH  10  11
ENDBRANCH   7  10
ENDBRANCH   3   7
BRANCH   1  18
ATOM     17  C   UNL     1      -6.282  19.134  69.459  0.00  0.00    +0.025 C 
ATOM     18  C   UNL     1      -7.022  19.599  68.479  0.00  0.00    +0.002 C 
BRANCH  17  20
ATOM     19  O   UNL     1      -5.364  21.187  70.151  0.00  0.00    -0.536 OA
ATOM     20  C   UNL     1      -5.299  19.940  70.188  0.00  0.00    +0.110 C 
ATOM     21  N   UNL     1      -4.414  19.364  71.154  0.00  0.00    -0.198 NA
ATOM     22  O   UNL     1      -4.157  19.962  72.348  0.00  0.00    -0.402 OA
ENDBRANCH  17  20
ENDBRANCH   1  18
TORSDOF 5
ENDMDL
MODEL 2
REMARK VINA RESULT:      -7.5      3.370      6.947
REMARK  Name = 
REMARK  5 active torsions:
REMARK  status: ('A' for Active; 'I' for Inactive)
REMARK    1  A    between atoms: C_2  and  C_3
REMARK    2  A    between atoms: C_4  and  C_5
REMARK    3  A    between atoms: C_9  and  S_10
REMARK    4  A    between atoms: S_10  and  N_13
REMARK    5  A    between atoms: N_13  and  C_14
REMARK                            x       y       z     vdW  Elec       q    Type
REMARK                         _______ _______ _______ _____ _____    ______ ____
ROOT
ATOM      1  C   UNL     1     -11.688  15.094  69.532  0.00  0.00    +0.001 A 
ATOM      2  C   UNL     1     -11.146  15.949  68.579  0.00  0.00    +0.020 A 
ATOM      3  C   UNL     1     -10.889  15.513  67.285  0.00  0.00    +0.127 A 
ATOM      4  C   UNL     1     -11.503  14.351  66.834  0.00  0.00    +0.020 A 
ATOM      5  C   UNL     1     -11.747  13.391  67.809  0.00  0.00    +0.001 A 
ATOM      6  C   UNL     1     -11.739  13.759  69.150  0.00  0.00    +0.000 A 
ENDROOT
BRANCH   3   7
ATOM      7  S   UNL     1     -10.266  16.646  66.097  0.00  0.00    +0.093 S 
ATOM      8  O   UNL     1      -8.775  16.453  65.982  0.00  0.00    -0.148 OA
ATOM      9  O   UNL     1     -10.892  16.434  64.754  0.00  0.00    -0.148 OA
BRANCH   7  10
ATOM     10  N   UNL     1     -10.502  18.284  66.617  0.00  0.00    -0.097 NA
BRANCH  10  11
ATOM     11  C   UNL     1      -9.410  19.051  67.135  0.00  0.00    +0.091 A 
ATOM     12  C   UNL     1      -8.904  18.844  68.412  0.00  0.00    +0.018 A 
ATOM     13  C   UNL     1      -7.533  18.825  68.632  0.00  0.00    +0.001 A 
ATOM     14  C   UNL     1      -6.784  19.703  67.879  0.00  0.00    +0.000 A 
ATOM     15  C   UNL     1      -7.270  20.058  66.628  0.00  0.00    +0.001 A 
ATOM     16  C   UNL     1      -8.555  19.690  66.250  0.00  0.00    +0.018 A 
ENDBRANCH  10  11
ENDBRANCH   7  10
ENDBRANCH   3   7
BRANCH   1  18
ATOM     17  C   UNL     1     -12.117  15.980  71.777  0.00  0.00    +0.025 C 
ATOM     18  C   UNL     1     -12.552  15.636  70.587  0.00  0.00    +0.002 C 
BRANCH  17  20
ATOM     19  O   UNL     1     -13.207  14.433  73.175  0.00  0.00    -0.536 OA
ATOM     20  C   UNL     1     -12.780  15.597  73.027  0.00  0.00    +0.110 C 
ATOM     21  N   UNL     1     -12.737  16.427  74.193  0.00  0.00    -0.198 NA
ATOM     22  O   UNL     1     -12.523  15.918  75.435  0.00  0.00    -0.402 OA
ENDBRANCH  17  20
ENDBRANCH   1  18
TORSDOF 5
ENDMDL
MODEL 3
REMARK VINA RESULT:      -7.4      4.669      7.080
REMARK  Name = 
REMARK  5 active torsions:
REMARK  status: ('A' for Active; 'I' for Inactive)
REMARK    1  A    between atoms: C_2  and  C_3
REMARK    2  A    between atoms: C_4  and  C_5
REMARK    3  A    between atoms: C_9  and  S_10
REMARK    4  A    between atoms: S_10  and  N_13
REMARK    5  A    between atoms: N_13  and  C_14
REMARK                            x       y       z     vdW  Elec       q    Type
REMARK                         _______ _______ _______ _____ _____    ______ ____
ROOT
ATOM      1  C   UNL     1     -10.969  11.830  67.803  0.00  0.00    +0.001 A 
ATOM      2  C   UNL     1     -10.703  13.097  68.312  0.00  0.00    +0.020 A 
ATOM      3  C   UNL     1     -11.072  14.243  67.619  0.00  0.00    +0.127 A 
ATOM      4  C   UNL     1     -12.023  14.140  66.610  0.00  0.00    +0.020 A 
ATOM      5  C   UNL     1     -12.033  12.931  65.925  0.00  0.00    +0.001 A 
ATOM      6  C   UNL     1     -11.420  11.818  66.489  0.00  0.00    +0.000 A 
ENDROOT
BRANCH   3   7
ATOM      7  S   UNL     1     -10.774  15.820  68.331  0.00  0.00    +0.093 S 
ATOM      8  O   UNL     1      -9.486  15.760  69.113  0.00  0.00    -0.148 OA
ATOM      9  O   UNL     1     -10.664  16.883  67.285  0.00  0.00    -0.148 OA
BRANCH   7  10
ATOM     10  N   UNL     1     -12.014  16.229  69.474  0.00  0.00    -0.097 NA
BRANCH  10  11
ATOM     11  C   UNL     1     -12.103  15.549  70.731  0.00  0.00    +0.091 A 
ATOM     12  C   UNL     1     -11.783  16.173  71.930  0.00  0.00    +0.018 A 
ATOM     13  C   UNL     1     -12.586  16.000  73.050  0.00  0.00    +0.001 A 
ATOM     14  C   UNL     1     -13.144  14.751  73.211  0.00  0.00    +0.000 A 
ATOM     15  C   UNL     1     -13.396  14.004  72.069  0.00  0.00    +0.001 A 
ATOM     16  C   UNL     1     -12.917  14.431  70.837  0.00  0.00    +0.018 A 
ENDBRANCH  10  11
ENDBRANCH   7  10
ENDBRANCH   3   7
BRANCH   1  18
ATOM     17  C   UNL     1     -12.204  10.697  69.591  0.00  0.00    +0.025 C 
ATOM     18  C   UNL     1     -11.220  10.715  68.723  0.00  0.00    +0.002 C 
BRANCH  17  20
ATOM     19  O   UNL     1     -12.933  10.585  71.825  0.00  0.00    -0.536 OA
ATOM     20  C   UNL     1     -12.042  10.308  70.995  0.00  0.00    +0.110 C 
ATOM     21  N   UNL     1     -11.022   9.397  71.416  0.00  0.00    -0.198 NA
ATOM     22  O   UNL     1     -11.263   8.403  72.312  0.00  0.00    -0.402 OA
ENDBRANCH  17  20
ENDBRANCH   1  18
TORSDOF 5
ENDMDL
MODEL 4
REMARK VINA RESULT:      -7.3      3.235      7.321
REMARK  Name = 
REMARK  5 active torsions:
REMARK  status: ('A' for Active; 'I' for Inactive)
REMARK    1  A    between atoms: C_2  and  C_3
REMARK    2  A    between atoms: C_4  and  C_5
REMARK    3  A    between atoms: C_9  and  S_10
REMARK    4  A    between atoms: S_10  and  N_13
REMARK    5  A    between atoms: N_13  and  C_14
REMARK                            x       y       z     vdW  Elec       q    Type
REMARK                         _______ _______ _______ _____ _____    ______ ____
ROOT
ATOM      1  C   UNL     1     -11.747  14.860  69.491  0.00  0.00    +0.001 A 
ATOM      2  C   UNL     1     -11.258  16.048  68.959  0.00  0.00    +0.020 A 
ATOM      3  C   UNL     1     -10.750  16.101  67.667  0.00  0.00    +0.127 A 
ATOM      4  C   UNL     1     -11.061  15.078  66.780  0.00  0.00    +0.020 A 
ATOM      5  C   UNL     1     -11.243  13.827  67.358  0.00  0.00    +0.001 A 
ATOM      6  C   UNL     1     -11.487  13.731  68.723  0.00  0.00    +0.000 A 
ENDROOT
BRANCH   3   7
ATOM      7  S   UNL     1     -10.203  17.637  67.014  0.00  0.00    +0.093 S 
ATOM      8  O   UNL     1     -10.446  17.643  65.527  0.00  0.00    -0.148 OA
ATOM      9  O   UNL     1     -10.932  18.788  67.634  0.00  0.00    -0.148 OA
BRANCH   7  10
ATOM     10  N   UNL     1      -8.492  17.828  67.226  0.00  0.00    -0.097 NA
BRANCH  10  11
ATOM     11  C   UNL     1      -7.929  19.113  67.515  0.00  0.00    +0.091 A 
ATOM     12  C   UNL     1      -7.435  19.435  68.772  0.00  0.00    +0.018 A 
ATOM     13  C   UNL     1      -6.236  20.123  68.902  0.00  0.00    +0.001 A 
ATOM     14  C   UNL     1      -5.979  21.083  67.948  0.00  0.00    +0.000 A 
ATOM     15  C   UNL     1      -6.529  20.902  66.686  0.00  0.00    +0.001 A 
ATOM     16  C   UNL     1      -7.460  19.894  66.469  0.00  0.00    +0.018 A 
ENDBRANCH  10  11
ENDBRANCH   7  10
ENDBRANCH   3   7
BRANCH   1  18
ATOM     17  C   UNL     1     -12.875  15.744  71.480  0.00  0.00    +0.025 C 
ATOM     18  C   UNL     1     -12.834  14.897  70.477  0.00  0.00    +0.002 C 
BRANCH  17  20
ATOM     19  O   UNL     1     -13.377  14.153  73.139  0.00  0.00    -0.536 OA
ATOM     20  C   UNL     1     -13.189  15.355  72.858  0.00  0.00    +0.110 C 
ATOM     21  N   UNL     1     -13.042  16.264  73.954  0.00  0.00    -0.198 NA
ATOM     22  O   UNL     1     -12.490  15.887  75.138  0.00  0.00    -0.402 OA
ENDBRANCH  17  20
ENDBRANCH   1  18
TORSDOF 5
ENDMDL
MODEL 5
REMARK VINA RESULT:      -7.2      5.040      6.453
REMARK  Name = 
REMARK  5 active torsions:
REMARK  status: ('A' for Active; 'I' for Inactive)
REMARK    1  A    between atoms: C_2  and  C_3
REMARK    2  A    between atoms: C_4  and  C_5
REMARK    3  A    between atoms: C_9  and  S_10
REMARK    4  A    between atoms: S_10  and  N_13
REMARK    5  A    between atoms: N_13  and  C_14
REMARK                            x       y       z     vdW  Elec       q    Type
REMARK                         _______ _______ _______ _____ _____    ______ ____
ROOT
ATOM      1  C   UNL     1     -11.698  15.234  69.380  0.00  0.00    +0.001 A 
ATOM      2  C   UNL     1     -11.925  14.165  68.521  0.00  0.00    +0.020 A 
ATOM      3  C   UNL     1     -10.869  13.470  67.942  0.00  0.00    +0.127 A 
ATOM      4  C   UNL     1      -9.600  13.595  68.495  0.00  0.00    +0.020 A 
ATOM      5  C   UNL     1      -9.328  14.823  69.085  0.00  0.00    +0.001 A 
ATOM      6  C   UNL     1     -10.378  15.667  69.429  0.00  0.00    +0.000 A 
ENDROOT
BRANCH   3   7
ATOM      7  S   UNL     1     -11.203  12.085  66.916  0.00  0.00    +0.093 S 
ATOM      8  O   UNL     1     -12.278  12.464  65.930  0.00  0.00    -0.148 OA
ATOM      9  O   UNL     1      -9.983  11.649  66.168  0.00  0.00    -0.148 OA
BRANCH   7  10
ATOM     10  N   UNL     1     -11.841  10.765  67.843  0.00  0.00    -0.097 NA
BRANCH  10  11
ATOM     11  C   UNL     1     -11.401  10.534  69.186  0.00  0.00    +0.091 A 
ATOM     12  C   UNL     1     -12.245  10.700  70.277  0.00  0.00    +0.018 A 
ATOM     13  C   UNL     1     -12.254   9.771  71.309  0.00  0.00    +0.001 A 
ATOM     14  C   UNL     1     -11.037   9.214  71.635  0.00  0.00    +0.000 A 
ATOM     15  C   UNL     1     -10.084   9.109  70.630  0.00  0.00    +0.001 A 
ATOM     16  C   UNL     1     -10.294   9.728  69.404  0.00  0.00    +0.018 A 
ENDBRANCH  10  11
ENDBRANCH   7  10
ENDBRANCH   3   7
BRANCH   1  18
ATOM     17  C   UNL     1     -12.302  16.029  71.618  0.00  0.00    +0.025 C 
ATOM     18  C   UNL     1     -12.649  15.513  70.462  0.00  0.00    +0.002 C 
BRANCH  17  20
ATOM     19  O   UNL     1     -12.843  14.274  73.088  0.00  0.00    -0.536 OA
ATOM     20  C   UNL     1     -12.757  15.507  72.910  0.00  0.00    +0.110 C 
ATOM     21  N   UNL     1     -12.866  16.340  74.068  0.00  0.00    -0.198 NA
ATOM     22  O   UNL     1     -12.443  15.933  75.295  0.00  0.00    -0.402 OA
ENDBRANCH  17  20
ENDBRANCH   1  18
TORSDOF 5
ENDMDL
MODEL 6
REMARK VINA RESULT:      -7.1      3.988      6.857
REMARK  Name = 
REMARK  5 active torsions:
REMARK  status: ('A' for Active; 'I' for Inactive)
REMARK    1  A    between atoms: C_2  and  C_3
REMARK    2  A    between atoms: C_4  and  C_5
REMARK    3  A    between atoms: C_9  and  S_10
REMARK    4  A    between atoms: S_10  and  N_13
REMARK    5  A    between atoms: N_13  and  C_14
REMARK                            x       y       z     vdW  Elec       q    Type
REMARK                         _______ _______ _______ _____ _____    ______ ____
ROOT
ATOM      1  C   UNL     1     -11.593  14.631  69.456  0.00  0.00    +0.001 A 
ATOM      2  C   UNL     1     -11.211  15.183  68.239  0.00  0.00    +0.020 A 
ATOM      3  C   UNL     1     -11.104  14.401  67.096  0.00  0.00    +0.127 A 
ATOM      4  C   UNL     1     -11.725  13.157  67.073  0.00  0.00    +0.020 A 
ATOM      5  C   UNL     1     -11.805  12.512  68.301  0.00  0.00    +0.001 A 
ATOM      6  C   UNL     1     -11.641  13.242  69.473  0.00  0.00    +0.000 A 
ENDROOT
BRANCH   3   7
ATOM      7  S   UNL     1     -10.682  15.154  65.567  0.00  0.00    +0.093 S 
ATOM      8  O   UNL     1     -10.081  14.107  64.664  0.00  0.00    -0.148 OA
ATOM      9  O   UNL     1     -11.881  15.748  64.898  0.00  0.00    -0.148 OA
BRANCH   7  10
ATOM     10  N   UNL     1      -9.457  16.362  65.787  0.00  0.00    -0.097 NA
BRANCH  10  11
ATOM     11  C   UNL     1      -9.709  17.521  66.591  0.00  0.00    +0.091 A 
ATOM     12  C   UNL     1      -8.893  17.868  67.659  0.00  0.00    +0.018 A 
ATOM     13  C   UNL     1      -8.517  19.190  67.858  0.00  0.00    +0.001 A 
ATOM     14  C   UNL     1      -9.466  20.143  67.559  0.00  0.00    +0.000 A 
ATOM     15  C   UNL     1     -10.399  19.839  66.577  0.00  0.00    +0.001 A 
ATOM     16  C   UNL     1     -10.481  18.548  66.070  0.00  0.00    +0.018 A 
ENDBRANCH  10  11
ENDBRANCH   7  10
ENDBRANCH   3   7
BRANCH   1  18
ATOM     17  C   UNL     1     -11.903  15.713  71.634  0.00  0.00    +0.025 C 
ATOM     18  C   UNL     1     -12.337  15.446  70.424  0.00  0.00    +0.002 C 
BRANCH  17  20
ATOM     19  O   UNL     1     -13.459  14.594  72.998  0.00  0.00    -0.536 OA
ATOM     20  C   UNL     1     -12.730  15.596  72.838  0.00  0.00    +0.110 C 
ATOM     21  N   UNL     1     -12.552  16.458  73.967  0.00  0.00    -0.198 NA
ATOM     22  O   UNL     1     -12.568  15.991  75.244  0.00  0.00    -0.402 OA
ENDBRANCH  17  20
ENDBRANCH   1  18
TORSDOF 5
ENDMDL
MODEL 7
REMARK VINA RESULT:      -7.0      2.955      6.702
REMARK  Name = 
REMARK  5 active torsions:
REMARK  status: ('A' for Active; 'I' for Inactive)
REMARK    1  A    between atoms: C_2  and  C_3
REMARK    2  A    between atoms: C_4  and  C_5
REMARK    3  A    between atoms: C_9  and  S_10
REMARK    4  A    between atoms: S_10  and  N_13
REMARK    5  A    between atoms: N_13  and  C_14
REMARK                            x       y       z     vdW  Elec       q    Type
REMARK                         _______ _______ _______ _____ _____    ______ ____
ROOT
ATOM      1  C   UNL     1     -11.542  14.954  69.647  0.00  0.00    +0.001 A 
ATOM      2  C   UNL     1     -10.200  15.320  69.648  0.00  0.00    +0.020 A 
ATOM      3  C   UNL     1      -9.462  15.350  68.472  0.00  0.00    +0.127 A 
ATOM      4  C   UNL     1     -10.135  15.374  67.256  0.00  0.00    +0.020 A 
ATOM      5  C   UNL     1     -11.359  14.715  67.242  0.00  0.00    +0.001 A 
ATOM      6  C   UNL     1     -11.997  14.428  68.444  0.00  0.00    +0.000 A 
ENDROOT
BRANCH   3   7
ATOM      7  S   UNL     1      -7.789  15.882  68.512  0.00  0.00    +0.093 S 
ATOM      8  O   UNL     1      -7.035  15.029  69.501  0.00  0.00    -0.148 OA
ATOM      9  O   UNL     1      -7.142  15.763  67.168  0.00  0.00    -0.148 OA
BRANCH   7  10
ATOM     10  N   UNL     1      -7.670  17.512  69.092  0.00  0.00    -0.097 NA
BRANCH  10  11
ATOM     11  C   UNL     1      -8.315  18.585  68.396  0.00  0.00    +0.091 A 
ATOM     12  C   UNL     1      -7.811  19.101  67.209  0.00  0.00    +0.018 A 
ATOM     13  C   UNL     1      -8.662  19.392  66.151  0.00  0.00    +0.001 A 
ATOM     14  C   UNL     1      -9.901  19.892  66.486  0.00  0.00    +0.000 A 
ATOM     15  C   UNL     1     -10.438  19.519  67.711  0.00  0.00    +0.001 A 
ATOM     16  C   UNL     1      -9.659  18.830  68.633  0.00  0.00    +0.018 A 
ENDBRANCH  10  11
ENDBRANCH   7  10
ENDBRANCH   3   7
BRANCH   1  18
ATOM     17  C   UNL     1     -12.068  15.973  71.813  0.00  0.00    +0.025 C 
ATOM     18  C   UNL     1     -12.455  15.534  70.638  0.00  0.00    +0.002 C 
BRANCH  17  20
ATOM     19  O   UNL     1     -13.243  14.514  73.237  0.00  0.00    -0.536 OA
ATOM     20  C   UNL     1     -12.756  15.652  73.067  0.00  0.00    +0.110 C 
ATOM     21  N   UNL     1     -12.676  16.504  74.214  0.00  0.00    -0.198 NA
ATOM     22  O   UNL     1     -12.494  16.012  75.469  0.00  0.00    -0.402 OA
ENDBRANCH  17  20
ENDBRANCH   1  18
TORSDOF 5
ENDMDL
MODEL 8
REMARK VINA RESULT:      -7.0      3.481      7.424
REMARK  Name = 
REMARK  5 active torsions:
REMARK  status: ('A' for Active; 'I' for Inactive)
REMARK    1  A    between atoms: C_2  and  C_3
REMARK    2  A    between atoms: C_4  and  C_5
REMARK    3  A    between atoms: C_9  and  S_10
REMARK    4  A    between atoms: S_10  and  N_13
REMARK    5  A    between atoms: N_13  and  C_14
REMARK                            x       y       z     vdW  Elec       q    Type
REMARK                         _______ _______ _______ _____ _____    ______ ____
ROOT
ATOM      1  C   UNL     1     -11.249  15.396  69.585  0.00  0.00    +0.001 A 
ATOM      2  C   UNL     1     -10.781  16.298  68.636  0.00  0.00    +0.020 A 
ATOM      3  C   UNL     1     -10.706  15.954  67.292  0.00  0.00    +0.127 A 
ATOM      4  C   UNL     1     -11.432  14.860  66.837  0.00  0.00    +0.020 A 
ATOM      5  C   UNL     1     -11.609  13.839  67.764  0.00  0.00    +0.001 A 
ATOM      6  C   UNL     1     -11.419  14.099  69.116  0.00  0.00    +0.000 A 
ENDROOT
BRANCH   3   7
ATOM      7  S   UNL     1     -10.170  17.148  66.121  0.00  0.00    +0.093 S 
ATOM      8  O   UNL     1     -10.784  16.820  64.783  0.00  0.00    -0.148 OA
ATOM      9  O   UNL     1     -10.577  18.531  66.521  0.00  0.00    -0.148 OA
BRANCH   7  10
ATOM     10  N   UNL     1      -8.452  17.069  65.896  0.00  0.00    -0.097 NA
BRANCH  10  11
ATOM     11  C   UNL     1      -7.583  17.985  66.571  0.00  0.00    +0.091 A 
ATOM     12  C   UNL     1      -7.198  19.191  66.002  0.00  0.00    +0.018 A 
ATOM     13  C   UNL     1      -7.176  20.354  66.762  0.00  0.00    +0.001 A 
ATOM     14  C   UNL     1      -6.782  20.214  68.075  0.00  0.00    +0.000 A 
ATOM     15  C   UNL     1      -7.026  18.997  68.696  0.00  0.00    +0.001 A 
ATOM     16  C   UNL     1      -7.467  17.910  67.951  0.00  0.00    +0.018 A 
ENDBRANCH  10  11
ENDBRANCH   7  10
ENDBRANCH   3   7
BRANCH   1  18
ATOM     17  C   UNL     1     -12.600  15.114  71.611  0.00  0.00    +0.025 C 
ATOM     18  C   UNL     1     -11.949  15.891  70.776  0.00  0.00    +0.002 C 
BRANCH  17  20
ATOM     19  O   UNL     1     -14.098  16.221  73.048  0.00  0.00    -0.536 OA
ATOM     20  C   UNL     1     -13.945  15.408  72.112  0.00  0.00    +0.110 C 
ATOM     21  N   UNL     1     -15.122  14.996  71.410  0.00  0.00    -0.198 NA
ATOM     22  O   UNL     1     -16.195  15.816  71.252  0.00  0.00    -0.402 OA
ENDBRANCH  17  20
ENDBRANCH   1  18
TORSDOF 5
ENDMDL
MODEL 9
REMARK VINA RESULT:      -7.0      2.150      2.979
REMARK  Name = 
REMARK  5 active torsions:
REMARK  status: ('A' for Active; 'I' for Inactive)
REMARK    1  A    between atoms: C_2  and  C_3
REMARK    2  A    between atoms: C_4  and  C_5
REMARK    3  A    between atoms: C_9  and  S_10
REMARK    4  A    between atoms: S_10  and  N_13
REMARK    5  A    between atoms: N_13  and  C_14
REMARK                            x       y       z     vdW  Elec       q    Type
REMARK                         _______ _______ _______ _____ _____    ______ ____
ROOT
ATOM      1  C   UNL     1      -6.529  20.244  68.522  0.00  0.00    +0.001 A 
ATOM      2  C   UNL     1      -7.708  19.513  68.416  0.00  0.00    +0.020 A 
ATOM      3  C   UNL     1      -8.323  19.314  67.186  0.00  0.00    +0.127 A 
ATOM      4  C   UNL     1      -7.586  19.520  66.026  0.00  0.00    +0.020 A 
ATOM      5  C   UNL     1      -6.603  20.498  66.113  0.00  0.00    +0.001 A 
ATOM      6  C   UNL     1      -6.159  20.915  67.363  0.00  0.00    +0.000 A 
ENDROOT
BRANCH   3   7
ATOM      7  S   UNL     1      -9.774  18.330  67.093  0.00  0.00    +0.093 S 
ATOM      8  O   UNL     1     -10.927  19.116  67.663  0.00  0.00    -0.148 OA
ATOM      9  O   UNL     1     -10.090  17.950  65.681  0.00  0.00    -0.148 OA
BRANCH   7  10
ATOM     10  N   UNL     1      -9.626  16.909  68.077  0.00  0.00    -0.097 NA
BRANCH  10  11
ATOM     11  C   UNL     1     -10.789  16.247  68.586  0.00  0.00    +0.091 A 
ATOM     12  C   UNL     1     -11.367  15.167  67.932  0.00  0.00    +0.018 A 
ATOM     13  C   UNL     1     -11.793  14.056  68.647  0.00  0.00    +0.001 A 
ATOM     14  C   UNL     1     -12.341  14.305  69.887  0.00  0.00    +0.000 A 
ATOM     15  C   UNL     1     -11.904  15.431  70.571  0.00  0.00    +0.001 A 
ATOM     16  C   UNL     1     -11.097  16.365  69.933  0.00  0.00    +0.018 A 
ENDBRANCH  10  11
ENDBRANCH   7  10
ENDBRANCH   3   7
BRANCH   1  18
ATOM     17  C   UNL     1      -5.608  20.412  70.787  0.00  0.00    +0.025 C 
ATOM     18  C   UNL     1      -5.561  19.913  69.573  0.00  0.00    +0.002 C 
BRANCH  17  20
ATOM     19  O   UNL     1      -4.542  22.030  72.121  0.00  0.00    -0.536 OA
ATOM     20  C   UNL     1      -4.442  20.959  71.487  0.00  0.00    +0.110 C 
ATOM     21  N   UNL     1      -3.251  20.192  71.690  0.00  0.00    -0.198 NA
ATOM     22  O   UNL     1      -2.585  20.190  72.875  0.00  0.00    -0.402 OA
ENDBRANCH  17  20
ENDBRANCH   1  18
TORSDOF 5
ENDMDL
