MODEL 1
REMARK VINA RESULT:      -6.1      0.000      0.000
REMARK  Name = 
REMARK  8 active torsions:
REMARK  status: ('A' for Active; 'I' for Inactive)
REMARK    1  A    between atoms: C_2  and  N_3
REMARK    2  A    between atoms: N_3  and  C_4
REMARK    3  A    between atoms: N_3  and  C_6
REMARK    4  A    between atoms: C_6  and  C_7
REMARK    5  A    between atoms: C_7  and  C_8
REMARK    6  A    between atoms: C_8  and  C_9
REMARK    7  A    between atoms: C_9  and  N_11
REMARK    8  A    between atoms: N_11  and  C_12
REMARK                            x       y       z     vdW  Elec       q    Type
REMARK                         _______ _______ _______ _____ _____    ______ ____
ROOT
ATOM      1  N   UNL     1     -11.969  12.269  68.922  0.00  0.00    -0.239 NA
ENDROOT
BRANCH   1   2
ATOM      2  C   UNL     1     -11.683  13.640  69.227  0.00  0.00    +0.068 A 
ATOM      3  C   UNL     1     -12.353  14.186  70.315  0.00  0.00    +0.033 A 
ATOM      4  C   UNL     1     -12.158  15.537  70.565  0.00  0.00    +0.083 A 
ATOM      5  C   UNL     1     -12.301  15.988  71.872  0.00  0.00    +0.031 A 
ATOM      6  C   UNL     1     -12.584  15.132  72.913  0.00  0.00    +0.059 A 
ATOM      7  C   UNL     1     -13.074  13.883  72.566  0.00  0.00    +0.012 A 
ATOM      8 CL   UNL     1     -12.471  15.663  74.574  0.00  0.00    -0.082 Cl
ATOM      9  N   UNL     1     -11.775  16.386  69.580  0.00  0.00    -0.244 NA
ATOM     10  C   UNL     1     -11.239  15.888  68.445  0.00  0.00    +0.100 A 
ATOM     11  C   UNL     1     -12.932  13.410  71.291  0.00  0.00    +0.004 A 
ATOM     12  C   UNL     1     -11.211  14.521  68.262  0.00  0.00    +0.037 A 
ENDBRANCH   1   2
BRANCH   1  13
ATOM     13  C   UNL     1     -10.630  11.409  68.763  0.00  0.00    +0.093 C 
ATOM     14  C   UNL     1     -10.966  11.092  67.158  0.00  0.00    +0.023 C 
BRANCH  13  15
ATOM     15  C   UNL     1     -11.414  10.019  69.252  0.00  0.00    +0.023 C 
BRANCH  15  16
ATOM     16  C   UNL     1     -11.378  10.255  70.759  0.00  0.00    +0.019 C 
BRANCH  16  17
ATOM     17  C   UNL     1     -11.340   8.937  71.482  0.00  0.00    +0.072 C 
BRANCH  17  18
ATOM     18  N   UNL     1     -12.579   8.248  71.193  0.00  0.00    -0.273 NA
BRANCH  18  19
ATOM     19  C   UNL     1     -13.549   8.667  72.174  0.00  0.00    +0.072 C 
ATOM     20  C   UNL     1     -14.897   8.022  71.934  0.00  0.00    +0.019 C 
ENDBRANCH  18  19
BRANCH  18  22
ATOM     21  C   UNL     1     -11.318   6.274  70.423  0.00  0.00    +0.019 C 
ATOM     22  C   UNL     1     -12.400   6.813  71.321  0.00  0.00    +0.072 C 
ENDBRANCH  18  22
ENDBRANCH  17  18
ENDBRANCH  16  17
ENDBRANCH  15  16
ENDBRANCH  13  15
ENDBRANCH   1  13
TORSDOF 8
ENDMDL
MODEL 2
REMARK VINA RESULT:      -6.0      2.533      6.833
REMARK  Name = 
REMARK  8 active torsions:
REMARK  status: ('A' for Active; 'I' for Inactive)
REMARK    1  A    between atoms: C_2  and  N_3
REMARK    2  A    between atoms: N_3  and  C_4
REMARK    3  A    between atoms: N_3  and  C_6
REMARK    4  A    between atoms: C_6  and  C_7
REMARK    5  A    between atoms: C_7  and  C_8
REMARK    6  A    between atoms: C_8  and  C_9
REMARK    7  A    between atoms: C_9  and  N_11
REMARK    8  A    between atoms: N_11  and  C_12
REMARK                            x       y       z     vdW  Elec       q    Type
REMARK                         _______ _______ _______ _____ _____    ______ ____
ROOT
ATOM      1  N   UNL     1     -11.279  13.339  66.909  0.00  0.00    -0.239 NA
ENDROOT
BRANCH   1   2
ATOM      2  C   UNL     1     -11.759  12.670  68.082  0.00  0.00    +0.068 A 
ATOM      3  C   UNL     1     -11.824  13.429  69.245  0.00  0.00    +0.033 A 
ATOM      4  C   UNL     1     -12.197  12.771  70.409  0.00  0.00    +0.083 A 
ATOM      5  C   UNL     1     -12.817  13.512  71.409  0.00  0.00    +0.031 A 
ATOM      6  C   UNL     1     -13.103  14.851  71.255  0.00  0.00    +0.059 A 
ATOM      7  C   UNL     1     -12.435  15.509  70.234  0.00  0.00    +0.012 A 
ATOM      8 CL   UNL     1     -14.135  15.689  72.389  0.00  0.00    -0.082 Cl
ATOM      9  N   UNL     1     -12.025  11.434  70.547  0.00  0.00    -0.244 NA
ATOM     10  C   UNL     1     -11.825  10.672  69.450  0.00  0.00    +0.100 A 
ATOM     11  C   UNL     1     -11.832  14.803  69.231  0.00  0.00    +0.004 A 
ATOM     12  C   UNL     1     -11.674  11.291  68.225  0.00  0.00    +0.037 A 
ENDBRANCH   1   2
BRANCH   1  13
ATOM     13  C   UNL     1     -11.939  12.744  65.580  0.00  0.00    +0.093 C 
ATOM     14  C   UNL     1     -10.460  12.699  64.805  0.00  0.00    +0.023 C 
BRANCH  13  15
ATOM     15  C   UNL     1     -12.252  14.277  64.998  0.00  0.00    +0.023 C 
BRANCH  15  16
ATOM     16  C   UNL     1     -10.898  14.914  65.295  0.00  0.00    +0.019 C 
BRANCH  16  17
ATOM     17  C   UNL     1     -10.939  16.380  64.958  0.00  0.00    +0.072 C 
BRANCH  17  18
ATOM     18  N   UNL     1      -9.886  17.027  65.711  0.00  0.00    -0.273 NA
BRANCH  18  19
ATOM     19  C   UNL     1      -8.947  16.009  66.112  0.00  0.00    +0.072 C 
ATOM     20  C   UNL     1      -7.598  16.601  66.454  0.00  0.00    +0.019 C 
ENDBRANCH  18  19
BRANCH  18  22
ATOM     21  C   UNL     1     -10.500  19.142  66.821  0.00  0.00    +0.019 C 
ATOM     22  C   UNL     1     -10.427  17.640  66.910  0.00  0.00    +0.072 C 
ENDBRANCH  18  22
ENDBRANCH  17  18
ENDBRANCH  16  17
ENDBRANCH  15  16
ENDBRANCH  13  15
ENDBRANCH   1  13
TORSDOF 8
ENDMDL
MODEL 3
REMARK VINA RESULT:      -5.8      2.811      5.732
REMARK  Name = 
REMARK  8 active torsions:
REMARK  status: ('A' for Active; 'I' for Inactive)
REMARK    1  A    between atoms: C_2  and  N_3
REMARK    2  A    between atoms: N_3  and  C_4
REMARK    3  A    between atoms: N_3  and  C_6
REMARK    4  A    between atoms: C_6  and  C_7
REMARK    5  A    between atoms: C_7  and  C_8
REMARK    6  A    between atoms: C_8  and  C_9
REMARK    7  A    between atoms: C_9  and  N_11
REMARK    8  A    between atoms: N_11  and  C_12
REMARK                            x       y       z     vdW  Elec       q    Type
REMARK                         _______ _______ _______ _____ _____    ______ ____
ROOT
ATOM      1  N   UNL     1     -11.606  15.190  69.364  0.00  0.00    -0.239 NA
ENDROOT
BRANCH   1   2
ATOM      2  C   UNL     1     -12.218  14.669  70.551  0.00  0.00    +0.068 A 
ATOM      3  C   UNL     1     -12.562  13.323  70.531  0.00  0.00    +0.033 A 
ATOM      4  C   UNL     1     -13.239  12.826  71.636  0.00  0.00    +0.083 A 
ATOM      5  C   UNL     1     -13.101  11.476  71.937  0.00  0.00    +0.031 A 
ATOM      6  C   UNL     1     -12.287  10.644  71.201  0.00  0.00    +0.059 A 
ATOM      7  C   UNL     1     -11.903  11.107  69.952  0.00  0.00    +0.012 A 
ATOM      8 CL   UNL     1     -11.899   9.035  71.761  0.00  0.00    -0.082 Cl
ATOM      9  N   UNL     1     -13.962  13.642  72.442  0.00  0.00    -0.244 NA
ATOM     10  C   UNL     1     -13.753  14.976  72.398  0.00  0.00    +0.100 A 
ATOM     11  C   UNL     1     -12.013  12.433  69.638  0.00  0.00    +0.004 A 
ATOM     12  C   UNL     1     -12.898  15.487  71.443  0.00  0.00    +0.037 A 
ENDBRANCH   1   2
BRANCH   1  13
ATOM     13  C   UNL     1     -10.150  15.779  69.661  0.00  0.00    +0.093 C 
ATOM     14  C   UNL     1     -10.378  17.025  68.573  0.00  0.00    +0.023 C 
BRANCH  13  15
ATOM     15  C   UNL     1      -9.471  14.810  68.484  0.00  0.00    +0.023 C 
BRANCH  15  16
ATOM     16  C   UNL     1     -10.489  15.053  67.373  0.00  0.00    +0.019 C 
BRANCH  16  17
ATOM     17  C   UNL     1     -10.307  14.035  66.282  0.00  0.00    +0.072 C 
BRANCH  17  18
ATOM     18  N   UNL     1     -11.557  13.321  66.141  0.00  0.00    -0.273 NA
BRANCH  18  19
ATOM     19  C   UNL     1     -11.243  11.937  65.889  0.00  0.00    +0.072 C 
ATOM     20  C   UNL     1      -9.984  11.512  66.613  0.00  0.00    +0.019 C 
ENDBRANCH  18  19
BRANCH  18  22
ATOM     21  C   UNL     1     -12.108  13.005  63.758  0.00  0.00    +0.019 C 
ATOM     22  C   UNL     1     -12.303  13.829  65.004  0.00  0.00    +0.072 C 
ENDBRANCH  18  22
ENDBRANCH  17  18
ENDBRANCH  16  17
ENDBRANCH  15  16
ENDBRANCH  13  15
ENDBRANCH   1  13
TORSDOF 8
ENDMDL
MODEL 4
REMARK VINA RESULT:      -5.8      4.089      6.805
REMARK  Name = 
REMARK  8 active torsions:
REMARK  status: ('A' for Active; 'I' for Inactive)
REMARK    1  A    between atoms: C_2  and  N_3
REMARK    2  A    between atoms: N_3  and  C_4
REMARK    3  A    between atoms: N_3  and  C_6
REMARK    4  A    between atoms: C_6  and  C_7
REMARK    5  A    between atoms: C_7  and  C_8
REMARK    6  A    between atoms: C_8  and  C_9
REMARK    7  A    between atoms: C_9  and  N_11
REMARK    8  A    between atoms: N_11  and  C_12
REMARK                            x       y       z     vdW  Elec       q    Type
REMARK                         _______ _______ _______ _____ _____    ______ ____
ROOT
ATOM      1  N   UNL     1     -11.851  11.404  67.931  0.00  0.00    -0.239 NA
ENDROOT
BRANCH   1   2
ATOM      2  C   UNL     1     -11.686  12.166  66.728  0.00  0.00    +0.068 A 
ATOM      3  C   UNL     1     -10.712  11.723  65.842  0.00  0.00    +0.033 A 
ATOM      4  C   UNL     1     -10.476  12.503  64.719  0.00  0.00    +0.083 A 
ATOM      5  C   UNL     1      -9.989  11.878  63.577  0.00  0.00    +0.031 A 
ATOM      6  C   UNL     1      -9.779  10.517  63.523  0.00  0.00    +0.059 A 
ATOM      7  C   UNL     1      -9.724   9.855  64.740  0.00  0.00    +0.012 A 
ATOM      8 CL   UNL     1      -9.449   9.715  62.006  0.00  0.00    -0.082 Cl
ATOM      9  N   UNL     1     -10.773  13.826  64.707  0.00  0.00    -0.244 NA
ATOM     10  C   UNL     1     -11.615  14.327  65.636  0.00  0.00    +0.100 A 
ATOM     11  C   UNL     1     -10.212  10.443  65.873  0.00  0.00    +0.004 A 
ATOM     12  C   UNL     1     -12.054  13.503  66.653  0.00  0.00    +0.037 A 
ENDBRANCH   1   2
BRANCH   1  13
ATOM     13  C   UNL     1     -11.095  12.080  69.166  0.00  0.00    +0.093 C 
ATOM     14  C   UNL     1     -10.289  10.660  69.515  0.00  0.00    +0.023 C 
BRANCH  13  15
ATOM     15  C   UNL     1     -12.343  11.683  70.202  0.00  0.00    +0.023 C 
BRANCH  15  16
ATOM     16  C   UNL     1     -12.488  13.026  70.911  0.00  0.00    +0.019 C 
BRANCH  16  17
ATOM     17  C   UNL     1     -13.439  12.893  72.068  0.00  0.00    +0.072 C 
BRANCH  17  18
ATOM     18  N   UNL     1     -13.598  14.207  72.652  0.00  0.00    -0.273 NA
BRANCH  18  19
ATOM     19  C   UNL     1     -13.986  15.109  71.596  0.00  0.00    +0.072 C 
ATOM     20  C   UNL     1     -15.477  15.062  71.344  0.00  0.00    +0.019 C 
ENDBRANCH  18  19
BRANCH  18  22
ATOM     21  C   UNL     1     -12.513  15.716  74.272  0.00  0.00    +0.019 C 
ATOM     22  C   UNL     1     -12.338  14.671  73.202  0.00  0.00    +0.072 C 
ENDBRANCH  18  22
ENDBRANCH  17  18
ENDBRANCH  16  17
ENDBRANCH  15  16
ENDBRANCH  13  15
ENDBRANCH   1  13
TORSDOF 8
ENDMDL
MODEL 5
REMARK VINA RESULT:      -5.7      2.543      6.693
REMARK  Name = 
REMARK  8 active torsions:
REMARK  status: ('A' for Active; 'I' for Inactive)
REMARK    1  A    between atoms: C_2  and  N_3
REMARK    2  A    between atoms: N_3  and  C_4
REMARK    3  A    between atoms: N_3  and  C_6
REMARK    4  A    between atoms: C_6  and  C_7
REMARK    5  A    between atoms: C_7  and  C_8
REMARK    6  A    between atoms: C_8  and  C_9
REMARK    7  A    between atoms: C_9  and  N_11
REMARK    8  A    between atoms: N_11  and  C_12
REMARK                            x       y       z     vdW  Elec       q    Type
REMARK                         _______ _______ _______ _____ _____    ______ ____
ROOT
ATOM      1  N   UNL     1     -10.991  11.007  69.895  0.00  0.00    -0.239 NA
ENDROOT
BRANCH   1   2
ATOM      2  C   UNL     1     -11.624  10.189  70.887  0.00  0.00    +0.068 A 
ATOM      3  C   UNL     1     -10.888   9.112  71.364  0.00  0.00    +0.033 A 
ATOM      4  C   UNL     1     -11.522   8.257  72.255  0.00  0.00    +0.083 A 
ATOM      5  C   UNL     1     -10.736   7.559  73.166  0.00  0.00    +0.031 A 
ATOM      6  C   UNL     1      -9.370   7.728  73.231  0.00  0.00    +0.059 A 
ATOM      7  C   UNL     1      -8.772   8.331  72.135  0.00  0.00    +0.012 A 
ATOM      8 CL   UNL     1      -8.443   7.075  74.560  0.00  0.00    -0.082 Cl
ATOM      9  N   UNL     1     -12.872   8.150  72.286  0.00  0.00    -0.244 NA
ATOM     10  C   UNL     1     -13.629   9.112  71.716  0.00  0.00    +0.100 A 
ATOM     11  C   UNL     1      -9.522   9.035  71.234  0.00  0.00    +0.004 A 
ATOM     12  C   UNL     1     -13.007  10.117  71.003  0.00  0.00    +0.037 A 
ENDBRANCH   1   2
BRANCH   1  13
ATOM     13  C   UNL     1     -12.064  11.733  68.957  0.00  0.00    +0.093 C 
ATOM     14  C   UNL     1     -11.177  11.380  67.587  0.00  0.00    +0.023 C 
BRANCH  13  15
ATOM     15  C   UNL     1     -11.292  13.202  69.138  0.00  0.00    +0.023 C 
BRANCH  15  16
ATOM     16  C   UNL     1     -12.149  13.773  70.264  0.00  0.00    +0.019 C 
BRANCH  16  17
ATOM     17  C   UNL     1     -12.115  15.276  70.219  0.00  0.00    +0.072 C 
BRANCH  17  18
ATOM     18  N   UNL     1     -12.941  15.761  71.303  0.00  0.00    -0.273 NA
BRANCH  18  19
ATOM     19  C   UNL     1     -12.070  16.064  72.412  0.00  0.00    +0.072 C 
ATOM     20  C   UNL     1     -12.466  15.295  73.655  0.00  0.00    +0.019 C 
ENDBRANCH  18  19
BRANCH  18  22
ATOM     21  C   UNL     1     -15.303  15.058  71.391  0.00  0.00    +0.019 C 
ATOM     22  C   UNL     1     -13.872  14.732  71.728  0.00  0.00    +0.072 C 
ENDBRANCH  18  22
ENDBRANCH  17  18
ENDBRANCH  16  17
ENDBRANCH  15  16
ENDBRANCH  13  15
ENDBRANCH   1  13
TORSDOF 8
ENDMDL
MODEL 6
REMARK VINA RESULT:      -5.6      3.117      7.595
REMARK  Name = 
REMARK  8 active torsions:
REMARK  status: ('A' for Active; 'I' for Inactive)
REMARK    1  A    between atoms: C_2  and  N_3
REMARK    2  A    between atoms: N_3  and  C_4
REMARK    3  A    between atoms: N_3  and  C_6
REMARK    4  A    between atoms: C_6  and  C_7
REMARK    5  A    between atoms: C_7  and  C_8
REMARK    6  A    between atoms: C_8  and  C_9
REMARK    7  A    between atoms: C_9  and  N_11
REMARK    8  A    between atoms: N_11  and  C_12
REMARK                            x       y       z     vdW  Elec       q    Type
REMARK                         _______ _______ _______ _____ _____    ______ ____
ROOT
ATOM      1  N   UNL     1     -10.493  14.728  68.977  0.00  0.00    -0.239 NA
ENDROOT
BRANCH   1   2
ATOM      2  C   UNL     1     -11.295  14.650  70.162  0.00  0.00    +0.068 A 
ATOM      3  C   UNL     1     -12.085  13.515  70.303  0.00  0.00    +0.033 A 
ATOM      4  C   UNL     1     -12.936  13.469  71.398  0.00  0.00    +0.083 A 
ATOM      5  C   UNL     1     -13.289  12.221  71.901  0.00  0.00    +0.031 A 
ATOM      6  C   UNL     1     -12.787  11.053  71.372  0.00  0.00    +0.059 A 
ATOM      7  C   UNL     1     -12.215  11.143  70.112  0.00  0.00    +0.012 A 
ATOM      8 CL   UNL     1     -13.006   9.525  72.191  0.00  0.00    -0.082 Cl
ATOM      9  N   UNL     1     -13.362  14.602  72.006  0.00  0.00    -0.244 NA
ATOM     10  C   UNL     1     -12.700  15.761  71.792  0.00  0.00    +0.100 A 
ATOM     11  C   UNL     1     -11.845  12.357  69.603  0.00  0.00    +0.004 A 
ATOM     12  C   UNL     1     -11.683  15.787  70.860  0.00  0.00    +0.037 A 
ENDBRANCH   1   2
BRANCH   1  13
ATOM     13  C   UNL     1     -10.980  15.906  68.012  0.00  0.00    +0.093 C 
ATOM     14  C   UNL     1     -11.380  14.821  66.807  0.00  0.00    +0.023 C 
BRANCH  13  15
ATOM     15  C   UNL     1      -9.440  16.097  67.397  0.00  0.00    +0.023 C 
BRANCH  15  16
ATOM     16  C   UNL     1      -8.872  17.005  68.483  0.00  0.00    +0.019 C 
BRANCH  16  17
ATOM     17  C   UNL     1      -9.703  18.253  68.592  0.00  0.00    +0.072 C 
BRANCH  17  18
ATOM     18  N   UNL     1      -8.833  19.379  68.334  0.00  0.00    -0.273 NA
BRANCH  18  19
ATOM     19  C   UNL     1      -9.065  19.808  66.976  0.00  0.00    +0.072 C 
ATOM     20  C   UNL     1     -10.531  19.720  66.610  0.00  0.00    +0.019 C 
ENDBRANCH  18  19
BRANCH  18  22
ATOM     21  C   UNL     1      -6.676  19.796  69.454  0.00  0.00    +0.019 C 
ATOM     22  C   UNL     1      -7.442  18.978  68.448  0.00  0.00    +0.072 C 
ENDBRANCH  18  22
ENDBRANCH  17  18
ENDBRANCH  16  17
ENDBRANCH  15  16
ENDBRANCH  13  15
ENDBRANCH   1  13
TORSDOF 8
ENDMDL
MODEL 7
REMARK VINA RESULT:      -5.5      2.994      6.188
REMARK  Name = 
REMARK  8 active torsions:
REMARK  status: ('A' for Active; 'I' for Inactive)
REMARK    1  A    between atoms: C_2  and  N_3
REMARK    2  A    between atoms: N_3  and  C_4
REMARK    3  A    between atoms: N_3  and  C_6
REMARK    4  A    between atoms: C_6  and  C_7
REMARK    5  A    between atoms: C_7  and  C_8
REMARK    6  A    between atoms: C_8  and  C_9
REMARK    7  A    between atoms: C_9  and  N_11
REMARK    8  A    between atoms: N_11  and  C_12
REMARK                            x       y       z     vdW  Elec       q    Type
REMARK                         _______ _______ _______ _____ _____    ______ ____
ROOT
ATOM      1  N   UNL     1     -11.707  10.523  68.254  0.00  0.00    -0.239 NA
ENDROOT
BRANCH   1   2
ATOM      2  C   UNL     1     -10.923  10.807  67.088  0.00  0.00    +0.068 A 
ATOM      3  C   UNL     1     -11.316  11.901  66.328  0.00  0.00    +0.033 A 
ATOM      4  C   UNL     1     -10.624  12.132  65.147  0.00  0.00    +0.083 A 
ATOM      5  C   UNL     1     -10.559  13.437  64.671  0.00  0.00    +0.031 A 
ATOM      6  C   UNL     1     -11.119  14.493  65.355  0.00  0.00    +0.059 A 
ATOM      7  C   UNL     1     -12.049  14.168  66.331  0.00  0.00    +0.012 A 
ATOM      8 CL   UNL     1     -10.780  16.145  64.900  0.00  0.00    -0.082 Cl
ATOM      9  N   UNL     1      -9.972  11.131  64.507  0.00  0.00    -0.244 NA
ATOM     10  C   UNL     1      -9.686   9.992  65.172  0.00  0.00    +0.100 A 
ATOM     11  C   UNL     1     -12.122  12.897  66.827  0.00  0.00    +0.004 A 
ATOM     12  C   UNL     1     -10.176   9.824  66.451  0.00  0.00    +0.037 A 
ENDBRANCH   1   2
BRANCH   1  13
ATOM     13  C   UNL     1     -10.919  10.883  69.597  0.00  0.00    +0.093 C 
ATOM     14  C   UNL     1     -10.957   9.293  70.105  0.00  0.00    +0.023 C 
BRANCH  13  15
ATOM     15  C   UNL     1     -12.346  11.223  70.394  0.00  0.00    +0.023 C 
BRANCH  15  16
ATOM     16  C   UNL     1     -12.208  12.740  70.472  0.00  0.00    +0.019 C 
BRANCH  16  17
ATOM     17  C   UNL     1     -12.968  13.262  71.661  0.00  0.00    +0.072 C 
BRANCH  17  18
ATOM     18  N   UNL     1     -12.710  14.682  71.752  0.00  0.00    -0.273 NA
BRANCH  18  19
ATOM     19  C   UNL     1     -13.895  15.307  72.285  0.00  0.00    +0.072 C 
ATOM     20  C   UNL     1     -15.100  15.057  71.404  0.00  0.00    +0.019 C 
ENDBRANCH  18  19
BRANCH  18  22
ATOM     21  C   UNL     1     -11.290  16.180  70.402  0.00  0.00    +0.019 C 
ATOM     22  C   UNL     1     -12.463  15.236  70.433  0.00  0.00    +0.072 C 
ENDBRANCH  18  22
ENDBRANCH  17  18
ENDBRANCH  16  17
ENDBRANCH  15  16
ENDBRANCH  13  15
ENDBRANCH   1  13
TORSDOF 8
ENDMDL
MODEL 8
REMARK VINA RESULT:      -5.4      3.967      5.859
REMARK  Name = 
REMARK  8 active torsions:
REMARK  status: ('A' for Active; 'I' for Inactive)
REMARK    1  A    between atoms: C_2  and  N_3
REMARK    2  A    between atoms: N_3  and  C_4
REMARK    3  A    between atoms: N_3  and  C_6
REMARK    4  A    between atoms: C_6  and  C_7
REMARK    5  A    between atoms: C_7  and  C_8
REMARK    6  A    between atoms: C_8  and  C_9
REMARK    7  A    between atoms: C_9  and  N_11
REMARK    8  A    between atoms: N_11  and  C_12
REMARK                            x       y       z     vdW  Elec       q    Type
REMARK                         _______ _______ _______ _____ _____    ______ ____
ROOT
ATOM      1  N   UNL     1     -11.692  11.418  67.658  0.00  0.00    -0.239 NA
ENDROOT
BRANCH   1   2
ATOM      2  C   UNL     1     -11.623  12.101  66.400  0.00  0.00    +0.068 A 
ATOM      3  C   UNL     1     -10.645  11.670  65.513  0.00  0.00    +0.033 A 
ATOM      4  C   UNL     1     -10.506  12.382  64.330  0.00  0.00    +0.083 A 
ATOM      5  C   UNL     1     -10.006  11.713  63.218  0.00  0.00    +0.031 A 
ATOM      6  C   UNL     1      -9.692  10.372  63.252  0.00  0.00    +0.059 A 
ATOM      7  C   UNL     1      -9.548   9.807  64.510  0.00  0.00    +0.012 A 
ATOM      8 CL   UNL     1      -9.347   9.489  61.785  0.00  0.00    -0.082 Cl
ATOM      9  N   UNL     1     -10.905  13.673  64.236  0.00  0.00    -0.244 NA
ATOM     10  C   UNL     1     -11.755  14.176  65.157  0.00  0.00    +0.100 A 
ATOM     11  C   UNL     1     -10.046  10.437  65.616  0.00  0.00    +0.004 A 
ATOM     12  C   UNL     1     -12.097  13.398  66.245  0.00  0.00    +0.037 A 
ENDBRANCH   1   2
BRANCH   1  13
ATOM     13  C   UNL     1     -10.716  12.077  68.740  0.00  0.00    +0.093 C 
ATOM     14  C   UNL     1     -10.184  10.577  69.247  0.00  0.00    +0.023 C 
BRANCH  13  15
ATOM     15  C   UNL     1     -11.927  12.089  69.889  0.00  0.00    +0.023 C 
BRANCH  15  16
ATOM     16  C   UNL     1     -11.879  10.616  70.287  0.00  0.00    +0.019 C 
BRANCH  16  17
ATOM     17  C   UNL     1     -12.899  10.343  71.357  0.00  0.00    +0.072 C 
BRANCH  17  18
ATOM     18  N   UNL     1     -12.933   8.912  71.569  0.00  0.00    -0.273 NA
BRANCH  18  19
ATOM     19  C   UNL     1     -14.000   8.634  72.499  0.00  0.00    +0.072 C 
ATOM     20  C   UNL     1     -15.091   7.803  71.860  0.00  0.00    +0.019 C 
ENDBRANCH  18  19
BRANCH  18  22
ATOM     21  C   UNL     1     -11.531   6.963  72.131  0.00  0.00    +0.019 C 
ATOM     22  C   UNL     1     -11.689   8.460  72.163  0.00  0.00    +0.072 C 
ENDBRANCH  18  22
ENDBRANCH  17  18
ENDBRANCH  16  17
ENDBRANCH  15  16
ENDBRANCH  13  15
ENDBRANCH   1  13
TORSDOF 8
ENDMDL
MODEL 9
REMARK VINA RESULT:      -5.3      4.364      8.500
REMARK  Name = 
REMARK  8 active torsions:
REMARK  status: ('A' for Active; 'I' for Inactive)
REMARK    1  A    between atoms: C_2  and  N_3
REMARK    2  A    between atoms: N_3  and  C_4
REMARK    3  A    between atoms: N_3  and  C_6
REMARK    4  A    between atoms: C_6  and  C_7
REMARK    5  A    between atoms: C_7  and  C_8
REMARK    6  A    between atoms: C_8  and  C_9
REMARK    7  A    between atoms: C_9  and  N_11
REMARK    8  A    between atoms: N_11  and  C_12
REMARK                            x       y       z     vdW  Elec       q    Type
REMARK                         _______ _______ _______ _____ _____    ______ ____
ROOT
ATOM      1  N   UNL     1      -9.722  17.798  67.065  0.00  0.00    -0.239 NA
ENDROOT
BRANCH   1   2
ATOM      2  C   UNL     1     -10.434  16.572  66.858  0.00  0.00    +0.068 A 
ATOM      3  C   UNL     1     -10.597  15.755  67.969  0.00  0.00    +0.033 A 
ATOM      4  C   UNL     1     -11.202  14.522  67.766  0.00  0.00    +0.083 A 
ATOM      5  C   UNL     1     -11.888  13.946  68.828  0.00  0.00    +0.031 A 
ATOM      6  C   UNL     1     -12.016  14.579  70.045  0.00  0.00    +0.059 A 
ATOM      7  C   UNL     1     -11.142  15.628  70.286  0.00  0.00    +0.012 A 
ATOM      8 CL   UNL     1     -13.118  13.982  71.262  0.00  0.00    -0.082 Cl
ATOM      9  N   UNL     1     -11.185  13.923  66.550  0.00  0.00    -0.244 NA
ATOM     10  C   UNL     1     -10.899  14.656  65.452  0.00  0.00    +0.100 A 
ATOM     11  C   UNL     1     -10.468  16.222  69.256  0.00  0.00    +0.004 A 
ATOM     12  C   UNL     1     -10.508  15.970  65.608  0.00  0.00    +0.037 A 
ENDBRANCH   1   2
BRANCH   1  13
ATOM     13  C   UNL     1     -10.717  19.020  67.334  0.00  0.00    +0.093 C 
ATOM     14  C   UNL     1     -10.185  19.820  65.969  0.00  0.00    +0.023 C 
BRANCH  13  15
ATOM     15  C   UNL     1      -9.583  19.790  68.287  0.00  0.00    +0.023 C 
BRANCH  15  16
ATOM     16  C   UNL     1      -8.426  19.811  67.292  0.00  0.00    +0.019 C 
BRANCH  16  17
ATOM     17  C   UNL     1      -7.147  20.156  68.003  0.00  0.00    +0.072 C 
BRANCH  17  18
ATOM     18  N   UNL     1      -6.975  19.199  69.075  0.00  0.00    -0.273 NA
BRANCH  18  19
ATOM     19  C   UNL     1      -6.165  19.824  70.092  0.00  0.00    +0.072 C 
ATOM     20  C   UNL     1      -5.313  20.935  69.518  0.00  0.00    +0.019 C 
ENDBRANCH  18  19
BRANCH  18  22
ATOM     21  C   UNL     1      -6.835  16.738  69.132  0.00  0.00    +0.019 C 
ATOM     22  C   UNL     1      -6.269  18.025  68.594  0.00  0.00    +0.072 C 
ENDBRANCH  18  22
ENDBRANCH  17  18
ENDBRANCH  16  17
ENDBRANCH  15  16
ENDBRANCH  13  15
ENDBRANCH   1  13
TORSDOF 8
ENDMDL
