MODEL 1
REMARK VINA RESULT:      -7.3      0.000      0.000
REMARK  Name = 
REMARK  7 active torsions:
REMARK  status: ('A' for Active; 'I' for Inactive)
REMARK    1  A    between atoms: C_2  and  O_3
REMARK    2  A    between atoms: O_3  and  C_4
REMARK    3  A    between atoms: C_10  and  C_11
REMARK    4  A    between atoms: N_15  and  C_16
REMARK    5  A    between atoms: C_16  and  C_17
REMARK    6  A    between atoms: C_20  and  C_21
REMARK    7  A    between atoms: C_26  and  C_27
REMARK                            x       y       z     vdW  Elec       q    Type
REMARK                         _______ _______ _______ _____ _____    ______ ____
ROOT
ATOM      1  C   UNL     1     -10.950  15.092  67.270  0.00  0.00    +0.001 A 
ATOM      2  C   UNL     1     -10.320  15.579  66.130  0.00  0.00    -0.002 A 
ATOM      3  C   UNL     1      -9.499  16.698  66.206  0.00  0.00    -0.000 A 
ATOM      4  C   UNL     1      -9.248  17.323  67.422  0.00  0.00    -0.001 A 
ATOM      5  C   UNL     1     -10.171  17.050  68.423  0.00  0.00    -0.000 A 
ATOM      6  C   UNL     1     -11.095  16.021  68.293  0.00  0.00    -0.002 A 
ENDROOT
BRANCH   4   7
ATOM      7  C   UNL     1      -7.907  17.797  67.788  0.00  0.00    -0.006 A 
ATOM      8  C   UNL     1      -7.081  16.970  68.539  0.00  0.00    -0.015 A 
ATOM      9  C   UNL     1      -6.164  17.511  69.431  0.00  0.00    -0.007 A 
ATOM     10  C   UNL     1      -6.201  18.858  69.768  0.00  0.00    -0.001 A 
ATOM     11  C   UNL     1      -6.854  19.695  68.881  0.00  0.00    -0.000 A 
ATOM     12  C   UNL     1      -7.597  19.151  67.840  0.00  0.00    -0.001 A 
BRANCH   8  13
ATOM     13  C   UNL     1      -7.144  15.534  68.267  0.00  0.00    +0.044 A 
ATOM     14  N   UNL     1      -7.697  14.564  69.023  0.00  0.00    -0.289 NA
ATOM     15  N   UNL     1      -7.374  13.429  68.457  0.00  0.00    -0.218 NA
ATOM     16  N   UNL     1      -6.713  13.626  67.319  0.00  0.00    -0.218 NA
ATOM     17  N   UNL     1      -6.409  14.921  67.306  0.00  0.00    -0.289 NA
ENDBRANCH   8  13
ENDBRANCH   4   7
BRANCH   1  18
ATOM     18  C   UNL     1     -12.061  14.107  67.128  0.00  0.00    +0.137 C 
BRANCH  18  20
ATOM     19  C   UNL     1     -11.019  12.235  68.374  0.00  0.00    +0.301 A 
ATOM     20  N   UNL     1     -11.431  12.793  67.218  0.00  0.00    -0.277 N 
ATOM     21  C   UNL     1     -10.801  12.219  66.167  0.00  0.00    +0.088 A 
ATOM     22  C   UNL     1     -10.073  11.184  66.734  0.00  0.00    +0.102 A 
ATOM     23  C   UNL     1      -9.482  10.276  65.865  0.00  0.00    +0.021 A 
ATOM     24  C   UNL     1      -9.866  10.267  64.533  0.00  0.00    +0.002 A 
ATOM     25  C   UNL     1     -10.639  11.290  64.008  0.00  0.00    +0.008 A 
ATOM     26  C   UNL     1     -11.272  12.156  64.863  0.00  0.00    +0.097 A 
ATOM     27  N   UNL     1     -10.178  11.230  68.084  0.00  0.00    -0.194 NA
BRANCH  26  28
ATOM     28  C   UNL     1     -12.495  12.811  64.433  0.00  0.00    +0.389 C 
ATOM     29  O   UNL     1     -12.376  13.869  63.535  0.00  0.00    -0.240 OA
ATOM     30  O   UNL     1     -13.519  12.083  64.293  0.00  0.00    -0.240 OA
ENDBRANCH  26  28
BRANCH  19  31
ATOM     31  O   UNL     1     -11.615  12.560  69.597  0.00  0.00    -0.448 OA
BRANCH  31  33
ATOM     32  C   UNL     1     -12.932  12.105  71.500  0.00  0.00    +0.051 C 
ATOM     33  C   UNL     1     -12.146  11.486  70.367  0.00  0.00    +0.209 C 
ENDBRANCH  31  33
ENDBRANCH  19  31
ENDBRANCH  18  20
ENDBRANCH   1  18
TORSDOF 7
ENDMDL
MODEL 2
REMARK VINA RESULT:      -7.1      2.289      2.793
REMARK  Name = 
REMARK  7 active torsions:
REMARK  status: ('A' for Active; 'I' for Inactive)
REMARK    1  A    between atoms: C_2  and  O_3
REMARK    2  A    between atoms: O_3  and  C_4
REMARK    3  A    between atoms: C_10  and  C_11
REMARK    4  A    between atoms: N_15  and  C_16
REMARK    5  A    between atoms: C_16  and  C_17
REMARK    6  A    between atoms: C_20  and  C_21
REMARK    7  A    between atoms: C_26  and  C_27
REMARK                            x       y       z     vdW  Elec       q    Type
REMARK                         _______ _______ _______ _____ _____    ______ ____
ROOT
ATOM      1  C   UNL     1     -11.260  14.026  67.137  0.00  0.00    +0.001 A 
ATOM      2  C   UNL     1     -10.385  14.649  66.255  0.00  0.00    -0.002 A 
ATOM      3  C   UNL     1      -9.618  15.731  66.673  0.00  0.00    -0.000 A 
ATOM      4  C   UNL     1      -9.670  16.182  67.987  0.00  0.00    -0.001 A 
ATOM      5  C   UNL     1     -10.800  15.795  68.696  0.00  0.00    -0.000 A 
ATOM      6  C   UNL     1     -11.654  14.812  68.213  0.00  0.00    -0.002 A 
ENDROOT
BRANCH   4   7
ATOM      7  C   UNL     1      -8.460  16.576  68.719  0.00  0.00    -0.006 A 
ATOM      8  C   UNL     1      -7.863  17.796  68.428  0.00  0.00    -0.015 A 
ATOM      9  C   UNL     1      -6.487  17.954  68.547  0.00  0.00    -0.007 A 
ATOM     10  C   UNL     1      -5.653  16.858  68.731  0.00  0.00    -0.001 A 
ATOM     11  C   UNL     1      -6.247  15.713  69.229  0.00  0.00    -0.000 A 
ATOM     12  C   UNL     1      -7.631  15.639  69.324  0.00  0.00    -0.001 A 
BRANCH   8  13
ATOM     13  C   UNL     1      -8.747  18.916  68.107  0.00  0.00    +0.044 A 
ATOM     14  N   UNL     1      -9.716  19.460  68.871  0.00  0.00    -0.289 NA
ATOM     15  N   UNL     1     -10.338  20.326  68.111  0.00  0.00    -0.218 NA
ATOM     16  N   UNL     1      -9.755  20.431  66.919  0.00  0.00    -0.218 NA
ATOM     17  N   UNL     1      -8.892  19.421  66.857  0.00  0.00    -0.289 NA
ENDBRANCH   8  13
ENDBRANCH   4   7
BRANCH   1  18
ATOM     18  C   UNL     1     -12.294  13.091  66.605  0.00  0.00    +0.137 C 
BRANCH  18  20
ATOM     19  C   UNL     1     -11.333  10.983  67.486  0.00  0.00    +0.301 A 
ATOM     20  N   UNL     1     -11.617  11.806  66.457  0.00  0.00    -0.277 N 
ATOM     21  C   UNL     1     -10.827  11.522  65.396  0.00  0.00    +0.088 A 
ATOM     22  C   UNL     1     -10.130  10.389  65.787  0.00  0.00    +0.102 A 
ATOM     23  C   UNL     1      -9.388   9.735  64.812  0.00  0.00    +0.021 A 
ATOM     24  C   UNL     1      -9.592  10.053  63.478  0.00  0.00    +0.002 A 
ATOM     25  C   UNL     1     -10.340  11.164  63.118  0.00  0.00    +0.008 A 
ATOM     26  C   UNL     1     -11.120  11.779  64.063  0.00  0.00    +0.097 A 
ATOM     27  N   UNL     1     -10.414  10.094  67.078  0.00  0.00    -0.194 NA
BRANCH  26  28
ATOM     28  C   UNL     1     -12.306  12.502  63.641  0.00  0.00    +0.389 C 
ATOM     29  O   UNL     1     -12.137  13.809  63.190  0.00  0.00    -0.240 OA
ATOM     30  O   UNL     1     -13.213  11.836  63.066  0.00  0.00    -0.240 OA
ENDBRANCH  26  28
BRANCH  19  31
ATOM     31  O   UNL     1     -12.099  10.984  68.656  0.00  0.00    -0.448 OA
BRANCH  31  33
ATOM     32  C   UNL     1     -12.115  10.255  70.901  0.00  0.00    +0.051 C 
ATOM     33  C   UNL     1     -11.401  11.123  69.890  0.00  0.00    +0.209 C 
ENDBRANCH  31  33
ENDBRANCH  19  31
ENDBRANCH  18  20
ENDBRANCH   1  18
TORSDOF 7
ENDMDL
MODEL 3
REMARK VINA RESULT:      -7.0      2.690      3.526
REMARK  Name = 
REMARK  7 active torsions:
REMARK  status: ('A' for Active; 'I' for Inactive)
REMARK    1  A    between atoms: C_2  and  O_3
REMARK    2  A    between atoms: O_3  and  C_4
REMARK    3  A    between atoms: C_10  and  C_11
REMARK    4  A    between atoms: N_15  and  C_16
REMARK    5  A    between atoms: C_16  and  C_17
REMARK    6  A    between atoms: C_20  and  C_21
REMARK    7  A    between atoms: C_26  and  C_27
REMARK                            x       y       z     vdW  Elec       q    Type
REMARK                         _______ _______ _______ _____ _____    ______ ____
ROOT
ATOM      1  C   UNL     1     -10.293  16.096  67.802  0.00  0.00    +0.001 A 
ATOM      2  C   UNL     1      -9.230  15.771  66.967  0.00  0.00    -0.002 A 
ATOM      3  C   UNL     1      -8.022  16.452  67.070  0.00  0.00    -0.000 A 
ATOM      4  C   UNL     1      -7.831  17.433  68.035  0.00  0.00    -0.001 A 
ATOM      5  C   UNL     1      -8.999  17.971  68.563  0.00  0.00    -0.000 A 
ATOM      6  C   UNL     1     -10.233  17.374  68.342  0.00  0.00    -0.002 A 
ENDROOT
BRANCH   4   7
ATOM      7  C   UNL     1      -6.581  17.537  68.798  0.00  0.00    -0.006 A 
ATOM      8  C   UNL     1      -5.526  18.269  68.266  0.00  0.00    -0.015 A 
ATOM      9  C   UNL     1      -4.212  17.909  68.538  0.00  0.00    -0.007 A 
ATOM     10  C   UNL     1      -3.911  16.697  69.146  0.00  0.00    -0.001 A 
ATOM     11  C   UNL     1      -4.936  16.095  69.854  0.00  0.00    -0.000 A 
ATOM     12  C   UNL     1      -6.227  16.598  69.759  0.00  0.00    -0.001 A 
BRANCH   8  13
ATOM     13  C   UNL     1      -5.860  19.478  67.514  0.00  0.00    +0.044 A 
ATOM     14  N   UNL     1      -5.727  19.701  66.191  0.00  0.00    -0.289 NA
ATOM     15  N   UNL     1      -6.003  20.967  66.004  0.00  0.00    -0.218 NA
ATOM     16  N   UNL     1      -6.396  21.549  67.134  0.00  0.00    -0.218 NA
ATOM     17  N   UNL     1      -6.122  20.674  68.097  0.00  0.00    -0.289 NA
ENDBRANCH   8  13
ENDBRANCH   4   7
BRANCH   1  18
ATOM     18  C   UNL     1     -11.659  15.594  67.477  0.00  0.00    +0.137 C 
BRANCH  18  20
ATOM     19  C   UNL     1     -12.100  14.466  69.640  0.00  0.00    +0.301 A 
ATOM     20  N   UNL     1     -11.850  14.414  68.316  0.00  0.00    -0.277 N 
ATOM     21  C   UNL     1     -11.364  13.198  67.976  0.00  0.00    +0.088 A 
ATOM     22  C   UNL     1     -11.453  12.460  69.147  0.00  0.00    +0.102 A 
ATOM     23  C   UNL     1     -11.220  11.093  69.052  0.00  0.00    +0.021 A 
ATOM     24  C   UNL     1     -11.196  10.496  67.801  0.00  0.00    +0.002 A 
ATOM     25  C   UNL     1     -11.161  11.263  66.647  0.00  0.00    +0.008 A 
ATOM     26  C   UNL     1     -11.447  12.602  66.726  0.00  0.00    +0.097 A 
ATOM     27  N   UNL     1     -11.861  13.254  70.165  0.00  0.00    -0.194 NA
BRANCH  26  28
ATOM     28  C   UNL     1     -11.994  13.279  65.563  0.00  0.00    +0.389 C 
ATOM     29  O   UNL     1     -11.093  13.804  64.640  0.00  0.00    -0.240 OA
ATOM     30  O   UNL     1     -13.069  12.820  65.082  0.00  0.00    -0.240 OA
ENDBRANCH  26  28
BRANCH  19  31
ATOM     31  O   UNL     1     -12.731  15.570  70.223  0.00  0.00    -0.448 OA
BRANCH  31  33
ATOM     32  C   UNL     1     -13.614  15.526  72.411  0.00  0.00    +0.051 C 
ATOM     33  C   UNL     1     -12.401  15.867  71.576  0.00  0.00    +0.209 C 
ENDBRANCH  31  33
ENDBRANCH  19  31
ENDBRANCH  18  20
ENDBRANCH   1  18
TORSDOF 7
ENDMDL
MODEL 4
REMARK VINA RESULT:      -6.9      3.309      7.634
REMARK  Name = 
REMARK  7 active torsions:
REMARK  status: ('A' for Active; 'I' for Inactive)
REMARK    1  A    between atoms: C_2  and  O_3
REMARK    2  A    between atoms: O_3  and  C_4
REMARK    3  A    between atoms: C_10  and  C_11
REMARK    4  A    between atoms: N_15  and  C_16
REMARK    5  A    between atoms: C_16  and  C_17
REMARK    6  A    between atoms: C_20  and  C_21
REMARK    7  A    between atoms: C_26  and  C_27
REMARK                            x       y       z     vdW  Elec       q    Type
REMARK                         _______ _______ _______ _____ _____    ______ ____
ROOT
ATOM      1  C   UNL     1     -11.650  12.693  68.650  0.00  0.00    +0.001 A 
ATOM      2  C   UNL     1     -12.019  12.589  69.987  0.00  0.00    -0.002 A 
ATOM      3  C   UNL     1     -12.061  11.347  70.609  0.00  0.00    -0.000 A 
ATOM      4  C   UNL     1     -11.691  10.191  69.931  0.00  0.00    -0.001 A 
ATOM      5  C   UNL     1     -11.708  10.293  68.546  0.00  0.00    -0.000 A 
ATOM      6  C   UNL     1     -11.812  11.526  67.914  0.00  0.00    -0.002 A 
ENDROOT
BRANCH   4   7
ATOM      7  C   UNL     1     -10.879   9.146  70.566  0.00  0.00    -0.006 A 
ATOM      8  C   UNL     1     -11.354   8.530  71.718  0.00  0.00    -0.015 A 
ATOM      9  C   UNL     1     -10.470   8.070  72.687  0.00  0.00    -0.007 A 
ATOM     10  C   UNL     1      -9.125   8.412  72.649  0.00  0.00    -0.001 A 
ATOM     11  C   UNL     1      -8.629   8.821  71.424  0.00  0.00    -0.000 A 
ATOM     12  C   UNL     1      -9.505   9.066  70.375  0.00  0.00    -0.001 A 
BRANCH   8  13
ATOM     13  C   UNL     1     -12.795   8.291  71.806  0.00  0.00    +0.044 A 
ATOM     14  N   UNL     1     -13.708   8.958  72.540  0.00  0.00    -0.289 NA
ATOM     15  N   UNL     1     -14.829   8.294  72.421  0.00  0.00    -0.218 NA
ATOM     16  N   UNL     1     -14.703   7.279  71.569  0.00  0.00    -0.218 NA
ATOM     17  N   UNL     1     -13.397   7.169  71.341  0.00  0.00    -0.289 NA
ENDBRANCH   8  13
ENDBRANCH   4   7
BRANCH   1  18
ATOM     18  C   UNL     1     -11.912  13.964  67.915  0.00  0.00    +0.137 C 
BRANCH  18  20
ATOM     19  C   UNL     1     -10.343  13.860  65.999  0.00  0.00    +0.301 A 
ATOM     20  N   UNL     1     -10.659  14.287  67.238  0.00  0.00    -0.277 N 
ATOM     21  C   UNL     1      -9.541  14.640  67.913  0.00  0.00    +0.088 A 
ATOM     22  C   UNL     1      -8.529  14.530  66.972  0.00  0.00    +0.102 A 
ATOM     23  C   UNL     1      -7.283  15.037  67.321  0.00  0.00    +0.021 A 
ATOM     24  C   UNL     1      -7.174  15.859  68.432  0.00  0.00    +0.002 A 
ATOM     25  C   UNL     1      -8.224  15.989  69.327  0.00  0.00    +0.008 A 
ATOM     26  C   UNL     1      -9.470  15.543  68.965  0.00  0.00    +0.097 A 
ATOM     27  N   UNL     1      -9.021  14.013  65.821  0.00  0.00    -0.194 NA
BRANCH  26  28
ATOM     28  C   UNL     1     -10.643  16.162  69.556  0.00  0.00    +0.389 C 
ATOM     29  O   UNL     1     -10.992  15.778  70.848  0.00  0.00    -0.240 OA
ATOM     30  O   UNL     1     -10.866  17.371  69.263  0.00  0.00    -0.240 OA
ENDBRANCH  26  28
BRANCH  19  31
ATOM     31  O   UNL     1     -11.330  13.561  65.053  0.00  0.00    -0.448 OA
BRANCH  31  33
ATOM     32  C   UNL     1     -12.407  12.219  63.439  0.00  0.00    +0.051 C 
ATOM     33  C   UNL     1     -11.257  12.289  64.417  0.00  0.00    +0.209 C 
ENDBRANCH  31  33
ENDBRANCH  19  31
ENDBRANCH  18  20
ENDBRANCH   1  18
TORSDOF 7
ENDMDL
MODEL 5
REMARK VINA RESULT:      -6.9      2.855      3.526
REMARK  Name = 
REMARK  7 active torsions:
REMARK  status: ('A' for Active; 'I' for Inactive)
REMARK    1  A    between atoms: C_2  and  O_3
REMARK    2  A    between atoms: O_3  and  C_4
REMARK    3  A    between atoms: C_10  and  C_11
REMARK    4  A    between atoms: N_15  and  C_16
REMARK    5  A    between atoms: C_16  and  C_17
REMARK    6  A    between atoms: C_20  and  C_21
REMARK    7  A    between atoms: C_26  and  C_27
REMARK                            x       y       z     vdW  Elec       q    Type
REMARK                         _______ _______ _______ _____ _____    ______ ____
ROOT
ATOM      1  C   UNL     1      -9.938  16.918  67.652  0.00  0.00    +0.001 A 
ATOM      2  C   UNL     1      -9.607  18.187  67.188  0.00  0.00    -0.002 A 
ATOM      3  C   UNL     1      -8.363  18.737  67.476  0.00  0.00    -0.000 A 
ATOM      4  C   UNL     1      -7.407  18.020  68.186  0.00  0.00    -0.001 A 
ATOM      5  C   UNL     1      -7.905  16.959  68.932  0.00  0.00    -0.000 A 
ATOM      6  C   UNL     1      -9.202  16.495  68.751  0.00  0.00    -0.002 A 
ENDROOT
BRANCH   4   7
ATOM      7  C   UNL     1      -5.989  18.029  67.805  0.00  0.00    -0.006 A 
ATOM      8  C   UNL     1      -5.140  18.960  68.392  0.00  0.00    -0.015 A 
ATOM      9  C   UNL     1      -4.054  19.465  67.687  0.00  0.00    -0.007 A 
ATOM     10  C   UNL     1      -3.916  19.239  66.324  0.00  0.00    -0.001 A 
ATOM     11  C   UNL     1      -4.615  18.164  65.806  0.00  0.00    -0.000 A 
ATOM     12  C   UNL     1      -5.551  17.507  66.594  0.00  0.00    -0.001 A 
BRANCH   8  13
ATOM     13  C   UNL     1      -5.374  19.290  69.797  0.00  0.00    +0.044 A 
ATOM     14  N   UNL     1      -5.996  20.372  70.308  0.00  0.00    -0.289 NA
ATOM     15  N   UNL     1      -5.827  20.313  71.605  0.00  0.00    -0.218 NA
ATOM     16  N   UNL     1      -5.204  19.193  71.961  0.00  0.00    -0.218 NA
ATOM     17  N   UNL     1      -4.759  18.659  70.827  0.00  0.00    -0.289 NA
ENDBRANCH   8  13
ENDBRANCH   4   7
BRANCH   1  18
ATOM     18  C   UNL     1     -11.361  16.474  67.615  0.00  0.00    +0.137 C 
BRANCH  18  20
ATOM     19  C   UNL     1     -11.425  14.345  68.883  0.00  0.00    +0.301 A 
ATOM     20  N   UNL     1     -11.316  15.018  67.720  0.00  0.00    -0.277 N 
ATOM     21  C   UNL     1     -10.730  14.242  66.780  0.00  0.00    +0.088 A 
ATOM     22  C   UNL     1     -10.601  13.006  67.395  0.00  0.00    +0.102 A 
ATOM     23  C   UNL     1     -10.219  11.937  66.593  0.00  0.00    +0.021 A 
ATOM     24  C   UNL     1     -10.262  12.076  65.214  0.00  0.00    +0.002 A 
ATOM     25  C   UNL     1     -10.445  13.320  64.630  0.00  0.00    +0.008 A 
ATOM     26  C   UNL     1     -10.878  14.365  65.406  0.00  0.00    +0.097 A 
ATOM     27  N   UNL     1     -10.988  13.091  68.690  0.00  0.00    -0.194 NA
BRANCH  26  28
ATOM     28  C   UNL     1     -11.625  15.445  64.786  0.00  0.00    +0.389 C 
ATOM     29  O   UNL     1     -10.907  16.549  64.333  0.00  0.00    -0.240 OA
ATOM     30  O   UNL     1     -12.633  15.124  64.094  0.00  0.00    -0.240 OA
ENDBRANCH  26  28
BRANCH  19  31
ATOM     31  O   UNL     1     -12.115  14.879  69.976  0.00  0.00    -0.448 OA
BRANCH  31  33
ATOM     32  C   UNL     1     -12.287  15.822  72.133  0.00  0.00    +0.051 C 
ATOM     33  C   UNL     1     -11.368  15.109  71.167  0.00  0.00    +0.209 C 
ENDBRANCH  31  33
ENDBRANCH  19  31
ENDBRANCH  18  20
ENDBRANCH   1  18
TORSDOF 7
ENDMDL
MODEL 6
REMARK VINA RESULT:      -6.6      2.766      4.945
REMARK  Name = 
REMARK  7 active torsions:
REMARK  status: ('A' for Active; 'I' for Inactive)
REMARK    1  A    between atoms: C_2  and  O_3
REMARK    2  A    between atoms: O_3  and  C_4
REMARK    3  A    between atoms: C_10  and  C_11
REMARK    4  A    between atoms: N_15  and  C_16
REMARK    5  A    between atoms: C_16  and  C_17
REMARK    6  A    between atoms: C_20  and  C_21
REMARK    7  A    between atoms: C_26  and  C_27
REMARK                            x       y       z     vdW  Elec       q    Type
REMARK                         _______ _______ _______ _____ _____    ______ ____
ROOT
ATOM      1  C   UNL     1     -10.451  16.349  68.371  0.00  0.00    +0.001 A 
ATOM      2  C   UNL     1     -10.391  17.708  68.085  0.00  0.00    -0.002 A 
ATOM      3  C   UNL     1      -9.182  18.391  68.168  0.00  0.00    -0.000 A 
ATOM      4  C   UNL     1      -8.004  17.727  68.487  0.00  0.00    -0.001 A 
ATOM      5  C   UNL     1      -8.173  16.502  69.120  0.00  0.00    -0.000 A 
ATOM      6  C   UNL     1      -9.414  15.879  69.167  0.00  0.00    -0.002 A 
ENDROOT
BRANCH   4   7
ATOM      7  C   UNL     1      -6.742  18.009  67.791  0.00  0.00    -0.006 A 
ATOM      8  C   UNL     1      -5.941  19.051  68.243  0.00  0.00    -0.015 A 
ATOM      9  C   UNL     1      -5.157  19.774  67.352  0.00  0.00    -0.007 A 
ATOM     10  C   UNL     1      -5.320  19.638  65.980  0.00  0.00    -0.001 A 
ATOM     11  C   UNL     1      -5.936  18.477  65.547  0.00  0.00    -0.000 A 
ATOM     12  C   UNL     1      -6.531  17.628  66.471  0.00  0.00    -0.001 A 
BRANCH   8  13
ATOM     13  C   UNL     1      -5.878  19.271  69.687  0.00  0.00    +0.044 A 
ATOM     14  N   UNL     1      -6.307  20.340  70.388  0.00  0.00    -0.289 NA
ATOM     15  N   UNL     1      -5.901  20.158  71.619  0.00  0.00    -0.218 NA
ATOM     16  N   UNL     1      -5.307  18.976  71.763  0.00  0.00    -0.218 NA
ATOM     17  N   UNL     1      -5.128  18.517  70.528  0.00  0.00    -0.289 NA
ENDBRANCH   8  13
ENDBRANCH   4   7
BRANCH   1  18
ATOM     18  C   UNL     1     -11.778  15.704  68.589  0.00  0.00    +0.137 C 
BRANCH  18  20
ATOM     19  C   UNL     1     -10.873  13.524  67.834  0.00  0.00    +0.301 A 
ATOM     20  N   UNL     1     -11.496  14.281  68.759  0.00  0.00    -0.277 N 
ATOM     21  C   UNL     1     -12.198  13.500  69.611  0.00  0.00    +0.088 A 
ATOM     22  C   UNL     1     -11.866  12.207  69.236  0.00  0.00    +0.102 A 
ATOM     23  C   UNL     1     -12.276  11.180  70.077  0.00  0.00    +0.021 A 
ATOM     24  C   UNL     1     -12.728  11.487  71.351  0.00  0.00    +0.002 A 
ATOM     25  C   UNL     1     -13.001  12.798  71.712  0.00  0.00    +0.008 A 
ATOM     26  C   UNL     1     -12.548  13.819  70.916  0.00  0.00    +0.097 A 
ATOM     27  N   UNL     1     -11.093  12.232  68.125  0.00  0.00    -0.194 NA
BRANCH  26  28
ATOM     28  C   UNL     1     -12.281  15.116  71.511  0.00  0.00    +0.389 C 
ATOM     29  O   UNL     1     -13.373  15.932  71.794  0.00  0.00    -0.240 OA
ATOM     30  O   UNL     1     -11.315  15.189  72.324  0.00  0.00    -0.240 OA
ENDBRANCH  26  28
BRANCH  19  31
ATOM     31  O   UNL     1      -9.976  14.080  66.916  0.00  0.00    -0.448 OA
BRANCH  31  33
ATOM     32  C   UNL     1     -10.891  15.051  64.969  0.00  0.00    +0.051 C 
ATOM     33  C   UNL     1     -10.215  13.823  65.535  0.00  0.00    +0.209 C 
ENDBRANCH  31  33
ENDBRANCH  19  31
ENDBRANCH  18  20
ENDBRANCH   1  18
TORSDOF 7
ENDMDL
MODEL 7
REMARK VINA RESULT:      -6.6      2.133      2.720
REMARK  Name = 
REMARK  7 active torsions:
REMARK  status: ('A' for Active; 'I' for Inactive)
REMARK    1  A    between atoms: C_2  and  O_3
REMARK    2  A    between atoms: O_3  and  C_4
REMARK    3  A    between atoms: C_10  and  C_11
REMARK    4  A    between atoms: N_15  and  C_16
REMARK    5  A    between atoms: C_16  and  C_17
REMARK    6  A    between atoms: C_20  and  C_21
REMARK    7  A    between atoms: C_26  and  C_27
REMARK                            x       y       z     vdW  Elec       q    Type
REMARK                         _______ _______ _______ _____ _____    ______ ____
ROOT
ATOM      1  C   UNL     1     -10.932  13.783  66.606  0.00  0.00    +0.001 A 
ATOM      2  C   UNL     1      -9.614  13.485  66.937  0.00  0.00    -0.002 A 
ATOM      3  C   UNL     1      -8.611  14.426  66.736  0.00  0.00    -0.000 A 
ATOM      4  C   UNL     1      -8.903  15.695  66.250  0.00  0.00    -0.001 A 
ATOM      5  C   UNL     1     -10.123  15.805  65.594  0.00  0.00    -0.000 A 
ATOM      6  C   UNL     1     -11.078  14.800  65.672  0.00  0.00    -0.002 A 
ENDROOT
BRANCH   4   7
ATOM      7  C   UNL     1      -8.270  16.901  66.799  0.00  0.00    -0.006 A 
ATOM      8  C   UNL     1      -8.977  17.680  67.707  0.00  0.00    -0.015 A 
ATOM      9  C   UNL     1      -8.776  19.054  67.761  0.00  0.00    -0.007 A 
ATOM     10  C   UNL     1      -8.052  19.713  66.776  0.00  0.00    -0.001 A 
ATOM     11  C   UNL     1      -7.190  18.935  66.025  0.00  0.00    -0.000 A 
ATOM     12  C   UNL     1      -7.235  17.551  66.138  0.00  0.00    -0.001 A 
BRANCH   8  13
ATOM     13  C   UNL     1      -9.841  16.984  68.659  0.00  0.00    +0.044 A 
ATOM     14  N   UNL     1      -9.503  16.025  69.546  0.00  0.00    -0.289 NA
ATOM     15  N   UNL     1     -10.625  15.597  70.066  0.00  0.00    -0.218 NA
ATOM     16  N   UNL     1     -11.665  16.299  69.621  0.00  0.00    -0.218 NA
ATOM     17  N   UNL     1     -11.195  17.025  68.611  0.00  0.00    -0.289 NA
ENDBRANCH   8  13
ENDBRANCH   4   7
BRANCH   1  18
ATOM     18  C   UNL     1     -11.933  12.680  66.525  0.00  0.00    +0.137 C 
BRANCH  18  20
ATOM     19  C   UNL     1     -10.659  10.635  67.106  0.00  0.00    +0.301 A 
ATOM     20  N   UNL     1     -11.167  11.483  66.189  0.00  0.00    -0.277 N 
ATOM     21  C   UNL     1     -10.518  11.345  65.011  0.00  0.00    +0.088 A 
ATOM     22  C   UNL     1      -9.667  10.270  65.217  0.00  0.00    +0.102 A 
ATOM     23  C   UNL     1      -9.017   9.755  64.103  0.00  0.00    +0.021 A 
ATOM     24  C   UNL     1      -9.444  10.128  62.837  0.00  0.00    +0.002 A 
ATOM     25  C   UNL     1     -10.337  11.174  62.667  0.00  0.00    +0.008 A 
ATOM     26  C   UNL     1     -11.025  11.648  63.755  0.00  0.00    +0.097 A 
ATOM     27  N   UNL     1      -9.729   9.873  66.510  0.00  0.00    -0.194 NA
BRANCH  26  28
ATOM     28  C   UNL     1     -12.324  12.268  63.556  0.00  0.00    +0.389 C 
ATOM     29  O   UNL     1     -12.349  13.556  63.028  0.00  0.00    -0.240 OA
ATOM     30  O   UNL     1     -13.275  11.512  63.207  0.00  0.00    -0.240 OA
ENDBRANCH  26  28
BRANCH  19  31
ATOM     31  O   UNL     1     -11.242  10.488  68.369  0.00  0.00    -0.448 OA
BRANCH  31  33
ATOM     32  C   UNL     1      -9.921   9.751  70.180  0.00  0.00    +0.051 C 
ATOM     33  C   UNL     1     -10.899   9.321  69.111  0.00  0.00    +0.209 C 
ENDBRANCH  31  33
ENDBRANCH  19  31
ENDBRANCH  18  20
ENDBRANCH   1  18
TORSDOF 7
ENDMDL
MODEL 8
REMARK VINA RESULT:      -6.6      2.500      6.827
REMARK  Name = 
REMARK  7 active torsions:
REMARK  status: ('A' for Active; 'I' for Inactive)
REMARK    1  A    between atoms: C_2  and  O_3
REMARK    2  A    between atoms: O_3  and  C_4
REMARK    3  A    between atoms: C_10  and  C_11
REMARK    4  A    between atoms: N_15  and  C_16
REMARK    5  A    between atoms: C_16  and  C_17
REMARK    6  A    between atoms: C_20  and  C_21
REMARK    7  A    between atoms: C_26  and  C_27
REMARK                            x       y       z     vdW  Elec       q    Type
REMARK                         _______ _______ _______ _____ _____    ______ ____
ROOT
ATOM      1  C   UNL     1     -10.465  15.355  67.887  0.00  0.00    +0.001 A 
ATOM      2  C   UNL     1     -11.759  14.849  67.819  0.00  0.00    -0.002 A 
ATOM      3  C   UNL     1     -12.149  14.064  66.740  0.00  0.00    -0.000 A 
ATOM      4  C   UNL     1     -11.250  13.726  65.735  0.00  0.00    -0.001 A 
ATOM      5  C   UNL     1     -10.130  14.544  65.651  0.00  0.00    -0.000 A 
ATOM      6  C   UNL     1      -9.812  15.439  66.664  0.00  0.00    -0.002 A 
ENDROOT
BRANCH   4   7
ATOM      7  C   UNL     1     -11.201  12.376  65.161  0.00  0.00    -0.006 A 
ATOM      8  C   UNL     1     -10.655  11.343  65.914  0.00  0.00    -0.015 A 
ATOM      9  C   UNL     1      -9.997  10.289  65.292  0.00  0.00    -0.007 A 
ATOM     10  C   UNL     1      -9.665  10.347  63.944  0.00  0.00    -0.001 A 
ATOM     11  C   UNL     1     -10.383  11.243  63.173  0.00  0.00    -0.000 A 
ATOM     12  C   UNL     1     -11.225  12.161  63.789  0.00  0.00    -0.001 A 
BRANCH   8  13
ATOM     13  C   UNL     1     -10.901  11.361  67.356  0.00  0.00    +0.044 A 
ATOM     14  N   UNL     1     -10.012  11.554  68.351  0.00  0.00    -0.289 NA
ATOM     15  N   UNL     1     -10.659  11.329  69.467  0.00  0.00    -0.218 NA
ATOM     16  N   UNL     1     -11.948  11.088  69.240  0.00  0.00    -0.218 NA
ATOM     17  N   UNL     1     -12.050  10.922  67.925  0.00  0.00    -0.289 NA
ENDBRANCH   8  13
ENDBRANCH   4   7
BRANCH   1  18
ATOM     18  C   UNL     1     -10.153  16.438  68.864  0.00  0.00    +0.137 C 
BRANCH  18  20
ATOM     19  C   UNL     1      -7.738  15.918  69.063  0.00  0.00    +0.301 A 
ATOM     20  N   UNL     1      -8.736  16.737  68.675  0.00  0.00    -0.277 N 
ATOM     21  C   UNL     1      -8.276  17.999  68.520  0.00  0.00    +0.088 A 
ATOM     22  C   UNL     1      -6.907  17.886  68.710  0.00  0.00    +0.102 A 
ATOM     23  C   UNL     1      -6.132  18.996  68.401  0.00  0.00    +0.021 A 
ATOM     24  C   UNL     1      -6.694  20.033  67.672  0.00  0.00    +0.002 A 
ATOM     25  C   UNL     1      -8.061  20.090  67.454  0.00  0.00    +0.008 A 
ATOM     26  C   UNL     1      -8.824  18.977  67.702  0.00  0.00    +0.097 A 
ATOM     27  N   UNL     1      -6.596  16.622  69.083  0.00  0.00    -0.194 NA
BRANCH  26  28
ATOM     28  C   UNL     1     -10.062  18.788  66.965  0.00  0.00    +0.389 C 
ATOM     29  O   UNL     1     -11.218  19.361  67.490  0.00  0.00    -0.240 OA
ATOM     30  O   UNL     1      -9.983  18.766  65.704  0.00  0.00    -0.240 OA
ENDBRANCH  26  28
BRANCH  19  31
ATOM     31  O   UNL     1      -7.923  14.535  69.166  0.00  0.00    -0.448 OA
BRANCH  31  33
ATOM     32  C   UNL     1      -6.992  13.125  67.519  0.00  0.00    +0.051 C 
ATOM     33  C   UNL     1      -6.795  13.707  68.900  0.00  0.00    +0.209 C 
ENDBRANCH  31  33
ENDBRANCH  19  31
ENDBRANCH  18  20
ENDBRANCH   1  18
TORSDOF 7
ENDMDL
MODEL 9
REMARK VINA RESULT:      -6.5      4.184      6.990
REMARK  Name = 
REMARK  7 active torsions:
REMARK  status: ('A' for Active; 'I' for Inactive)
REMARK    1  A    between atoms: C_2  and  O_3
REMARK    2  A    between atoms: O_3  and  C_4
REMARK    3  A    between atoms: C_10  and  C_11
REMARK    4  A    between atoms: N_15  and  C_16
REMARK    5  A    between atoms: C_16  and  C_17
REMARK    6  A    between atoms: C_20  and  C_21
REMARK    7  A    between atoms: C_26  and  C_27
REMARK                            x       y       z     vdW  Elec       q    Type
REMARK                         _______ _______ _______ _____ _____    ______ ____
ROOT
ATOM      1  C   UNL     1      -9.796   9.724  68.484  0.00  0.00    +0.001 A 
ATOM      2  C   UNL     1      -8.999  10.861  68.566  0.00  0.00    -0.002 A 
ATOM      3  C   UNL     1      -9.548  12.119  68.342  0.00  0.00    -0.000 A 
ATOM      4  C   UNL     1     -10.904  12.276  68.084  0.00  0.00    -0.001 A 
ATOM      5  C   UNL     1     -11.553  11.129  67.642  0.00  0.00    -0.000 A 
ATOM      6  C   UNL     1     -10.951   9.880  67.729  0.00  0.00    -0.002 A 
ENDROOT
BRANCH   4   7
ATOM      7  C   UNL     1     -11.689  13.360  68.687  0.00  0.00    -0.006 A 
ATOM      8  C   UNL     1     -11.721  14.599  68.058  0.00  0.00    -0.015 A 
ATOM      9  C   UNL     1     -11.848  15.765  68.804  0.00  0.00    -0.007 A 
ATOM     10  C   UNL     1     -11.714  15.749  70.187  0.00  0.00    -0.001 A 
ATOM     11  C   UNL     1     -11.901  14.527  70.808  0.00  0.00    -0.000 A 
ATOM     12  C   UNL     1     -12.003  13.373  70.041  0.00  0.00    -0.001 A 
BRANCH   8  13
ATOM     13  C   UNL     1     -11.730  14.610  66.596  0.00  0.00    +0.044 A 
ATOM     14  N   UNL     1     -10.930  15.304  65.761  0.00  0.00    -0.289 NA
ATOM     15  N   UNL     1     -11.409  15.119  64.557  0.00  0.00    -0.218 NA
ATOM     16  N   UNL     1     -12.427  14.262  64.567  0.00  0.00    -0.218 NA
ATOM     17  N   UNL     1     -12.741  14.101  65.849  0.00  0.00    -0.289 NA
ENDBRANCH   8  13
ENDBRANCH   4   7
BRANCH   1  18
ATOM     18  C   UNL     1      -9.149   8.382  68.408  0.00  0.00    +0.137 C 
BRANCH  18  20
ATOM     19  C   UNL     1     -10.903   6.716  68.947  0.00  0.00    +0.301 A 
ATOM     20  N   UNL     1      -9.903   7.535  69.328  0.00  0.00    -0.277 N 
ATOM     21  C   UNL     1      -9.992   7.803  70.651  0.00  0.00    +0.088 A 
ATOM     22  C   UNL     1     -11.031   6.997  71.090  0.00  0.00    +0.102 A 
ATOM     23  C   UNL     1     -11.220   6.899  72.463  0.00  0.00    +0.021 A 
ATOM     24  C   UNL     1     -10.228   7.357  73.316  0.00  0.00    +0.002 A 
ATOM     25  C   UNL     1      -9.173   8.118  72.838  0.00  0.00    +0.008 A 
ATOM     26  C   UNL     1      -8.947   8.171  71.486  0.00  0.00    +0.097 A 
ATOM     27  N   UNL     1     -11.608   6.371  70.036  0.00  0.00    -0.194 NA
BRANCH  26  28
ATOM     28  C   UNL     1      -7.600   8.420  71.003  0.00  0.00    +0.389 C 
ATOM     29  O   UNL     1      -7.029   9.656  71.294  0.00  0.00    -0.240 OA
ATOM     30  O   UNL     1      -6.804   7.438  70.984  0.00  0.00    -0.240 OA
ENDBRANCH  26  28
BRANCH  19  31
ATOM     31  O   UNL     1     -10.960   6.182  67.655  0.00  0.00    -0.448 OA
BRANCH  31  33
ATOM     32  C   UNL     1      -9.300   5.342  66.205  0.00  0.00    +0.051 C 
ATOM     33  C   UNL     1     -10.175   5.023  67.395  0.00  0.00    +0.209 C 
ENDBRANCH  31  33
ENDBRANCH  19  31
ENDBRANCH  18  20
ENDBRANCH   1  18
TORSDOF 7
ENDMDL
