MODEL 1
REMARK VINA RESULT:      -4.1      0.000      0.000
REMARK  Name = 
REMARK  4 active torsions:
REMARK  status: ('A' for Active; 'I' for Inactive)
REMARK    1  A    between atoms: C_2  and  C_3
REMARK    2  A    between atoms: C_3  and  C_5
REMARK    3  A    between atoms: C_5  and  C_6
REMARK    4  A    between atoms: C_6  and  C_7
REMARK                            x       y       z     vdW  Elec       q    Type
REMARK                         _______ _______ _______ _____ _____    ______ ____
ROOT
ATOM      1  C   UNL     1     -10.698  13.995  64.871  0.00  0.00    +0.035 C 
ENDROOT
BRANCH   1   2
ATOM      2  C   UNL     1     -11.741  12.825  65.469  0.00  0.00    +0.114 C 
ATOM      3  N   UNL     1     -13.019  13.690  65.025  0.00  0.00    -0.128 NA
BRANCH   2   5
ATOM      4  C   UNL     1     -12.349  12.103  63.401  0.00  0.00    -0.003 C 
ATOM      5  C   UNL     1     -11.746  12.021  64.030  0.00  0.00    -0.008 C 
ENDBRANCH   2   5
ENDBRANCH   1   2
BRANCH   1   6
ATOM      6  C   UNL     1     -10.876  15.029  65.980  0.00  0.00    +0.116 C 
BRANCH   6   7
ATOM      7  C   UNL     1     -10.553  16.345  65.340  0.00  0.00    +0.365 C 
ATOM      8  O   UNL     1     -11.291  16.814  64.265  0.00  0.00    -0.246 OA
ATOM      9  O   UNL     1      -9.447  16.854  65.645  0.00  0.00    -0.246 OA
ENDBRANCH   6   7
ENDBRANCH   1   6
TORSDOF 4
ENDMDL
MODEL 2
REMARK VINA RESULT:      -3.9      6.266      7.419
REMARK  Name = 
REMARK  4 active torsions:
REMARK  status: ('A' for Active; 'I' for Inactive)
REMARK    1  A    between atoms: C_2  and  C_3
REMARK    2  A    between atoms: C_3  and  C_5
REMARK    3  A    between atoms: C_5  and  C_6
REMARK    4  A    between atoms: C_6  and  C_7
REMARK                            x       y       z     vdW  Elec       q    Type
REMARK                         _______ _______ _______ _____ _____    ______ ____
ROOT
ATOM      1  C   UNL     1     -11.960  15.189  71.669  0.00  0.00    +0.035 C 
ENDROOT
BRANCH   1   2
ATOM      2  C   UNL     1     -13.487  15.527  72.276  0.00  0.00    +0.114 C 
ATOM      3  N   UNL     1     -13.696  13.990  72.695  0.00  0.00    -0.128 NA
BRANCH   2   5
ATOM      4  C   UNL     1     -12.382  15.348  74.254  0.00  0.00    -0.003 C 
ATOM      5  C   UNL     1     -12.872  15.882  73.764  0.00  0.00    -0.008 C 
ENDBRANCH   2   5
ENDBRANCH   1   2
BRANCH   1   6
ATOM      6  C   UNL     1     -12.370  14.175  70.604  0.00  0.00    +0.116 C 
BRANCH   6   7
ATOM      7  C   UNL     1     -12.033  14.825  69.297  0.00  0.00    +0.365 C 
ATOM      8  O   UNL     1     -12.028  16.205  69.168  0.00  0.00    -0.246 OA
ATOM      9  O   UNL     1     -12.021  14.075  68.291  0.00  0.00    -0.246 OA
ENDBRANCH   6   7
ENDBRANCH   1   6
TORSDOF 4
ENDMDL
MODEL 3
REMARK VINA RESULT:      -3.8      6.716      7.502
REMARK  Name = 
REMARK  4 active torsions:
REMARK  status: ('A' for Active; 'I' for Inactive)
REMARK    1  A    between atoms: C_2  and  C_3
REMARK    2  A    between atoms: C_3  and  C_5
REMARK    3  A    between atoms: C_5  and  C_6
REMARK    4  A    between atoms: C_6  and  C_7
REMARK                            x       y       z     vdW  Elec       q    Type
REMARK                         _______ _______ _______ _____ _____    ______ ____
ROOT
ATOM      1  C   UNL     1     -11.588  15.127  71.682  0.00  0.00    +0.035 C 
ENDROOT
BRANCH   1   2
ATOM      2  C   UNL     1     -12.626  15.489  70.415  0.00  0.00    +0.114 C 
ATOM      3  N   UNL     1     -11.511  16.416  69.723  0.00  0.00    -0.128 NA
BRANCH   2   5
ATOM      4  C   UNL     1     -11.936  14.169  68.698  0.00  0.00    -0.003 C 
ATOM      5  C   UNL     1     -12.115  14.179  69.554  0.00  0.00    -0.008 C 
ENDBRANCH   2   5
ENDBRANCH   1   2
BRANCH   1   6
ATOM      6  C   UNL     1     -12.022  16.235  72.639  0.00  0.00    +0.116 C 
BRANCH   6   7
ATOM      7  C   UNL     1     -12.554  15.521  73.844  0.00  0.00    +0.365 C 
ATOM      8  O   UNL     1     -12.476  16.094  75.103  0.00  0.00    -0.246 OA
ATOM      9  O   UNL     1     -12.819  14.303  73.695  0.00  0.00    -0.246 OA
ENDBRANCH   6   7
ENDBRANCH   1   6
TORSDOF 4
ENDMDL
MODEL 4
REMARK VINA RESULT:      -3.8      1.731      2.055
REMARK  Name = 
REMARK  4 active torsions:
REMARK  status: ('A' for Active; 'I' for Inactive)
REMARK    1  A    between atoms: C_2  and  C_3
REMARK    2  A    between atoms: C_3  and  C_5
REMARK    3  A    between atoms: C_5  and  C_6
REMARK    4  A    between atoms: C_6  and  C_7
REMARK                            x       y       z     vdW  Elec       q    Type
REMARK                         _______ _______ _______ _____ _____    ______ ____
ROOT
ATOM      1  C   UNL     1     -10.567  13.468  64.672  0.00  0.00    +0.035 C 
ENDROOT
BRANCH   1   2
ATOM      2  C   UNL     1     -10.544  12.751  66.188  0.00  0.00    +0.114 C 
ATOM      3  N   UNL     1     -12.046  12.215  65.993  0.00  0.00    -0.128 NA
BRANCH   2   5
ATOM      4  C   UNL     1     -10.306  10.561  65.627  0.00  0.00    -0.003 C 
ATOM      5  C   UNL     1      -9.931  11.350  65.572  0.00  0.00    -0.008 C 
ENDBRANCH   2   5
ENDBRANCH   1   2
BRANCH   1   6
ATOM      6  C   UNL     1     -10.392  14.919  65.116  0.00  0.00    +0.116 C 
BRANCH   6   7
ATOM      7  C   UNL     1     -11.534  15.658  64.489  0.00  0.00    +0.365 C 
ATOM      8  O   UNL     1     -12.639  14.980  63.999  0.00  0.00    -0.246 OA
ATOM      9  O   UNL     1     -11.323  16.860  64.197  0.00  0.00    -0.246 OA
ENDBRANCH   6   7
ENDBRANCH   1   6
TORSDOF 4
ENDMDL
MODEL 5
REMARK VINA RESULT:      -3.8      3.346      5.156
REMARK  Name = 
REMARK  4 active torsions:
REMARK  status: ('A' for Active; 'I' for Inactive)
REMARK    1  A    between atoms: C_2  and  C_3
REMARK    2  A    between atoms: C_3  and  C_5
REMARK    3  A    between atoms: C_5  and  C_6
REMARK    4  A    between atoms: C_6  and  C_7
REMARK                            x       y       z     vdW  Elec       q    Type
REMARK                         _______ _______ _______ _____ _____    ______ ____
ROOT
ATOM      1  C   UNL     1      -9.654  17.432  66.246  0.00  0.00    +0.035 C 
ENDROOT
BRANCH   1   2
ATOM      2  C   UNL     1     -10.504  17.779  67.650  0.00  0.00    +0.114 C 
ATOM      3  N   UNL     1      -9.140  18.101  68.435  0.00  0.00    -0.128 NA
BRANCH   2   5
ATOM      4  C   UNL     1     -10.457  19.705  66.443  0.00  0.00    -0.003 C 
ATOM      5  C   UNL     1     -10.667  19.362  67.220  0.00  0.00    -0.008 C 
ENDBRANCH   2   5
ENDBRANCH   1   2
BRANCH   1   6
ATOM      6  C   UNL     1      -9.966  15.939  66.169  0.00  0.00    +0.116 C 
BRANCH   6   7
ATOM      7  C   UNL     1     -10.893  15.795  65.000  0.00  0.00    +0.365 C 
ATOM      8  O   UNL     1     -11.273  16.898  64.253  0.00  0.00    -0.246 OA
ATOM      9  O   UNL     1     -11.499  14.700  64.905  0.00  0.00    -0.246 OA
ENDBRANCH   6   7
ENDBRANCH   1   6
TORSDOF 4
ENDMDL
MODEL 6
REMARK VINA RESULT:      -3.7      5.688      6.551
REMARK  Name = 
REMARK  4 active torsions:
REMARK  status: ('A' for Active; 'I' for Inactive)
REMARK    1  A    between atoms: C_2  and  C_3
REMARK    2  A    between atoms: C_3  and  C_5
REMARK    3  A    between atoms: C_5  and  C_6
REMARK    4  A    between atoms: C_6  and  C_7
REMARK                            x       y       z     vdW  Elec       q    Type
REMARK                         _______ _______ _______ _____ _____    ______ ____
ROOT
ATOM      1  C   UNL     1     -12.724  15.165  70.655  0.00  0.00    +0.035 C 
ENDROOT
BRANCH   1   2
ATOM      2  C   UNL     1     -13.311  15.614  72.160  0.00  0.00    +0.114 C 
ATOM      3  N   UNL     1     -14.826  15.519  71.634  0.00  0.00    -0.128 NA
BRANCH   2   5
ATOM      4  C   UNL     1     -13.777  13.392  72.268  0.00  0.00    -0.003 C 
ATOM      5  C   UNL     1     -13.356  14.047  72.668  0.00  0.00    -0.008 C 
ENDBRANCH   2   5
ENDBRANCH   1   2
BRANCH   1   6
ATOM      6  C   UNL     1     -11.243  15.439  70.910  0.00  0.00    +0.116 C 
BRANCH   6   7
ATOM      7  C   UNL     1     -10.754  16.116  69.666  0.00  0.00    +0.365 C 
ATOM      8  O   UNL     1     -11.643  16.603  68.723  0.00  0.00    -0.246 OA
ATOM      9  O   UNL     1      -9.533  15.980  69.405  0.00  0.00    -0.246 OA
ENDBRANCH   6   7
ENDBRANCH   1   6
TORSDOF 4
ENDMDL
MODEL 7
REMARK VINA RESULT:      -3.6      6.500      7.417
REMARK  Name = 
REMARK  4 active torsions:
REMARK  status: ('A' for Active; 'I' for Inactive)
REMARK    1  A    between atoms: C_2  and  C_3
REMARK    2  A    between atoms: C_3  and  C_5
REMARK    3  A    between atoms: C_5  and  C_6
REMARK    4  A    between atoms: C_6  and  C_7
REMARK                            x       y       z     vdW  Elec       q    Type
REMARK                         _______ _______ _______ _____ _____    ______ ____
ROOT
ATOM      1  C   UNL     1     -11.981  16.088  71.378  0.00  0.00    +0.035 C 
ENDROOT
BRANCH   1   2
ATOM      2  C   UNL     1     -11.192  14.985  70.391  0.00  0.00    +0.114 C 
ATOM      3  N   UNL     1     -12.483  14.030  70.370  0.00  0.00    -0.128 NA
BRANCH   2   5
ATOM      4  C   UNL     1     -11.580  15.486  68.208  0.00  0.00    -0.003 C 
ATOM      5  C   UNL     1     -11.704  15.760  69.029  0.00  0.00    -0.008 C 
ENDBRANCH   2   5
ENDBRANCH   1   2
BRANCH   1   6
ATOM      6  C   UNL     1     -11.855  15.326  72.696  0.00  0.00    +0.116 C 
BRANCH   6   7
ATOM      7  C   UNL     1     -12.813  16.003  73.629  0.00  0.00    +0.365 C 
ATOM      8  O   UNL     1     -12.554  16.072  74.988  0.00  0.00    -0.246 OA
ATOM      9  O   UNL     1     -13.952  16.257  73.166  0.00  0.00    -0.246 OA
ENDBRANCH   6   7
ENDBRANCH   1   6
TORSDOF 4
ENDMDL
MODEL 8
REMARK VINA RESULT:      -3.5      2.676      4.574
REMARK  Name = 
REMARK  4 active torsions:
REMARK  status: ('A' for Active; 'I' for Inactive)
REMARK    1  A    between atoms: C_2  and  C_3
REMARK    2  A    between atoms: C_3  and  C_5
REMARK    3  A    between atoms: C_5  and  C_6
REMARK    4  A    between atoms: C_6  and  C_7
REMARK                            x       y       z     vdW  Elec       q    Type
REMARK                         _______ _______ _______ _____ _____    ______ ____
ROOT
ATOM      1  C   UNL     1     -10.874  15.266  66.500  0.00  0.00    +0.035 C 
ENDROOT
BRANCH   1   2
ATOM      2  C   UNL     1      -9.793  16.303  65.746  0.00  0.00    +0.114 C 
ATOM      3  N   UNL     1     -10.894  16.706  64.648  0.00  0.00    -0.128 NA
BRANCH   2   5
ATOM      4  C   UNL     1     -10.385  18.383  66.444  0.00  0.00    -0.003 C 
ATOM      5  C   UNL     1     -10.247  17.561  66.709  0.00  0.00    -0.008 C 
ENDBRANCH   2   5
ENDBRANCH   1   2
BRANCH   1   6
ATOM      6  C   UNL     1     -10.971  14.215  65.398  0.00  0.00    +0.116 C 
BRANCH   6   7
ATOM      7  C   UNL     1     -12.237  13.466  65.685  0.00  0.00    +0.365 C 
ATOM      8  O   UNL     1     -12.203  12.168  66.166  0.00  0.00    -0.246 OA
ATOM      9  O   UNL     1     -13.293  13.965  65.224  0.00  0.00    -0.246 OA
ENDBRANCH   6   7
ENDBRANCH   1   6
TORSDOF 4
ENDMDL
MODEL 9
REMARK VINA RESULT:      -3.5      6.125      7.089
REMARK  Name = 
REMARK  4 active torsions:
REMARK  status: ('A' for Active; 'I' for Inactive)
REMARK    1  A    between atoms: C_2  and  C_3
REMARK    2  A    between atoms: C_3  and  C_5
REMARK    3  A    between atoms: C_5  and  C_6
REMARK    4  A    between atoms: C_6  and  C_7
REMARK                            x       y       z     vdW  Elec       q    Type
REMARK                         _______ _______ _______ _____ _____    ______ ____
ROOT
ATOM      1  C   UNL     1     -11.787  16.204  71.304  0.00  0.00    +0.035 C 
ENDROOT
BRANCH   1   2
ATOM      2  C   UNL     1     -11.686  15.147  70.006  0.00  0.00    +0.114 C 
ATOM      3  N   UNL     1     -11.954  16.344  68.968  0.00  0.00    -0.128 NA
BRANCH   2   5
ATOM      4  C   UNL     1      -9.566  15.177  69.188  0.00  0.00    -0.003 C 
ATOM      5  C   UNL     1     -10.057  15.367  69.887  0.00  0.00    -0.008 C 
ENDBRANCH   2   5
ENDBRANCH   1   2
BRANCH   1   6
ATOM      6  C   UNL     1     -12.038  15.174  72.403  0.00  0.00    +0.116 C 
BRANCH   6   7
ATOM      7  C   UNL     1     -13.513  14.916  72.363  0.00  0.00    +0.365 C 
ATOM      8  O   UNL     1     -14.417  15.961  72.260  0.00  0.00    -0.246 OA
ATOM      9  O   UNL     1     -13.884  13.762  72.691  0.00  0.00    -0.246 OA
ENDBRANCH   6   7
ENDBRANCH   1   6
TORSDOF 4
ENDMDL
