MODEL 1
REMARK VINA RESULT:      -7.3      0.000      0.000
REMARK  Name = 
REMARK  8 active torsions:
REMARK  status: ('A' for Active; 'I' for Inactive)
REMARK    1  A    between atoms: C_2  and  C_3
REMARK    2  A    between atoms: C_3  and  C_4
REMARK    3  A    between atoms: C_6  and  C_7
REMARK    4  A    between atoms: C_11  and  C_12
REMARK    5  A    between atoms: N_15  and  C_16
REMARK    6  A    between atoms: C_16  and  C_17
REMARK    7  A    between atoms: C_20  and  C_21
REMARK    8  A    between atoms: C_26  and  C_27
REMARK                            x       y       z     vdW  Elec       q    Type
REMARK                         _______ _______ _______ _____ _____    ______ ____
ROOT
ATOM      1  C   UNL     1      -8.275  16.373  66.269  0.00  0.00    +0.000 A 
ATOM      2  C   UNL     1      -7.951  15.349  67.144  0.00  0.00    -0.002 A 
ATOM      3  C   UNL     1      -8.916  14.379  67.347  0.00  0.00    -0.000 A 
ATOM      4  C   UNL     1     -10.248  14.567  66.993  0.00  0.00    -0.001 A 
ATOM      5  C   UNL     1     -10.586  15.822  66.566  0.00  0.00    -0.000 A 
ATOM      6  C   UNL     1      -9.596  16.589  65.963  0.00  0.00    -0.002 A 
ENDROOT
BRANCH   4   7
ATOM      7  C   UNL     1     -11.186  13.663  67.674  0.00  0.00    -0.006 A 
ATOM      8  C   UNL     1     -11.396  12.449  67.030  0.00  0.00    -0.015 A 
ATOM      9  C   UNL     1     -11.504  11.295  67.800  0.00  0.00    -0.007 A 
ATOM     10  C   UNL     1     -11.599  11.355  69.185  0.00  0.00    -0.001 A 
ATOM     11  C   UNL     1     -11.866  12.600  69.743  0.00  0.00    -0.000 A 
ATOM     12  C   UNL     1     -11.316  13.678  69.059  0.00  0.00    -0.001 A 
BRANCH   8  13
ATOM     13  C   UNL     1     -11.824  12.528  65.648  0.00  0.00    +0.044 A 
ATOM     14  N   UNL     1     -11.032  12.121  64.626  0.00  0.00    -0.289 NA
ATOM     15  N   UNL     1     -11.805  11.921  63.581  0.00  0.00    -0.218 NA
ATOM     16  N   UNL     1     -12.928  12.586  63.842  0.00  0.00    -0.218 NA
ATOM     17  N   UNL     1     -12.865  13.117  65.063  0.00  0.00    -0.289 NA
ENDBRANCH   8  13
ENDBRANCH   4   7
BRANCH   1  18
ATOM     18  C   UNL     1      -7.194  17.355  65.989  0.00  0.00    +0.134 C 
BRANCH  18  20
ATOM     19  C   UNL     1      -7.400  18.921  67.894  0.00  0.00    +0.120 A 
ATOM     20  N   UNL     1      -6.705  17.999  67.184  0.00  0.00    -0.306 N 
ATOM     21  C   UNL     1      -5.661  17.602  67.945  0.00  0.00    +0.158 A 
ATOM     22  C   UNL     1      -5.685  18.336  69.124  0.00  0.00    +0.110 A 
ATOM     23  N   UNL     1      -6.936  18.858  69.158  0.00  0.00    -0.233 NA
BRANCH  22  24
ATOM     24  C   UNL     1      -4.959  17.937  70.362  0.00  0.00    +0.163 C 
ATOM     25  O   UNL     1      -3.596  18.070  70.124  0.00  0.00    -0.220 OA
ATOM     26  C   UNL     1      -5.381  18.774  71.553  0.00  0.00    +0.039 C 
ATOM     27  C   UNL     1      -5.289  16.485  70.683  0.00  0.00    +0.039 C 
ENDBRANCH  22  24
BRANCH  21  28
ATOM     28  C   UNL     1      -4.494  16.907  67.399  0.00  0.00    +0.405 C 
ATOM     29  O   UNL     1      -3.499  17.617  66.717  0.00  0.00    -0.239 OA
ATOM     30  O   UNL     1      -4.461  15.654  67.257  0.00  0.00    -0.239 OA
ENDBRANCH  21  28
BRANCH  19  31
ATOM     31  C   UNL     1      -8.297  19.968  67.312  0.00  0.00    +0.064 C 
BRANCH  31  33
ATOM     32  C   UNL     1     -10.623  19.803  66.627  0.00  0.00    +0.000 C 
ATOM     33  C   UNL     1      -9.709  19.765  67.841  0.00  0.00    +0.008 C 
ENDBRANCH  31  33
ENDBRANCH  19  31
ENDBRANCH  18  20
ENDBRANCH   1  18
TORSDOF 8
ENDMDL
MODEL 2
REMARK VINA RESULT:      -7.2      3.034      8.168
REMARK  Name = 
REMARK  8 active torsions:
REMARK  status: ('A' for Active; 'I' for Inactive)
REMARK    1  A    between atoms: C_2  and  C_3
REMARK    2  A    between atoms: C_3  and  C_4
REMARK    3  A    between atoms: C_6  and  C_7
REMARK    4  A    between atoms: C_11  and  C_12
REMARK    5  A    between atoms: N_15  and  C_16
REMARK    6  A    between atoms: C_16  and  C_17
REMARK    7  A    between atoms: C_20  and  C_21
REMARK    8  A    between atoms: C_26  and  C_27
REMARK                            x       y       z     vdW  Elec       q    Type
REMARK                         _______ _______ _______ _____ _____    ______ ____
ROOT
ATOM      1  C   UNL     1     -10.004  17.265  67.891  0.00  0.00    +0.000 A 
ATOM      2  C   UNL     1      -9.016  17.227  66.919  0.00  0.00    -0.002 A 
ATOM      3  C   UNL     1      -7.870  17.956  67.174  0.00  0.00    -0.000 A 
ATOM      4  C   UNL     1      -7.815  18.943  68.152  0.00  0.00    -0.001 A 
ATOM      5  C   UNL     1      -9.002  19.260  68.754  0.00  0.00    -0.000 A 
ATOM      6  C   UNL     1      -9.977  18.271  68.823  0.00  0.00    -0.002 A 
ENDROOT
BRANCH   4   7
ATOM      7  C   UNL     1      -6.712  19.901  67.982  0.00  0.00    -0.006 A 
ATOM      8  C   UNL     1      -5.483  19.464  68.466  0.00  0.00    -0.015 A 
ATOM      9  C   UNL     1      -4.337  19.757  67.733  0.00  0.00    -0.007 A 
ATOM     10  C   UNL     1      -4.371  20.627  66.650  0.00  0.00    -0.001 A 
ATOM     11  C   UNL     1      -5.515  21.403  66.504  0.00  0.00    -0.000 A 
ATOM     12  C   UNL     1      -6.694  20.790  66.913  0.00  0.00    -0.001 A 
BRANCH   8  13
ATOM     13  C   UNL     1      -5.458  19.042  69.851  0.00  0.00    +0.044 A 
ATOM     14  N   UNL     1      -5.362  17.737  70.203  0.00  0.00    -0.289 NA
ATOM     15  N   UNL     1      -4.951  17.691  71.452  0.00  0.00    -0.218 NA
ATOM     16  N   UNL     1      -5.205  18.900  71.949  0.00  0.00    -0.218 NA
ATOM     17  N   UNL     1      -5.692  19.689  70.991  0.00  0.00    -0.289 NA
ENDBRANCH   8  13
ENDBRANCH   4   7
BRANCH   1  18
ATOM     18  C   UNL     1     -11.189  16.401  67.645  0.00  0.00    +0.134 C 
BRANCH  18  20
ATOM     19  C   UNL     1     -11.737  14.985  69.599  0.00  0.00    +0.120 A 
ATOM     20  N   UNL     1     -11.145  15.169  68.394  0.00  0.00    -0.306 N 
ATOM     21  C   UNL     1     -10.794  13.951  67.924  0.00  0.00    +0.158 A 
ATOM     22  C   UNL     1     -11.129  13.007  68.885  0.00  0.00    +0.110 A 
ATOM     23  N   UNL     1     -11.984  13.665  69.706  0.00  0.00    -0.233 NA
BRANCH  22  24
ATOM     24  C   UNL     1     -11.264  11.550  68.603  0.00  0.00    +0.163 C 
ATOM     25  O   UNL     1     -11.953  11.406  67.405  0.00  0.00    -0.220 OA
ATOM     26  C   UNL     1      -9.913  10.867  68.533  0.00  0.00    +0.039 C 
ATOM     27  C   UNL     1     -12.049  10.898  69.734  0.00  0.00    +0.039 C 
ENDBRANCH  22  24
BRANCH  21  28
ATOM     28  C   UNL     1      -9.821  13.762  66.847  0.00  0.00    +0.405 C 
ATOM     29  O   UNL     1      -8.448  13.814  67.112  0.00  0.00    -0.239 OA
ATOM     30  O   UNL     1     -10.142  13.832  65.629  0.00  0.00    -0.239 OA
ENDBRANCH  21  28
BRANCH  19  31
ATOM     31  C   UNL     1     -11.834  16.014  70.682  0.00  0.00    +0.064 C 
BRANCH  31  33
ATOM     32  C   UNL     1     -13.101  15.703  72.733  0.00  0.00    +0.000 C 
ATOM     33  C   UNL     1     -11.807  15.318  72.035  0.00  0.00    +0.008 C 
ENDBRANCH  31  33
ENDBRANCH  19  31
ENDBRANCH  18  20
ENDBRANCH   1  18
TORSDOF 8
ENDMDL
MODEL 3
REMARK VINA RESULT:      -7.1      3.772      6.220
REMARK  Name = 
REMARK  8 active torsions:
REMARK  status: ('A' for Active; 'I' for Inactive)
REMARK    1  A    between atoms: C_2  and  C_3
REMARK    2  A    between atoms: C_3  and  C_4
REMARK    3  A    between atoms: C_6  and  C_7
REMARK    4  A    between atoms: C_11  and  C_12
REMARK    5  A    between atoms: N_15  and  C_16
REMARK    6  A    between atoms: C_16  and  C_17
REMARK    7  A    between atoms: C_20  and  C_21
REMARK    8  A    between atoms: C_26  and  C_27
REMARK                            x       y       z     vdW  Elec       q    Type
REMARK                         _______ _______ _______ _____ _____    ______ ____
ROOT
ATOM      1  C   UNL     1     -11.674  12.731  68.008  0.00  0.00    +0.000 A 
ATOM      2  C   UNL     1     -12.041  12.588  69.336  0.00  0.00    -0.002 A 
ATOM      3  C   UNL     1     -11.505  11.509  70.014  0.00  0.00    -0.000 A 
ATOM      4  C   UNL     1     -10.920  10.431  69.357  0.00  0.00    -0.001 A 
ATOM      5  C   UNL     1     -11.033  10.424  67.994  0.00  0.00    -0.000 A 
ATOM      6  C   UNL     1     -11.146  11.650  67.348  0.00  0.00    -0.002 A 
ENDROOT
BRANCH   4   7
ATOM      7  C   UNL     1     -10.827   9.209  70.168  0.00  0.00    -0.006 A 
ATOM      8  C   UNL     1      -9.673   9.108  70.939  0.00  0.00    -0.015 A 
ATOM      9  C   UNL     1      -9.774   8.590  72.226  0.00  0.00    -0.007 A 
ATOM     10  C   UNL     1     -10.948   8.000  72.680  0.00  0.00    -0.001 A 
ATOM     11  C   UNL     1     -11.909   7.695  71.722  0.00  0.00    -0.000 A 
ATOM     12  C   UNL     1     -11.970   8.581  70.652  0.00  0.00    -0.001 A 
BRANCH   8  13
ATOM     13  C   UNL     1      -8.419   9.231  70.225  0.00  0.00    +0.044 A 
ATOM     14  N   UNL     1      -8.067   8.373  69.236  0.00  0.00    -0.289 NA
ATOM     15  N   UNL     1      -7.128   8.954  68.521  0.00  0.00    -0.218 NA
ATOM     16  N   UNL     1      -6.644   9.921  69.298  0.00  0.00    -0.218 NA
ATOM     17  N   UNL     1      -7.334   9.973  70.438  0.00  0.00    -0.289 NA
ENDBRANCH   8  13
ENDBRANCH   4   7
BRANCH   1  18
ATOM     18  C   UNL     1     -12.183  13.947  67.321  0.00  0.00    +0.134 C 
BRANCH  18  20
ATOM     19  C   UNL     1     -10.653  14.904  65.627  0.00  0.00    +0.120 A 
ATOM     20  N   UNL     1     -11.124  14.831  66.896  0.00  0.00    -0.306 N 
ATOM     21  C   UNL     1     -10.649  15.902  67.568  0.00  0.00    +0.158 A 
ATOM     22  C   UNL     1      -9.826  16.618  66.709  0.00  0.00    +0.110 A 
ATOM     23  N   UNL     1     -10.143  16.142  65.480  0.00  0.00    -0.233 NA
BRANCH  22  24
ATOM     24  C   UNL     1      -9.430  18.037  66.932  0.00  0.00    +0.163 C 
ATOM     25  O   UNL     1      -8.751  18.478  65.802  0.00  0.00    -0.220 OA
ATOM     26  C   UNL     1     -10.632  18.915  67.214  0.00  0.00    +0.039 C 
ATOM     27  C   UNL     1      -8.515  18.110  68.148  0.00  0.00    +0.039 C 
ENDBRANCH  22  24
BRANCH  21  28
ATOM     28  C   UNL     1     -10.631  15.984  69.030  0.00  0.00    +0.405 C 
ATOM     29  O   UNL     1      -9.697  15.251  69.770  0.00  0.00    -0.239 OA
ATOM     30  O   UNL     1     -11.594  16.461  69.690  0.00  0.00    -0.239 OA
ENDBRANCH  21  28
BRANCH  19  31
ATOM     31  C   UNL     1     -10.495  13.745  64.693  0.00  0.00    +0.064 C 
BRANCH  31  33
ATOM     32  C   UNL     1     -11.874  12.024  63.670  0.00  0.00    +0.000 C 
ATOM     33  C   UNL     1     -11.807  13.515  63.958  0.00  0.00    +0.008 C 
ENDBRANCH  31  33
ENDBRANCH  19  31
ENDBRANCH  18  20
ENDBRANCH   1  18
TORSDOF 8
ENDMDL
MODEL 4
REMARK VINA RESULT:      -6.9      3.408      8.595
REMARK  Name = 
REMARK  8 active torsions:
REMARK  status: ('A' for Active; 'I' for Inactive)
REMARK    1  A    between atoms: C_2  and  C_3
REMARK    2  A    between atoms: C_3  and  C_4
REMARK    3  A    between atoms: C_6  and  C_7
REMARK    4  A    between atoms: C_11  and  C_12
REMARK    5  A    between atoms: N_15  and  C_16
REMARK    6  A    between atoms: C_16  and  C_17
REMARK    7  A    between atoms: C_20  and  C_21
REMARK    8  A    between atoms: C_26  and  C_27
REMARK                            x       y       z     vdW  Elec       q    Type
REMARK                         _______ _______ _______ _____ _____    ______ ____
ROOT
ATOM      1  C   UNL     1      -9.705  17.376  67.685  0.00  0.00    +0.000 A 
ATOM      2  C   UNL     1      -8.802  17.515  66.644  0.00  0.00    -0.002 A 
ATOM      3  C   UNL     1      -7.679  18.281  66.897  0.00  0.00    -0.000 A 
ATOM      4  C   UNL     1      -7.596  19.149  67.981  0.00  0.00    -0.001 A 
ATOM      5  C   UNL     1      -8.744  19.317  68.706  0.00  0.00    -0.000 A 
ATOM      6  C   UNL     1      -9.655  18.267  68.728  0.00  0.00    -0.002 A 
ENDROOT
BRANCH   4   7
ATOM      7  C   UNL     1      -6.565  20.188  67.845  0.00  0.00    -0.006 A 
ATOM      8  C   UNL     1      -5.391  19.937  68.547  0.00  0.00    -0.015 A 
ATOM      9  C   UNL     1      -4.176  20.259  67.950  0.00  0.00    -0.007 A 
ATOM     10  C   UNL     1      -4.119  20.992  66.770  0.00  0.00    -0.001 A 
ATOM     11  C   UNL     1      -5.290  21.625  66.368  0.00  0.00    -0.000 A 
ATOM     12  C   UNL     1      -6.461  20.946  66.683  0.00  0.00    -0.001 A 
BRANCH   8  13
ATOM     13  C   UNL     1      -5.539  19.681  69.965  0.00  0.00    +0.044 A 
ATOM     14  N   UNL     1      -5.317  18.456  70.501  0.00  0.00    -0.289 NA
ATOM     15  N   UNL     1      -5.120  18.618  71.791  0.00  0.00    -0.218 NA
ATOM     16  N   UNL     1      -5.625  19.816  72.076  0.00  0.00    -0.218 NA
ATOM     17  N   UNL     1      -6.052  20.404  70.958  0.00  0.00    -0.289 NA
ENDBRANCH   8  13
ENDBRANCH   4   7
BRANCH   1  18
ATOM     18  C   UNL     1     -10.859  16.474  67.428  0.00  0.00    +0.134 C 
BRANCH  18  20
ATOM     19  C   UNL     1      -9.710  14.287  67.575  0.00  0.00    +0.120 A 
ATOM     20  N   UNL     1     -10.456  15.193  66.897  0.00  0.00    -0.306 N 
ATOM     21  C   UNL     1     -10.973  14.568  65.817  0.00  0.00    +0.158 A 
ATOM     22  C   UNL     1     -10.491  13.266  65.803  0.00  0.00    +0.110 A 
ATOM     23  N   UNL     1     -10.013  13.080  67.058  0.00  0.00    -0.233 NA
BRANCH  22  24
ATOM     24  C   UNL     1     -11.113  12.162  65.019  0.00  0.00    +0.163 C 
ATOM     25  O   UNL     1     -12.482  12.185  65.254  0.00  0.00    -0.220 OA
ATOM     26  C   UNL     1     -10.819  12.294  63.538  0.00  0.00    +0.039 C 
ATOM     27  C   UNL     1     -10.529  10.834  65.485  0.00  0.00    +0.039 C 
ENDBRANCH  22  24
BRANCH  21  28
ATOM     28  C   UNL     1     -11.519  15.287  64.664  0.00  0.00    +0.405 C 
ATOM     29  O   UNL     1     -10.949  16.494  64.245  0.00  0.00    -0.239 OA
ATOM     30  O   UNL     1     -12.658  15.029  64.188  0.00  0.00    -0.239 OA
ENDBRANCH  21  28
BRANCH  19  31
ATOM     31  C   UNL     1      -8.588  14.612  68.511  0.00  0.00    +0.064 C 
BRANCH  31  33
ATOM     32  C   UNL     1      -6.713  13.069  68.606  0.00  0.00    +0.000 C 
ATOM     33  C   UNL     1      -7.265  14.263  67.845  0.00  0.00    +0.008 C 
ENDBRANCH  31  33
ENDBRANCH  19  31
ENDBRANCH  18  20
ENDBRANCH   1  18
TORSDOF 8
ENDMDL
MODEL 5
REMARK VINA RESULT:      -6.8      3.980      6.013
REMARK  Name = 
REMARK  8 active torsions:
REMARK  status: ('A' for Active; 'I' for Inactive)
REMARK    1  A    between atoms: C_2  and  C_3
REMARK    2  A    between atoms: C_3  and  C_4
REMARK    3  A    between atoms: C_6  and  C_7
REMARK    4  A    between atoms: C_11  and  C_12
REMARK    5  A    between atoms: N_15  and  C_16
REMARK    6  A    between atoms: C_16  and  C_17
REMARK    7  A    between atoms: C_20  and  C_21
REMARK    8  A    between atoms: C_26  and  C_27
REMARK                            x       y       z     vdW  Elec       q    Type
REMARK                         _______ _______ _______ _____ _____    ______ ____
ROOT
ATOM      1  C   UNL     1     -11.448  12.637  68.389  0.00  0.00    +0.000 A 
ATOM      2  C   UNL     1     -12.164  12.259  69.513  0.00  0.00    -0.002 A 
ATOM      3  C   UNL     1     -11.643  11.218  70.259  0.00  0.00    -0.000 A 
ATOM      4  C   UNL     1     -10.668  10.360  69.761  0.00  0.00    -0.001 A 
ATOM      5  C   UNL     1     -10.355  10.508  68.438  0.00  0.00    -0.000 A 
ATOM      6  C   UNL     1     -10.524  11.765  67.870  0.00  0.00    -0.002 A 
ENDROOT
BRANCH   4   7
ATOM      7  C   UNL     1     -10.567   9.081  70.479  0.00  0.00    -0.006 A 
ATOM      8  C   UNL     1      -9.410   8.927  71.234  0.00  0.00    -0.015 A 
ATOM      9  C   UNL     1      -9.503   8.314  72.480  0.00  0.00    -0.007 A 
ATOM     10  C   UNL     1     -10.673   7.689  72.894  0.00  0.00    -0.001 A 
ATOM     11  C   UNL     1     -11.637   7.453  71.921  0.00  0.00    -0.000 A 
ATOM     12  C   UNL     1     -11.707   8.415  70.920  0.00  0.00    -0.001 A 
BRANCH   8  13
ATOM     13  C   UNL     1      -8.159   9.107  70.526  0.00  0.00    +0.044 A 
ATOM     14  N   UNL     1      -7.722   8.217  69.602  0.00  0.00    -0.289 NA
ATOM     15  N   UNL     1      -6.825   8.825  68.858  0.00  0.00    -0.218 NA
ATOM     16  N   UNL     1      -6.435   9.879  69.570  0.00  0.00    -0.218 NA
ATOM     17  N   UNL     1      -7.144   9.950  70.697  0.00  0.00    -0.289 NA
ENDBRANCH   8  13
ENDBRANCH   4   7
BRANCH   1  18
ATOM     18  C   UNL     1     -11.972  13.818  67.652  0.00  0.00    +0.134 C 
BRANCH  18  20
ATOM     19  C   UNL     1     -10.975  15.639  69.000  0.00  0.00    +0.120 A 
ATOM     20  N   UNL     1     -11.147  14.990  67.822  0.00  0.00    -0.306 N 
ATOM     21  C   UNL     1     -10.207  15.446  66.966  0.00  0.00    +0.158 A 
ATOM     22  C   UNL     1      -9.478  16.434  67.614  0.00  0.00    +0.110 A 
ATOM     23  N   UNL     1      -9.780  16.257  68.924  0.00  0.00    -0.233 NA
BRANCH  22  24
ATOM     24  C   UNL     1      -8.136  16.901  67.166  0.00  0.00    +0.163 C 
ATOM     25  O   UNL     1      -8.284  17.518  65.930  0.00  0.00    -0.220 OA
ATOM     26  C   UNL     1      -7.510  17.850  68.169  0.00  0.00    +0.039 C 
ATOM     27  C   UNL     1      -7.211  15.698  67.037  0.00  0.00    +0.039 C 
ENDBRANCH  22  24
BRANCH  21  28
ATOM     28  C   UNL     1     -10.293  15.265  65.515  0.00  0.00    +0.405 C 
ATOM     29  O   UNL     1     -10.946  16.212  64.719  0.00  0.00    -0.239 OA
ATOM     30  O   UNL     1     -10.057  14.158  64.959  0.00  0.00    -0.239 OA
ENDBRANCH  21  28
BRANCH  19  31
ATOM     31  C   UNL     1     -12.030  15.837  70.042  0.00  0.00    +0.064 C 
BRANCH  31  33
ATOM     32  C   UNL     1     -12.043  16.172  72.449  0.00  0.00    +0.000 C 
ATOM     33  C   UNL     1     -11.553  15.237  71.356  0.00  0.00    +0.008 C 
ENDBRANCH  31  33
ENDBRANCH  19  31
ENDBRANCH  18  20
ENDBRANCH   1  18
TORSDOF 8
ENDMDL
MODEL 6
REMARK VINA RESULT:      -6.8      1.524      2.047
REMARK  Name = 
REMARK  8 active torsions:
REMARK  status: ('A' for Active; 'I' for Inactive)
REMARK    1  A    between atoms: C_2  and  C_3
REMARK    2  A    between atoms: C_3  and  C_4
REMARK    3  A    between atoms: C_6  and  C_7
REMARK    4  A    between atoms: C_11  and  C_12
REMARK    5  A    between atoms: N_15  and  C_16
REMARK    6  A    between atoms: C_16  and  C_17
REMARK    7  A    between atoms: C_20  and  C_21
REMARK    8  A    between atoms: C_26  and  C_27
REMARK                            x       y       z     vdW  Elec       q    Type
REMARK                         _______ _______ _______ _____ _____    ______ ____
ROOT
ATOM      1  C   UNL     1      -8.058  16.671  67.152  0.00  0.00    +0.000 A 
ATOM      2  C   UNL     1      -8.136  16.415  68.512  0.00  0.00    -0.002 A 
ATOM      3  C   UNL     1      -9.212  15.660  68.939  0.00  0.00    -0.000 A 
ATOM      4  C   UNL     1     -10.337  15.451  68.148  0.00  0.00    -0.001 A 
ATOM      5  C   UNL     1     -10.389  16.157  66.977  0.00  0.00    -0.000 A 
ATOM      6  C   UNL     1      -9.184  16.515  66.384  0.00  0.00    -0.002 A 
ENDROOT
BRANCH   4   7
ATOM      7  C   UNL     1     -11.532  15.037  68.897  0.00  0.00    -0.006 A 
ATOM      8  C   UNL     1     -11.678  13.662  69.045  0.00  0.00    -0.015 A 
ATOM      9  C   UNL     1     -12.141  13.167  70.260  0.00  0.00    -0.007 A 
ATOM     10  C   UNL     1     -12.637  14.013  71.246  0.00  0.00    -0.001 A 
ATOM     11  C   UNL     1     -12.914  15.322  70.868  0.00  0.00    -0.000 A 
ATOM     12  C   UNL     1     -12.066  15.843  69.897  0.00  0.00    -0.001 A 
BRANCH   8  13
ATOM     13  C   UNL     1     -11.664  12.885  67.822  0.00  0.00    +0.044 A 
ATOM     14  N   UNL     1     -10.772  11.885  67.616  0.00  0.00    -0.289 NA
ATOM     15  N   UNL     1     -11.247  11.121  66.657  0.00  0.00    -0.218 NA
ATOM     16  N   UNL     1     -12.157  11.866  66.032  0.00  0.00    -0.218 NA
ATOM     17  N   UNL     1     -12.284  13.039  66.654  0.00  0.00    -0.289 NA
ENDBRANCH   8  13
ENDBRANCH   4   7
BRANCH   1  18
ATOM     18  C   UNL     1      -6.845  17.404  66.698  0.00  0.00    +0.134 C 
BRANCH  18  20
ATOM     19  C   UNL     1      -7.132  19.469  68.031  0.00  0.00    +0.120 A 
ATOM     20  N   UNL     1      -6.402  18.392  67.652  0.00  0.00    -0.306 N 
ATOM     21  C   UNL     1      -5.376  18.269  68.522  0.00  0.00    +0.158 A 
ATOM     22  C   UNL     1      -5.447  19.326  69.421  0.00  0.00    +0.110 A 
ATOM     23  N   UNL     1      -6.706  19.804  69.265  0.00  0.00    -0.233 NA
BRANCH  22  24
ATOM     24  C   UNL     1      -4.753  19.339  70.739  0.00  0.00    +0.163 C 
ATOM     25  O   UNL     1      -4.804  18.054  71.267  0.00  0.00    -0.220 OA
ATOM     26  C   UNL     1      -3.318  19.810  70.610  0.00  0.00    +0.039 C 
ATOM     27  C   UNL     1      -5.471  20.310  71.668  0.00  0.00    +0.039 C 
ENDBRANCH  22  24
BRANCH  21  28
ATOM     28  C   UNL     1      -4.183  17.469  68.242  0.00  0.00    +0.405 C 
ATOM     29  O   UNL     1      -4.056  16.177  68.761  0.00  0.00    -0.239 OA
ATOM     30  O   UNL     1      -3.122  17.979  67.787  0.00  0.00    -0.239 OA
ENDBRANCH  21  28
BRANCH  19  31
ATOM     31  C   UNL     1      -8.027  20.268  67.136  0.00  0.00    +0.064 C 
BRANCH  31  33
ATOM     32  C   UNL     1     -10.299  19.883  66.363  0.00  0.00    +0.000 C 
ATOM     33  C   UNL     1      -9.466  20.123  67.611  0.00  0.00    +0.008 C 
ENDBRANCH  31  33
ENDBRANCH  19  31
ENDBRANCH  18  20
ENDBRANCH   1  18
TORSDOF 8
ENDMDL
MODEL 7
REMARK VINA RESULT:      -6.8      1.818      3.026
REMARK  Name = 
REMARK  8 active torsions:
REMARK  status: ('A' for Active; 'I' for Inactive)
REMARK    1  A    between atoms: C_2  and  C_3
REMARK    2  A    between atoms: C_3  and  C_4
REMARK    3  A    between atoms: C_6  and  C_7
REMARK    4  A    between atoms: C_11  and  C_12
REMARK    5  A    between atoms: N_15  and  C_16
REMARK    6  A    between atoms: C_16  and  C_17
REMARK    7  A    between atoms: C_20  and  C_21
REMARK    8  A    between atoms: C_26  and  C_27
REMARK                            x       y       z     vdW  Elec       q    Type
REMARK                         _______ _______ _______ _____ _____    ______ ____
ROOT
ATOM      1  C   UNL     1      -8.933  14.813  68.526  0.00  0.00    +0.000 A 
ATOM      2  C   UNL     1      -8.089  14.054  67.732  0.00  0.00    -0.002 A 
ATOM      3  C   UNL     1      -8.684  13.088  66.943  0.00  0.00    -0.000 A 
ATOM      4  C   UNL     1      -9.985  12.645  67.160  0.00  0.00    -0.001 A 
ATOM      5  C   UNL     1     -10.597  13.109  68.292  0.00  0.00    -0.000 A 
ATOM      6  C   UNL     1     -10.197  14.347  68.782  0.00  0.00    -0.002 A 
ENDROOT
BRANCH   4   7
ATOM      7  C   UNL     1     -10.286  11.340  66.553  0.00  0.00    -0.006 A 
ATOM      8  C   UNL     1     -10.473  11.369  65.175  0.00  0.00    -0.015 A 
ATOM      9  C   UNL     1      -9.958  10.326  64.411  0.00  0.00    -0.007 A 
ATOM     10  C   UNL     1      -9.441   9.180  65.003  0.00  0.00    -0.001 A 
ATOM     11  C   UNL     1      -9.713   8.993  66.354  0.00  0.00    -0.000 A 
ATOM     12  C   UNL     1      -9.789  10.162  67.103  0.00  0.00    -0.001 A 
BRANCH   8  13
ATOM     13  C   UNL     1     -11.474  12.296  64.688  0.00  0.00    +0.044 A 
ATOM     14  N   UNL     1     -12.617  12.544  65.372  0.00  0.00    -0.289 NA
ATOM     15  N   UNL     1     -13.105  13.683  64.930  0.00  0.00    -0.218 NA
ATOM     16  N   UNL     1     -12.518  13.881  63.751  0.00  0.00    -0.218 NA
ATOM     17  N   UNL     1     -11.630  12.914  63.520  0.00  0.00    -0.289 NA
ENDBRANCH   8  13
ENDBRANCH   4   7
BRANCH   1  18
ATOM     18  C   UNL     1      -8.287  15.909  69.297  0.00  0.00    +0.134 C 
BRANCH  18  20
ATOM     19  C   UNL     1      -8.861  17.957  68.031  0.00  0.00    +0.120 A 
ATOM     20  N   UNL     1      -7.958  17.049  68.475  0.00  0.00    -0.306 N 
ATOM     21  C   UNL     1      -6.727  17.564  68.266  0.00  0.00    +0.158 A 
ATOM     22  C   UNL     1      -6.876  18.791  67.632  0.00  0.00    +0.110 A 
ATOM     23  N   UNL     1      -8.181  19.102  67.827  0.00  0.00    -0.233 NA
BRANCH  22  24
ATOM     24  C   UNL     1      -5.811  19.831  67.581  0.00  0.00    +0.163 C 
ATOM     25  O   UNL     1      -4.715  19.294  66.918  0.00  0.00    -0.220 OA
ATOM     26  C   UNL     1      -6.293  21.091  66.891  0.00  0.00    +0.039 C 
ATOM     27  C   UNL     1      -5.421  20.210  69.004  0.00  0.00    +0.039 C 
ENDBRANCH  22  24
BRANCH  21  28
ATOM     28  C   UNL     1      -5.510  16.750  68.269  0.00  0.00    +0.405 C 
ATOM     29  O   UNL     1      -5.237  15.876  67.212  0.00  0.00    -0.239 OA
ATOM     30  O   UNL     1      -4.819  16.576  69.311  0.00  0.00    -0.239 OA
ENDBRANCH  21  28
BRANCH  19  31
ATOM     31  C   UNL     1     -10.262  17.650  67.605  0.00  0.00    +0.064 C 
BRANCH  31  33
ATOM     32  C   UNL     1     -10.521  16.247  65.637  0.00  0.00    +0.000 C 
ATOM     33  C   UNL     1     -10.341  17.688  66.086  0.00  0.00    +0.008 C 
ENDBRANCH  31  33
ENDBRANCH  19  31
ENDBRANCH  18  20
ENDBRANCH   1  18
TORSDOF 8
ENDMDL
MODEL 8
REMARK VINA RESULT:      -6.7      2.486      3.195
REMARK  Name = 
REMARK  8 active torsions:
REMARK  status: ('A' for Active; 'I' for Inactive)
REMARK    1  A    between atoms: C_2  and  C_3
REMARK    2  A    between atoms: C_3  and  C_4
REMARK    3  A    between atoms: C_6  and  C_7
REMARK    4  A    between atoms: C_11  and  C_12
REMARK    5  A    between atoms: N_15  and  C_16
REMARK    6  A    between atoms: C_16  and  C_17
REMARK    7  A    between atoms: C_20  and  C_21
REMARK    8  A    between atoms: C_26  and  C_27
REMARK                            x       y       z     vdW  Elec       q    Type
REMARK                         _______ _______ _______ _____ _____    ______ ____
ROOT
ATOM      1  C   UNL     1      -7.229  16.896  66.680  0.00  0.00    +0.000 A 
ATOM      2  C   UNL     1      -8.350  16.912  65.865  0.00  0.00    -0.002 A 
ATOM      3  C   UNL     1      -9.346  16.001  66.165  0.00  0.00    -0.000 A 
ATOM      4  C   UNL     1      -9.129  14.904  66.992  0.00  0.00    -0.001 A 
ATOM      5  C   UNL     1      -7.835  14.688  67.378  0.00  0.00    -0.000 A 
ATOM      6  C   UNL     1      -6.990  15.789  67.455  0.00  0.00    -0.002 A 
ENDROOT
BRANCH   4   7
ATOM      7  C   UNL     1     -10.119  13.827  66.837  0.00  0.00    -0.006 A 
ATOM      8  C   UNL     1     -11.410  14.164  67.228  0.00  0.00    -0.015 A 
ATOM      9  C   UNL     1     -12.479  13.706  66.464  0.00  0.00    -0.007 A 
ATOM     10  C   UNL     1     -12.297  12.774  65.448  0.00  0.00    -0.001 A 
ATOM     11  C   UNL     1     -11.074  12.114  65.413  0.00  0.00    -0.000 A 
ATOM     12  C   UNL     1      -9.987  12.872  65.834  0.00  0.00    -0.001 A 
BRANCH   8  13
ATOM     13  C   UNL     1     -11.555  14.671  68.577  0.00  0.00    +0.044 A 
ATOM     14  N   UNL     1     -11.885  15.962  68.828  0.00  0.00    -0.289 NA
ATOM     15  N   UNL     1     -12.341  16.022  70.060  0.00  0.00    -0.218 NA
ATOM     16  N   UNL     1     -11.901  14.914  70.652  0.00  0.00    -0.218 NA
ATOM     17  N   UNL     1     -11.253  14.156  69.767  0.00  0.00    -0.289 NA
ENDBRANCH   8  13
ENDBRANCH   4   7
BRANCH   1  18
ATOM     18  C   UNL     1      -6.210  17.943  66.403  0.00  0.00    +0.134 C 
BRANCH  18  20
ATOM     19  C   UNL     1      -7.046  19.600  68.040  0.00  0.00    +0.120 A 
ATOM     20  N   UNL     1      -6.044  18.863  67.502  0.00  0.00    -0.306 N 
ATOM     21  C   UNL     1      -4.993  18.926  68.349  0.00  0.00    +0.158 A 
ATOM     22  C   UNL     1      -5.340  19.763  69.402  0.00  0.00    +0.110 A 
ATOM     23  N   UNL     1      -6.689  19.858  69.313  0.00  0.00    -0.233 NA
BRANCH  22  24
ATOM     24  C   UNL     1      -4.627  19.786  70.710  0.00  0.00    +0.163 C 
ATOM     25  O   UNL     1      -4.036  18.543  70.901  0.00  0.00    -0.220 OA
ATOM     26  C   UNL     1      -3.590  20.889  70.762  0.00  0.00    +0.039 C 
ATOM     27  C   UNL     1      -5.637  20.055  71.819  0.00  0.00    +0.039 C 
ENDBRANCH  22  24
BRANCH  21  28
ATOM     28  C   UNL     1      -3.628  18.574  67.955  0.00  0.00    +0.405 C 
ATOM     29  O   UNL     1      -3.164  17.262  68.094  0.00  0.00    -0.239 OA
ATOM     30  O   UNL     1      -2.739  19.447  67.756  0.00  0.00    -0.239 OA
ENDBRANCH  21  28
BRANCH  19  31
ATOM     31  C   UNL     1      -8.175  20.218  67.275  0.00  0.00    +0.064 C 
BRANCH  31  33
ATOM     32  C   UNL     1     -10.501  19.747  66.753  0.00  0.00    +0.000 C 
ATOM     33  C   UNL     1      -9.495  19.779  67.891  0.00  0.00    +0.008 C 
ENDBRANCH  31  33
ENDBRANCH  19  31
ENDBRANCH  18  20
ENDBRANCH   1  18
TORSDOF 8
ENDMDL
MODEL 9
REMARK VINA RESULT:      -6.7      4.941      7.576
REMARK  Name = 
REMARK  8 active torsions:
REMARK  status: ('A' for Active; 'I' for Inactive)
REMARK    1  A    between atoms: C_2  and  C_3
REMARK    2  A    between atoms: C_3  and  C_4
REMARK    3  A    between atoms: C_6  and  C_7
REMARK    4  A    between atoms: C_11  and  C_12
REMARK    5  A    between atoms: N_15  and  C_16
REMARK    6  A    between atoms: C_16  and  C_17
REMARK    7  A    between atoms: C_20  and  C_21
REMARK    8  A    between atoms: C_26  and  C_27
REMARK                            x       y       z     vdW  Elec       q    Type
REMARK                         _______ _______ _______ _____ _____    ______ ____
ROOT
ATOM      1  C   UNL     1     -10.860  10.314  67.874  0.00  0.00    +0.000 A 
ATOM      2  C   UNL     1     -10.352   9.025  67.847  0.00  0.00    -0.002 A 
ATOM      3  C   UNL     1     -10.587   8.244  68.963  0.00  0.00    -0.000 A 
ATOM      4  C   UNL     1     -10.992   8.784  70.180  0.00  0.00    -0.001 A 
ATOM      5  C   UNL     1     -11.004  10.150  70.258  0.00  0.00    -0.000 A 
ATOM      6  C   UNL     1     -11.209  10.863  69.082  0.00  0.00    -0.002 A 
ENDROOT
BRANCH   4   7
ATOM      7  C   UNL     1     -10.754   7.909  71.337  0.00  0.00    -0.006 A 
ATOM      8  C   UNL     1     -11.826   7.091  71.678  0.00  0.00    -0.015 A 
ATOM      9  C   UNL     1     -11.567   5.784  72.078  0.00  0.00    -0.007 A 
ATOM     10  C   UNL     1     -10.271   5.345  72.327  0.00  0.00    -0.001 A 
ATOM     11  C   UNL     1      -9.288   6.323  72.437  0.00  0.00    -0.000 A 
ATOM     12  C   UNL     1      -9.478   7.438  71.628  0.00  0.00    -0.001 A 
BRANCH   8  13
ATOM     13  C   UNL     1     -13.088   7.762  71.915  0.00  0.00    +0.044 A 
ATOM     14  N   UNL     1     -14.245   7.338  71.352  0.00  0.00    -0.289 NA
ATOM     15  N   UNL     1     -15.237   7.848  72.049  0.00  0.00    -0.218 NA
ATOM     16  N   UNL     1     -14.705   8.865  72.723  0.00  0.00    -0.218 NA
ATOM     17  N   UNL     1     -13.392   8.921  72.495  0.00  0.00    -0.289 NA
ENDBRANCH   8  13
ENDBRANCH   4   7
BRANCH   1  18
ATOM     18  C   UNL     1     -10.680  11.108  66.629  0.00  0.00    +0.134 C 
BRANCH  18  20
ATOM     19  C   UNL     1      -8.638  12.483  66.891  0.00  0.00    +0.120 A 
ATOM     20  N   UNL     1      -9.987  12.353  66.859  0.00  0.00    -0.306 N 
ATOM     21  C   UNL     1     -10.513  13.596  66.779  0.00  0.00    +0.158 A 
ATOM     22  C   UNL     1      -9.466  14.508  66.818  0.00  0.00    +0.110 A 
ATOM     23  N   UNL     1      -8.369  13.758  66.551  0.00  0.00    -0.233 NA
BRANCH  22  24
ATOM     24  C   UNL     1      -9.586  15.924  66.372  0.00  0.00    +0.163 C 
ATOM     25  O   UNL     1     -10.242  15.937  65.147  0.00  0.00    -0.220 OA
ATOM     26  C   UNL     1     -10.329  16.769  67.388  0.00  0.00    +0.039 C 
ATOM     27  C   UNL     1      -8.191  16.515  66.219  0.00  0.00    +0.039 C 
ENDBRANCH  22  24
BRANCH  21  28
ATOM     28  C   UNL     1     -11.912  13.892  67.091  0.00  0.00    +0.405 C 
ATOM     29  O   UNL     1     -12.825  14.166  66.067  0.00  0.00    -0.239 OA
ATOM     30  O   UNL     1     -12.294  14.195  68.254  0.00  0.00    -0.239 OA
ENDBRANCH  21  28
BRANCH  19  31
ATOM     31  C   UNL     1      -7.684  11.477  67.457  0.00  0.00    +0.064 C 
BRANCH  31  33
ATOM     32  C   UNL     1      -7.370  10.375  69.600  0.00  0.00    +0.000 C 
ATOM     33  C   UNL     1      -7.507  11.740  68.945  0.00  0.00    +0.008 C 
ENDBRANCH  31  33
ENDBRANCH  19  31
ENDBRANCH  18  20
ENDBRANCH   1  18
TORSDOF 8
ENDMDL
