MODEL 1
REMARK VINA RESULT:      -5.8      0.000      0.000
REMARK  Name = 
REMARK  10 active torsions:
REMARK  status: ('A' for Active; 'I' for Inactive)
REMARK    1  A    between atoms: C_2  and  O_3
REMARK    2  A    between atoms: O_3  and  C_4
REMARK    3  A    between atoms: C_4  and  C_6
REMARK    4  A    between atoms: C_7  and  C_8
REMARK    5  A    between atoms: C_8  and  O_9
REMARK    6  A    between atoms: O_9  and  C_10
REMARK    7  A    between atoms: C_10  and  C_11
REMARK    8  A    between atoms: C_16  and  C_17
REMARK    9  A    between atoms: C_17  and  O_19
REMARK   10  A    between atoms: C_21  and  C_22
REMARK                            x       y       z     vdW  Elec       q    Type
REMARK                         _______ _______ _______ _____ _____    ______ ____
ROOT
ATOM      1  C   UNL     1     -10.392  16.427  68.177  0.00  0.00    +0.075 C 
ATOM      2  C   UNL     1      -9.742  15.913  66.790  0.00  0.00    +0.082 C 
ATOM      3  C   UNL     1     -10.372  14.415  66.807  0.00  0.00    +0.073 C 
ATOM      4  C   UNL     1     -11.699  14.574  66.840  0.00  0.00    +0.051 C 
ATOM      5  C   UNL     1     -12.647  13.864  65.963  0.00  0.00    +0.049 C 
ATOM      6  N   UNL     1     -12.052  14.836  68.206  0.00  0.00    -0.219 NA
ATOM      7  C   UNL     1     -11.086  15.638  68.899  0.00  0.00    +0.080 C 
ENDROOT
BRANCH   2   8
ATOM      8  C   UNL     1      -8.351  15.420  67.471  0.00  0.00    -0.003 A 
ATOM      9  C   UNL     1      -7.230  16.040  66.919  0.00  0.00    +0.054 A 
ATOM     10 CL   UNL     1      -7.307  17.464  65.880  0.00  0.00    -0.083 Cl
ATOM     11  C   UNL     1      -6.035  15.720  67.558  0.00  0.00    +0.011 A 
ATOM     12  C   UNL     1      -6.030  15.303  68.886  0.00  0.00    +0.001 A 
ATOM     13  C   UNL     1      -7.214  15.302  69.616  0.00  0.00    -0.000 A 
ATOM     14  C   UNL     1      -8.355  15.417  68.865  0.00  0.00    -0.003 A 
ENDBRANCH   2   8
BRANCH   1  15
ATOM     15  C   UNL     1     -10.451  17.898  68.248  0.00  0.00    +0.339 C 
ATOM     16  O   UNL     1     -10.937  18.573  67.325  0.00  0.00    -0.245 OA
BRANCH  15  17
ATOM     17  O   UNL     1      -9.459  18.568  68.975  0.00  0.00    -0.446 OA
BRANCH  17  19
ATOM     18  C   UNL     1      -7.217  19.226  68.935  0.00  0.00    +0.051 C 
ATOM     19  C   UNL     1      -8.537  19.465  68.369  0.00  0.00    +0.209 C 
ENDBRANCH  17  19
ENDBRANCH  15  17
ENDBRANCH   1  15
BRANCH   3  20
ATOM     20  C   UNL     1      -9.874  13.519  65.770  0.00  0.00    +0.339 C 
ATOM     21  O   UNL     1     -10.150  13.751  64.554  0.00  0.00    -0.245 OA
BRANCH  20  22
ATOM     22  O   UNL     1      -9.692  12.186  66.137  0.00  0.00    -0.442 OA
ATOM     23  C   UNL     1      -9.358  11.799  67.468  0.00  0.00    +0.256 C 
ENDBRANCH  20  22
ENDBRANCH   3  20
BRANCH   7  24
ATOM     24  C   UNL     1     -11.308  16.078  70.314  0.00  0.00    +0.185 C 
BRANCH  24  25
ATOM     25  O   UNL     1     -12.701  15.932  70.447  0.00  0.00    -0.346 OA
BRANCH  25  26
ATOM     26  C   UNL     1     -13.000  15.621  71.772  0.00  0.00    +0.163 C 
BRANCH  26  27
ATOM     27  C   UNL     1     -14.273  14.824  71.765  0.00  0.00    +0.141 C 
ATOM     28  N   UNL     1     -14.081  13.562  72.476  0.00  0.00    -0.129 NA
ENDBRANCH  26  27
ENDBRANCH  25  26
ENDBRANCH  24  25
ENDBRANCH   7  24
TORSDOF 10
ENDMDL
MODEL 2
REMARK VINA RESULT:      -5.7      2.391      3.901
REMARK  Name = 
REMARK  10 active torsions:
REMARK  status: ('A' for Active; 'I' for Inactive)
REMARK    1  A    between atoms: C_2  and  O_3
REMARK    2  A    between atoms: O_3  and  C_4
REMARK    3  A    between atoms: C_4  and  C_6
REMARK    4  A    between atoms: C_7  and  C_8
REMARK    5  A    between atoms: C_8  and  O_9
REMARK    6  A    between atoms: O_9  and  C_10
REMARK    7  A    between atoms: C_10  and  C_11
REMARK    8  A    between atoms: C_16  and  C_17
REMARK    9  A    between atoms: C_17  and  O_19
REMARK   10  A    between atoms: C_21  and  C_22
REMARK                            x       y       z     vdW  Elec       q    Type
REMARK                         _______ _______ _______ _____ _____    ______ ____
ROOT
ATOM      1  C   UNL     1      -9.587  14.523  67.824  0.00  0.00    +0.075 C 
ATOM      2  C   UNL     1      -9.891  13.640  66.505  0.00  0.00    +0.082 C 
ATOM      3  C   UNL     1     -11.213  14.449  66.013  0.00  0.00    +0.073 C 
ATOM      4  C   UNL     1     -10.822  15.715  65.829  0.00  0.00    +0.051 C 
ATOM      5  C   UNL     1     -11.131  16.517  64.631  0.00  0.00    +0.049 C 
ATOM      6  N   UNL     1     -10.809  16.339  67.120  0.00  0.00    -0.219 NA
ATOM      7  C   UNL     1     -10.375  15.464  68.170  0.00  0.00    +0.080 C 
ENDROOT
BRANCH   2   8
ATOM      8  C   UNL     1     -10.772  12.525  67.293  0.00  0.00    -0.003 A 
ATOM      9  C   UNL     1     -10.170  11.267  67.297  0.00  0.00    +0.054 A 
ATOM     10 CL   UNL     1      -8.488  10.981  66.848  0.00  0.00    -0.083 Cl
ATOM     11  C   UNL     1     -10.848  10.319  68.060  0.00  0.00    +0.011 A 
ATOM     12  C   UNL     1     -11.674  10.711  69.108  0.00  0.00    +0.001 A 
ATOM     13  C   UNL     1     -11.749  12.053  69.468  0.00  0.00    -0.000 A 
ATOM     14  C   UNL     1     -11.233  12.926  68.546  0.00  0.00    -0.003 A 
ENDBRANCH   2   8
BRANCH   1  15
ATOM     15  C   UNL     1      -8.184  14.402  68.258  0.00  0.00    +0.339 C 
ATOM     16  O   UNL     1      -7.828  13.528  69.067  0.00  0.00    -0.245 OA
BRANCH  15  17
ATOM     17  O   UNL     1      -7.399  15.561  68.298  0.00  0.00    -0.446 OA
BRANCH  17  19
ATOM     18  C   UNL     1      -7.297  16.948  66.420  0.00  0.00    +0.051 C 
ATOM     19  C   UNL     1      -6.572  15.968  67.215  0.00  0.00    +0.209 C 
ENDBRANCH  17  19
ENDBRANCH  15  17
ENDBRANCH   1  15
BRANCH   3  20
ATOM     20  C   UNL     1     -11.932  13.847  64.898  0.00  0.00    +0.339 C 
ATOM     21  O   UNL     1     -13.163  13.570  65.020  0.00  0.00    -0.245 OA
BRANCH  20  22
ATOM     22  O   UNL     1     -11.183  13.044  64.038  0.00  0.00    -0.442 OA
ATOM     23  C   UNL     1     -11.688  11.828  63.492  0.00  0.00    +0.256 C 
ENDBRANCH  20  22
ENDBRANCH   3  20
BRANCH   7  24
ATOM     24  C   UNL     1     -10.227  15.949  69.579  0.00  0.00    +0.185 C 
BRANCH  24  25
ATOM     25  O   UNL     1     -11.536  16.369  69.880  0.00  0.00    -0.346 OA
BRANCH  25  26
ATOM     26  C   UNL     1     -11.868  15.933  71.161  0.00  0.00    +0.163 C 
BRANCH  26  27
ATOM     27  C   UNL     1     -13.174  15.200  71.055  0.00  0.00    +0.141 C 
ATOM     28  N   UNL     1     -14.135  15.739  72.016  0.00  0.00    -0.129 NA
ENDBRANCH  26  27
ENDBRANCH  25  26
ENDBRANCH  24  25
ENDBRANCH   7  24
TORSDOF 10
ENDMDL
MODEL 3
REMARK VINA RESULT:      -5.7      2.170      5.438
REMARK  Name = 
REMARK  10 active torsions:
REMARK  status: ('A' for Active; 'I' for Inactive)
REMARK    1  A    between atoms: C_2  and  O_3
REMARK    2  A    between atoms: O_3  and  C_4
REMARK    3  A    between atoms: C_4  and  C_6
REMARK    4  A    between atoms: C_7  and  C_8
REMARK    5  A    between atoms: C_8  and  O_9
REMARK    6  A    between atoms: O_9  and  C_10
REMARK    7  A    between atoms: C_10  and  C_11
REMARK    8  A    between atoms: C_16  and  C_17
REMARK    9  A    between atoms: C_17  and  O_19
REMARK   10  A    between atoms: C_21  and  C_22
REMARK                            x       y       z     vdW  Elec       q    Type
REMARK                         _______ _______ _______ _____ _____    ______ ____
ROOT
ATOM      1  C   UNL     1      -9.707  15.385  67.470  0.00  0.00    +0.075 C 
ATOM      2  C   UNL     1      -9.722  15.764  69.041  0.00  0.00    +0.082 C 
ATOM      3  C   UNL     1     -11.290  15.438  69.320  0.00  0.00    +0.073 C 
ATOM      4  C   UNL     1     -11.461  14.152  68.997  0.00  0.00    +0.051 C 
ATOM      5  C   UNL     1     -12.155  13.165  69.844  0.00  0.00    +0.049 C 
ATOM      6  N   UNL     1     -11.608  14.096  67.572  0.00  0.00    -0.219 NA
ATOM      7  C   UNL     1     -10.781  15.040  66.877  0.00  0.00    +0.080 C 
ENDROOT
BRANCH   2   8
ATOM      8  C   UNL     1     -10.014  17.344  68.793  0.00  0.00    -0.003 A 
ATOM      9  C   UNL     1      -8.886  18.139  68.993  0.00  0.00    +0.054 A 
ATOM     10 CL   UNL     1      -7.245  17.503  69.124  0.00  0.00    -0.083 Cl
ATOM     11  C   UNL     1      -9.079  19.482  68.679  0.00  0.00    +0.011 A 
ATOM     12  C   UNL     1     -10.061  19.864  67.771  0.00  0.00    +0.001 A 
ATOM     13  C   UNL     1     -10.791  18.895  67.090  0.00  0.00    -0.000 A 
ATOM     14  C   UNL     1     -10.694  17.630  67.610  0.00  0.00    -0.003 A 
ENDBRANCH   2   8
BRANCH   1  15
ATOM     15  C   UNL     1      -8.348  15.080  66.989  0.00  0.00    +0.339 C 
ATOM     16  O   UNL     1      -7.735  15.858  66.239  0.00  0.00    -0.245 OA
BRANCH  15  17
ATOM     17  O   UNL     1      -7.989  13.736  66.821  0.00  0.00    -0.446 OA
BRANCH  17  19
ATOM     18  C   UNL     1      -8.925  11.699  67.479  0.00  0.00    +0.051 C 
ATOM     19  C   UNL     1      -8.046  12.788  67.879  0.00  0.00    +0.209 C 
ENDBRANCH  17  19
ENDBRANCH  15  17
ENDBRANCH   1  15
BRANCH   3  20
ATOM     20  C   UNL     1     -11.781  15.825  70.636  0.00  0.00    +0.339 C 
ATOM     21  O   UNL     1     -11.123  15.505  71.672  0.00  0.00    -0.245 OA
BRANCH  20  22
ATOM     22  O   UNL     1     -13.165  15.939  70.773  0.00  0.00    -0.442 OA
ATOM     23  C   UNL     1     -13.852  15.538  71.956  0.00  0.00    +0.256 C 
ENDBRANCH  20  22
ENDBRANCH   3  20
BRANCH   7  24
ATOM     24  C   UNL     1     -10.741  15.089  65.380  0.00  0.00    +0.185 C 
BRANCH  24  25
ATOM     25  O   UNL     1     -11.424  13.908  65.033  0.00  0.00    -0.346 OA
BRANCH  25  26
ATOM     26  C   UNL     1     -10.545  13.055  64.370  0.00  0.00    +0.163 C 
BRANCH  26  27
ATOM     27  C   UNL     1     -11.377  12.109  63.552  0.00  0.00    +0.141 C 
ATOM     28  N   UNL     1     -12.798  12.369  63.773  0.00  0.00    -0.129 NA
ENDBRANCH  26  27
ENDBRANCH  25  26
ENDBRANCH  24  25
ENDBRANCH   7  24
TORSDOF 10
ENDMDL
MODEL 4
REMARK VINA RESULT:      -5.6      2.556      4.412
REMARK  Name = 
REMARK  10 active torsions:
REMARK  status: ('A' for Active; 'I' for Inactive)
REMARK    1  A    between atoms: C_2  and  O_3
REMARK    2  A    between atoms: O_3  and  C_4
REMARK    3  A    between atoms: C_4  and  C_6
REMARK    4  A    between atoms: C_7  and  C_8
REMARK    5  A    between atoms: C_8  and  O_9
REMARK    6  A    between atoms: O_9  and  C_10
REMARK    7  A    between atoms: C_10  and  C_11
REMARK    8  A    between atoms: C_16  and  C_17
REMARK    9  A    between atoms: C_17  and  O_19
REMARK   10  A    between atoms: C_21  and  C_22
REMARK                            x       y       z     vdW  Elec       q    Type
REMARK                         _______ _______ _______ _____ _____    ______ ____
ROOT
ATOM      1  C   UNL     1      -9.561  14.305  67.683  0.00  0.00    +0.075 C 
ATOM      2  C   UNL     1      -9.824  13.431  66.350  0.00  0.00    +0.082 C 
ATOM      3  C   UNL     1     -11.193  14.172  65.881  0.00  0.00    +0.073 C 
ATOM      4  C   UNL     1     -10.875  15.461  65.717  0.00  0.00    +0.051 C 
ATOM      5  C   UNL     1     -11.238  16.266  64.537  0.00  0.00    +0.049 C 
ATOM      6  N   UNL     1     -10.888  16.061  67.020  0.00  0.00    -0.219 NA
ATOM      7  C   UNL     1     -10.398  15.193  68.051  0.00  0.00    +0.080 C 
ENDROOT
BRANCH   2   8
ATOM      8  C   UNL     1     -10.635  12.253  67.122  0.00  0.00    -0.003 A 
ATOM      9  C   UNL     1     -10.183  10.977  66.785  0.00  0.00    +0.054 A 
ATOM     10 CL   UNL     1      -8.673  10.664  65.928  0.00  0.00    -0.083 Cl
ATOM     11  C   UNL     1     -10.783   9.954  67.515  0.00  0.00    +0.011 A 
ATOM     12  C   UNL     1     -11.325  10.203  68.772  0.00  0.00    +0.001 A 
ATOM     13  C   UNL     1     -11.178  11.458  69.354  0.00  0.00    -0.000 A 
ATOM     14  C   UNL     1     -10.776  12.448  68.495  0.00  0.00    -0.003 A 
ENDBRANCH   2   8
BRANCH   1  15
ATOM     15  C   UNL     1      -8.149  14.256  68.106  0.00  0.00    +0.339 C 
ATOM     16  O   UNL     1      -7.236  14.658  67.366  0.00  0.00    -0.245 OA
BRANCH  15  17
ATOM     17  O   UNL     1      -7.756  13.242  68.987  0.00  0.00    -0.446 OA
BRANCH  17  19
ATOM     18  C   UNL     1      -7.323  10.959  69.236  0.00  0.00    +0.051 C 
ATOM     19  C   UNL     1      -6.875  12.192  68.607  0.00  0.00    +0.209 C 
ENDBRANCH  17  19
ENDBRANCH  15  17
ENDBRANCH   1  15
BRANCH   3  20
ATOM     20  C   UNL     1     -11.884  13.550  64.759  0.00  0.00    +0.339 C 
ATOM     21  O   UNL     1     -13.065  13.113  64.913  0.00  0.00    -0.245 OA
BRANCH  20  22
ATOM     22  O   UNL     1     -11.084  12.900  63.820  0.00  0.00    -0.442 OA
ATOM     23  C   UNL     1     -11.291  11.539  63.449  0.00  0.00    +0.256 C 
ENDBRANCH  20  22
ENDBRANCH   3  20
BRANCH   7  24
ATOM     24  C   UNL     1     -10.267  15.661  69.468  0.00  0.00    +0.185 C 
BRANCH  24  25
ATOM     25  O   UNL     1     -11.526  16.248  69.696  0.00  0.00    -0.346 OA
BRANCH  25  26
ATOM     26  C   UNL     1     -12.349  15.322  70.335  0.00  0.00    +0.163 C 
BRANCH  26  27
ATOM     27  C   UNL     1     -12.566  15.815  71.737  0.00  0.00    +0.141 C 
ATOM     28  N   UNL     1     -13.988  15.767  72.072  0.00  0.00    -0.129 NA
ENDBRANCH  26  27
ENDBRANCH  25  26
ENDBRANCH  24  25
ENDBRANCH   7  24
TORSDOF 10
ENDMDL
MODEL 5
REMARK VINA RESULT:      -5.6      3.059      4.698
REMARK  Name = 
REMARK  10 active torsions:
REMARK  status: ('A' for Active; 'I' for Inactive)
REMARK    1  A    between atoms: C_2  and  O_3
REMARK    2  A    between atoms: O_3  and  C_4
REMARK    3  A    between atoms: C_4  and  C_6
REMARK    4  A    between atoms: C_7  and  C_8
REMARK    5  A    between atoms: C_8  and  O_9
REMARK    6  A    between atoms: O_9  and  C_10
REMARK    7  A    between atoms: C_10  and  C_11
REMARK    8  A    between atoms: C_16  and  C_17
REMARK    9  A    between atoms: C_17  and  O_19
REMARK   10  A    between atoms: C_21  and  C_22
REMARK                            x       y       z     vdW  Elec       q    Type
REMARK                         _______ _______ _______ _____ _____    ______ ____
ROOT
ATOM      1  C   UNL     1     -11.280  12.575  68.048  0.00  0.00    +0.075 C 
ATOM      2  C   UNL     1     -10.876  11.013  67.965  0.00  0.00    +0.082 C 
ATOM      3  C   UNL     1     -10.845  10.721  69.564  0.00  0.00    +0.073 C 
ATOM      4  C   UNL     1     -12.070  11.016  70.015  0.00  0.00    +0.051 C 
ATOM      5  C   UNL     1     -12.864  10.146  70.901  0.00  0.00    +0.049 C 
ATOM      6  N   UNL     1     -12.119  12.440  70.184  0.00  0.00    -0.219 NA
ATOM      7  C   UNL     1     -11.393  13.157  69.176  0.00  0.00    +0.080 C 
ENDROOT
BRANCH   2   8
ATOM      8  C   UNL     1      -9.276  11.293  67.908  0.00  0.00    -0.003 A 
ATOM      9  C   UNL     1      -8.711  10.943  66.682  0.00  0.00    +0.054 A 
ATOM     10 CL   UNL     1      -9.652  10.599  65.229  0.00  0.00    -0.083 Cl
ATOM     11  C   UNL     1      -7.363  11.275  66.564  0.00  0.00    +0.011 A 
ATOM     12  C   UNL     1      -6.818  12.304  67.326  0.00  0.00    +0.001 A 
ATOM     13  C   UNL     1      -7.642  13.077  68.138  0.00  0.00    -0.000 A 
ATOM     14  C   UNL     1      -8.889  12.554  68.359  0.00  0.00    -0.003 A 
ENDBRANCH   2   8
BRANCH   1  15
ATOM     15  C   UNL     1     -11.884  13.057  66.792  0.00  0.00    +0.339 C 
ATOM     16  O   UNL     1     -12.380  12.270  65.968  0.00  0.00    -0.245 OA
BRANCH  15  17
ATOM     17  O   UNL     1     -11.377  14.229  66.219  0.00  0.00    -0.446 OA
BRANCH  17  19
ATOM     18  C   UNL     1      -9.378  15.395  65.892  0.00  0.00    +0.051 C 
ATOM     19  C   UNL     1     -10.174  14.256  65.460  0.00  0.00    +0.209 C 
ENDBRANCH  17  19
ENDBRANCH  15  17
ENDBRANCH   1  15
BRANCH   3  20
ATOM     20  C   UNL     1     -10.336   9.411  69.948  0.00  0.00    +0.339 C 
ATOM     21  O   UNL     1      -9.350   9.327  70.741  0.00  0.00    -0.245 OA
BRANCH  20  22
ATOM     22  O   UNL     1     -10.485   8.388  69.011  0.00  0.00    -0.442 OA
ATOM     23  C   UNL     1     -10.802   7.049  69.384  0.00  0.00    +0.256 C 
ENDBRANCH  20  22
ENDBRANCH   3  20
BRANCH   7  24
ATOM     24  C   UNL     1     -11.382  14.655  69.140  0.00  0.00    +0.185 C 
BRANCH  24  25
ATOM     25  O   UNL     1     -12.458  14.973  69.989  0.00  0.00    -0.346 OA
BRANCH  25  26
ATOM     26  C   UNL     1     -12.041  15.933  70.909  0.00  0.00    +0.163 C 
BRANCH  26  27
ATOM     27  C   UNL     1     -12.812  15.698  72.176  0.00  0.00    +0.141 C 
ATOM     28  N   UNL     1     -14.244  15.644  71.891  0.00  0.00    -0.129 NA
ENDBRANCH  26  27
ENDBRANCH  25  26
ENDBRANCH  24  25
ENDBRANCH   7  24
TORSDOF 10
ENDMDL
MODEL 6
REMARK VINA RESULT:      -5.6      1.941      4.672
REMARK  Name = 
REMARK  10 active torsions:
REMARK  status: ('A' for Active; 'I' for Inactive)
REMARK    1  A    between atoms: C_2  and  O_3
REMARK    2  A    between atoms: O_3  and  C_4
REMARK    3  A    between atoms: C_4  and  C_6
REMARK    4  A    between atoms: C_7  and  C_8
REMARK    5  A    between atoms: C_8  and  O_9
REMARK    6  A    between atoms: O_9  and  C_10
REMARK    7  A    between atoms: C_10  and  C_11
REMARK    8  A    between atoms: C_16  and  C_17
REMARK    9  A    between atoms: C_17  and  O_19
REMARK   10  A    between atoms: C_21  and  C_22
REMARK                            x       y       z     vdW  Elec       q    Type
REMARK                         _______ _______ _______ _____ _____    ______ ____
ROOT
ATOM      1  C   UNL     1      -9.708  15.754  66.724  0.00  0.00    +0.075 C 
ATOM      2  C   UNL     1      -8.210  16.360  66.680  0.00  0.00    +0.082 C 
ATOM      3  C   UNL     1      -7.743  15.872  68.158  0.00  0.00    +0.073 C 
ATOM      4  C   UNL     1      -7.868  14.540  68.162  0.00  0.00    +0.051 C 
ATOM      5  C   UNL     1      -6.832  13.608  68.641  0.00  0.00    +0.049 C 
ATOM      6  N   UNL     1      -9.252  14.252  68.404  0.00  0.00    -0.219 NA
ATOM      7  C   UNL     1     -10.145  15.183  67.777  0.00  0.00    +0.080 C 
ENDROOT
BRANCH   2   8
ATOM      8  C   UNL     1      -8.646  17.830  67.218  0.00  0.00    -0.003 A 
ATOM      9  C   UNL     1      -7.870  18.855  66.675  0.00  0.00    +0.054 A 
ATOM     10 CL   UNL     1      -6.800  18.648  65.287  0.00  0.00    -0.083 Cl
ATOM     11  C   UNL     1      -8.293  20.133  67.032  0.00  0.00    +0.011 A 
ATOM     12  C   UNL     1      -9.615  20.366  67.400  0.00  0.00    +0.001 A 
ATOM     13  C   UNL     1     -10.549  19.339  67.316  0.00  0.00    -0.000 A 
ATOM     14  C   UNL     1     -10.016  18.085  67.170  0.00  0.00    -0.003 A 
ENDBRANCH   2   8
BRANCH   1  15
ATOM     15  C   UNL     1     -10.268  15.566  65.374  0.00  0.00    +0.339 C 
ATOM     16  O   UNL     1     -10.938  16.453  64.820  0.00  0.00    -0.245 OA
BRANCH  15  17
ATOM     17  O   UNL     1     -10.607  14.268  64.971  0.00  0.00    -0.446 OA
BRANCH  17  19
ATOM     18  C   UNL     1     -12.354  12.715  64.999  0.00  0.00    +0.051 C 
ATOM     19  C   UNL     1     -11.867  13.947  64.395  0.00  0.00    +0.209 C 
ENDBRANCH  17  19
ENDBRANCH  15  17
ENDBRANCH   1  15
BRANCH   3  20
ATOM     20  C   UNL     1      -6.453  16.382  68.604  0.00  0.00    +0.339 C 
ATOM     21  O   UNL     1      -6.399  17.181  69.586  0.00  0.00    -0.245 OA
BRANCH  20  22
ATOM     22  O   UNL     1      -5.465  16.507  67.627  0.00  0.00    -0.442 OA
ATOM     23  C   UNL     1      -4.403  17.452  67.730  0.00  0.00    +0.256 C 
ENDBRANCH  20  22
ENDBRANCH   3  20
BRANCH   7  24
ATOM     24  C   UNL     1     -11.631  15.012  67.854  0.00  0.00    +0.185 C 
BRANCH  24  25
ATOM     25  O   UNL     1     -11.948  15.754  69.007  0.00  0.00    -0.346 OA
BRANCH  25  26
ATOM     26  C   UNL     1     -12.352  14.877  70.013  0.00  0.00    +0.163 C 
BRANCH  26  27
ATOM     27  C   UNL     1     -12.581  15.697  71.250  0.00  0.00    +0.141 C 
ATOM     28  N   UNL     1     -13.984  15.624  71.650  0.00  0.00    -0.129 NA
ENDBRANCH  26  27
ENDBRANCH  25  26
ENDBRANCH  24  25
ENDBRANCH   7  24
TORSDOF 10
ENDMDL
MODEL 7
REMARK VINA RESULT:      -5.5      3.827      6.277
REMARK  Name = 
REMARK  10 active torsions:
REMARK  status: ('A' for Active; 'I' for Inactive)
REMARK    1  A    between atoms: C_2  and  O_3
REMARK    2  A    between atoms: O_3  and  C_4
REMARK    3  A    between atoms: C_4  and  C_6
REMARK    4  A    between atoms: C_7  and  C_8
REMARK    5  A    between atoms: C_8  and  O_9
REMARK    6  A    between atoms: O_9  and  C_10
REMARK    7  A    between atoms: C_10  and  C_11
REMARK    8  A    between atoms: C_16  and  C_17
REMARK    9  A    between atoms: C_17  and  O_19
REMARK   10  A    between atoms: C_21  and  C_22
REMARK                            x       y       z     vdW  Elec       q    Type
REMARK                         _______ _______ _______ _____ _____    ______ ____
ROOT
ATOM      1  C   UNL     1     -10.356  12.074  67.379  0.00  0.00    +0.075 C 
ATOM      2  C   UNL     1      -9.611  10.790  68.019  0.00  0.00    +0.082 C 
ATOM      3  C   UNL     1     -10.156   9.684  66.960  0.00  0.00    +0.073 C 
ATOM      4  C   UNL     1      -9.745  10.095  65.755  0.00  0.00    +0.051 C 
ATOM      5  C   UNL     1      -9.082   9.231  64.762  0.00  0.00    +0.049 C 
ATOM      6  N   UNL     1     -10.671  11.100  65.320  0.00  0.00    -0.219 NA
ATOM      7  C   UNL     1     -11.142  11.938  66.385  0.00  0.00    +0.080 C 
ENDROOT
BRANCH   2   8
ATOM      8  C   UNL     1     -10.796  10.468  69.084  0.00  0.00    -0.003 A 
ATOM      9  C   UNL     1     -10.355   9.709  70.167  0.00  0.00    +0.054 A 
ATOM     10 CL   UNL     1      -8.654   9.445  70.555  0.00  0.00    -0.083 Cl
ATOM     11  C   UNL     1     -11.322   9.512  71.151  0.00  0.00    +0.011 A 
ATOM     12  C   UNL     1     -12.377  10.407  71.297  0.00  0.00    +0.001 A 
ATOM     13  C   UNL     1     -12.415  11.565  70.526  0.00  0.00    -0.000 A 
ATOM     14  C   UNL     1     -11.563  11.572  69.453  0.00  0.00    -0.003 A 
ENDBRANCH   2   8
BRANCH   1  15
ATOM     15  C   UNL     1      -9.709  13.339  67.769  0.00  0.00    +0.339 C 
ATOM     16  O   UNL     1      -8.489  13.520  67.612  0.00  0.00    -0.245 OA
BRANCH  15  17
ATOM     17  O   UNL     1     -10.252  14.060  68.840  0.00  0.00    -0.446 OA
BRANCH  17  19
ATOM     18  C   UNL     1     -11.962  15.534  69.445  0.00  0.00    +0.051 C 
ATOM     19  C   UNL     1     -10.712  15.399  68.710  0.00  0.00    +0.209 C 
ENDBRANCH  17  19
ENDBRANCH  15  17
ENDBRANCH   1  15
BRANCH   3  20
ATOM     20  C   UNL     1      -9.842   8.299  67.290  0.00  0.00    +0.339 C 
ATOM     21  O   UNL     1      -8.634   7.948  67.443  0.00  0.00    -0.245 OA
BRANCH  20  22
ATOM     22  O   UNL     1     -10.730   7.333  66.818  0.00  0.00    -0.442 OA
ATOM     23  C   UNL     1     -10.928   6.087  67.482  0.00  0.00    +0.256 C 
ENDBRANCH  20  22
ENDBRANCH   3  20
BRANCH   7  24
ATOM     24  C   UNL     1     -12.062  13.090  66.122  0.00  0.00    +0.185 C 
BRANCH  24  25
ATOM     25  O   UNL     1     -11.833  13.338  64.755  0.00  0.00    -0.346 OA
BRANCH  25  26
ATOM     26  C   UNL     1     -12.194  14.652  64.466  0.00  0.00    +0.163 C 
BRANCH  26  27
ATOM     27  C   UNL     1     -11.077  15.534  64.944  0.00  0.00    +0.141 C 
ATOM     28  N   UNL     1     -11.204  16.868  64.362  0.00  0.00    -0.129 NA
ENDBRANCH  26  27
ENDBRANCH  25  26
ENDBRANCH  24  25
ENDBRANCH   7  24
TORSDOF 10
ENDMDL
MODEL 8
REMARK VINA RESULT:      -5.5      2.725      4.682
REMARK  Name = 
REMARK  10 active torsions:
REMARK  status: ('A' for Active; 'I' for Inactive)
REMARK    1  A    between atoms: C_2  and  O_3
REMARK    2  A    between atoms: O_3  and  C_4
REMARK    3  A    between atoms: C_4  and  C_6
REMARK    4  A    between atoms: C_7  and  C_8
REMARK    5  A    between atoms: C_8  and  O_9
REMARK    6  A    between atoms: O_9  and  C_10
REMARK    7  A    between atoms: C_10  and  C_11
REMARK    8  A    between atoms: C_16  and  C_17
REMARK    9  A    between atoms: C_17  and  O_19
REMARK   10  A    between atoms: C_21  and  C_22
REMARK                            x       y       z     vdW  Elec       q    Type
REMARK                         _______ _______ _______ _____ _____    ______ ____
ROOT
ATOM      1  C   UNL     1      -9.710  14.934  67.730  0.00  0.00    +0.075 C 
ATOM      2  C   UNL     1     -10.279  13.728  66.818  0.00  0.00    +0.082 C 
ATOM      3  C   UNL     1     -11.510  14.545  66.138  0.00  0.00    +0.073 C 
ATOM      4  C   UNL     1     -10.956  15.585  65.505  0.00  0.00    +0.051 C 
ATOM      5  C   UNL     1     -11.266  15.980  64.120  0.00  0.00    +0.049 C 
ATOM      6  N   UNL     1     -10.714  16.594  66.497  0.00  0.00    -0.219 NA
ATOM      7  C   UNL     1     -10.307  16.060  67.764  0.00  0.00    +0.080 C 
ENDROOT
BRANCH   2   8
ATOM      8  C   UNL     1     -11.229  13.116  67.985  0.00  0.00    -0.003 A 
ATOM      9  C   UNL     1     -10.749  11.909  68.493  0.00  0.00    +0.054 A 
ATOM     10 CL   UNL     1      -9.121  11.296  68.197  0.00  0.00    -0.083 Cl
ATOM     11  C   UNL     1     -11.482  11.418  69.572  0.00  0.00    +0.011 A 
ATOM     12  C   UNL     1     -12.224  12.278  70.375  0.00  0.00    +0.001 A 
ATOM     13  C   UNL     1     -12.156  13.652  70.167  0.00  0.00    -0.000 A 
ATOM     14  C   UNL     1     -11.598  14.027  68.973  0.00  0.00    -0.003 A 
ENDBRANCH   2   8
BRANCH   1  15
ATOM     15  C   UNL     1      -8.302  14.720  68.112  0.00  0.00    +0.339 C 
ATOM     16  O   UNL     1      -7.938  14.766  69.299  0.00  0.00    -0.245 OA
BRANCH  15  17
ATOM     17  O   UNL     1      -7.304  15.088  67.202  0.00  0.00    -0.446 OA
BRANCH  17  19
ATOM     18  C   UNL     1      -7.071  17.208  66.247  0.00  0.00    +0.051 C 
ATOM     19  C   UNL     1      -6.594  16.317  67.294  0.00  0.00    +0.209 C 
ENDBRANCH  17  19
ENDBRANCH  15  17
ENDBRANCH   1  15
BRANCH   3  20
ATOM     20  C   UNL     1     -12.424  13.740  65.338  0.00  0.00    +0.339 C 
ATOM     21  O   UNL     1     -13.675  13.844  65.517  0.00  0.00    -0.245 OA
BRANCH  20  22
ATOM     22  O   UNL     1     -11.945  12.503  64.905  0.00  0.00    -0.442 OA
ATOM     23  C   UNL     1     -12.184  12.008  63.590  0.00  0.00    +0.256 C 
ENDBRANCH  20  22
ENDBRANCH   3  20
BRANCH   7  24
ATOM     24  C   UNL     1      -9.941  16.956  68.907  0.00  0.00    +0.185 C 
BRANCH  24  25
ATOM     25  O   UNL     1     -10.476  18.189  68.491  0.00  0.00    -0.346 OA
BRANCH  25  26
ATOM     26  C   UNL     1      -9.570  19.203  68.797  0.00  0.00    +0.163 C 
BRANCH  26  27
ATOM     27  C   UNL     1      -9.279  19.937  67.520  0.00  0.00    +0.141 C 
ATOM     28  N   UNL     1     -10.473  19.976  66.678  0.00  0.00    -0.129 NA
ENDBRANCH  26  27
ENDBRANCH  25  26
ENDBRANCH  24  25
ENDBRANCH   7  24
TORSDOF 10
ENDMDL
MODEL 9
REMARK VINA RESULT:      -5.5      2.487      5.155
REMARK  Name = 
REMARK  10 active torsions:
REMARK  status: ('A' for Active; 'I' for Inactive)
REMARK    1  A    between atoms: C_2  and  O_3
REMARK    2  A    between atoms: O_3  and  C_4
REMARK    3  A    between atoms: C_4  and  C_6
REMARK    4  A    between atoms: C_7  and  C_8
REMARK    5  A    between atoms: C_8  and  O_9
REMARK    6  A    between atoms: O_9  and  C_10
REMARK    7  A    between atoms: C_10  and  C_11
REMARK    8  A    between atoms: C_16  and  C_17
REMARK    9  A    between atoms: C_17  and  O_19
REMARK   10  A    between atoms: C_21  and  C_22
REMARK                            x       y       z     vdW  Elec       q    Type
REMARK                         _______ _______ _______ _____ _____    ______ ____
ROOT
ATOM      1  C   UNL     1      -9.337  16.740  67.825  0.00  0.00    +0.075 C 
ATOM      2  C   UNL     1      -8.437  18.074  67.962  0.00  0.00    +0.082 C 
ATOM      3  C   UNL     1      -8.595  18.591  66.428  0.00  0.00    +0.073 C 
ATOM      4  C   UNL     1      -9.907  18.753  66.228  0.00  0.00    +0.051 C 
ATOM      5  C   UNL     1     -10.516  19.949  65.620  0.00  0.00    +0.049 C 
ATOM      6  N   UNL     1     -10.448  17.455  65.943  0.00  0.00    -0.219 NA
ATOM      7  C   UNL     1      -9.831  16.403  66.698  0.00  0.00    +0.080 C 
ENDROOT
BRANCH   2   8
ATOM      8  C   UNL     1      -7.033  17.320  67.645  0.00  0.00    -0.003 A 
ATOM      9  C   UNL     1      -5.979  17.792  68.427  0.00  0.00    +0.054 A 
ATOM     10 CL   UNL     1      -6.192  18.807  69.855  0.00  0.00    -0.083 Cl
ATOM     11  C   UNL     1      -4.789  17.087  68.256  0.00  0.00    +0.011 A 
ATOM     12  C   UNL     1      -4.803  15.770  67.809  0.00  0.00    +0.001 A 
ATOM     13  C   UNL     1      -6.015  15.113  67.626  0.00  0.00    -0.000 A 
ATOM     14  C   UNL     1      -7.116  15.929  67.604  0.00  0.00    -0.003 A 
ENDBRANCH   2   8
BRANCH   1  15
ATOM     15  C   UNL     1      -9.834  16.272  69.131  0.00  0.00    +0.339 C 
ATOM     16  O   UNL     1      -9.457  15.195  69.622  0.00  0.00    -0.245 OA
BRANCH  15  17
ATOM     17  O   UNL     1     -11.125  16.649  69.523  0.00  0.00    -0.446 OA
BRANCH  17  19
ATOM     18  C   UNL     1     -12.064  15.984  71.558  0.00  0.00    +0.051 C 
ATOM     19  C   UNL     1     -12.041  15.741  70.123  0.00  0.00    +0.209 C 
ENDBRANCH  17  19
ENDBRANCH  15  17
ENDBRANCH   1  15
BRANCH   3  20
ATOM     20  C   UNL     1      -7.760  19.729  66.066  0.00  0.00    +0.339 C 
ATOM     21  O   UNL     1      -6.945  19.629  65.101  0.00  0.00    -0.245 OA
BRANCH  20  22
ATOM     22  O   UNL     1      -7.417  20.600  67.100  0.00  0.00    -0.442 OA
ATOM     23  C   UNL     1      -6.162  21.274  67.147  0.00  0.00    +0.256 C 
ENDBRANCH  20  22
ENDBRANCH   3  20
BRANCH   7  24
ATOM     24  C   UNL     1     -10.304  14.986  66.594  0.00  0.00    +0.185 C 
BRANCH  24  25
ATOM     25  O   UNL     1     -10.237  14.760  65.206  0.00  0.00    -0.346 OA
BRANCH  25  26
ATOM     26  C   UNL     1     -10.874  13.556  64.911  0.00  0.00    +0.163 C 
BRANCH  26  27
ATOM     27  C   UNL     1     -12.345  13.771  65.118  0.00  0.00    +0.141 C 
ATOM     28  N   UNL     1     -13.092  12.589  64.694  0.00  0.00    -0.129 NA
ENDBRANCH  26  27
ENDBRANCH  25  26
ENDBRANCH  24  25
ENDBRANCH   7  24
TORSDOF 10
ENDMDL
