MODEL 1
REMARK VINA RESULT:      -8.2      0.000      0.000
REMARK  Name = 
REMARK  2 active torsions:
REMARK  status: ('A' for Active; 'I' for Inactive)
REMARK    1  A    between atoms: C_26  and  C_27
REMARK    2  A    between atoms: C_27  and  C_29
REMARK                            x       y       z     vdW  Elec       q    Type
REMARK                         _______ _______ _______ _____ _____    ______ ____
ROOT
ATOM      1  C   UNL     1     -11.596  13.205  69.299  0.00  0.00    +0.061 C 
ATOM      2  C   UNL     1     -11.384  13.934  69.243  0.00  0.00    +0.188 C 
ATOM      3  O   UNL     1     -12.017  14.441  68.085  0.00  0.00    -0.330 OA
ATOM      4  C   UNL     1     -11.118  14.434  67.062  0.00  0.00    +0.173 C 
ATOM      5  C   UNL     1     -10.031  13.341  67.645  0.00  0.00    +0.149 C 
ATOM      6  C   UNL     1      -8.762  14.115  66.912  0.00  0.00    +0.033 C 
ATOM      7  C   UNL     1      -9.016  15.438  67.801  0.00  0.00    +0.005 C 
ATOM      8  C   UNL     1      -8.276  16.601  66.840  0.00  0.00    +0.006 C 
ATOM      9  C   UNL     1      -8.549  17.667  68.113  0.00  0.00    +0.038 C 
ATOM     10  C   UNL     1     -10.090  18.213  67.590  0.00  0.00    +0.153 C 
ATOM     11  C   UNL     1     -10.882  16.796  67.671  0.00  0.00    +0.036 C 
ATOM     12  O   UNL     1      -9.840  18.124  66.100  0.00  0.00    -0.223 OA
ATOM     13  C   UNL     1      -7.666  18.912  67.626  0.00  0.00    +0.039 C 
ATOM     14  C   UNL     1      -6.331  18.511  67.209  0.00  0.00    -0.006 C 
ATOM     15  C   UNL     1      -5.306  19.263  67.380  0.00  0.00    +0.036 C 
ATOM     16  C   UNL     1      -5.238  20.032  68.624  0.00  0.00    +0.195 C 
ATOM     17  C   UNL     1      -6.420  20.004  69.476  0.00  0.00    +0.038 C 
ATOM     18  O   UNL     1      -4.180  20.668  68.860  0.00  0.00    -0.287 OA
ATOM     19  C   UNL     1      -6.275  17.307  66.114  0.00  0.00    +0.180 C 
ATOM     20  F   UNL     1      -4.828  16.948  66.344  0.00  0.00    -0.233 F 
ATOM     21  C   UNL     1      -8.392  19.921  66.873  0.00  0.00    +0.009 C 
ATOM     22  C   UNL     1      -7.508  19.534  69.002  0.00  0.00    -0.020 C 
ATOM     23  C   UNL     1      -6.779  16.231  67.287  0.00  0.00    +0.040 C 
ATOM     24  C   UNL     1     -10.401  15.690  66.994  0.00  0.00    +0.034 C 
ATOM     25  C   UNL     1     -10.045  15.755  65.493  0.00  0.00    +0.003 C 
ATOM     26  O   UNL     1     -10.004  14.040  68.992  0.00  0.00    -0.334 OA
ATOM     27  C   UNL     1     -11.760  14.904  70.371  0.00  0.00    +0.061 C 
ENDROOT
BRANCH   4  28
ATOM     28  C   UNL     1     -11.478  13.711  65.853  0.00  0.00    +0.210 C 
ATOM     29  O   UNL     1     -11.062  12.616  65.473  0.00  0.00    -0.291 OA
BRANCH  28  30
ATOM     30  C   UNL     1     -12.745  13.958  65.042  0.00  0.00    +0.248 C 
ATOM     31  O   UNL     1     -13.120  12.623  64.797  0.00  0.00    -0.212 OA
ENDBRANCH  28  30
ENDBRANCH   4  28
TORSDOF 2
ENDMDL
MODEL 2
REMARK VINA RESULT:      -7.9      4.066      8.080
REMARK  Name = 
REMARK  2 active torsions:
REMARK  status: ('A' for Active; 'I' for Inactive)
REMARK    1  A    between atoms: C_26  and  C_27
REMARK    2  A    between atoms: C_27  and  C_29
REMARK                            x       y       z     vdW  Elec       q    Type
REMARK                         _______ _______ _______ _____ _____    ______ ____
ROOT
ATOM      1  C   UNL     1      -8.666  15.252  67.085  0.00  0.00    +0.061 C 
ATOM      2  C   UNL     1      -8.622  14.521  67.293  0.00  0.00    +0.188 C 
ATOM      3  O   UNL     1      -9.122  13.770  66.206  0.00  0.00    -0.330 OA
ATOM      4  C   UNL     1     -10.416  13.437  66.469  0.00  0.00    +0.173 C 
ATOM      5  C   UNL     1     -10.773  14.563  67.617  0.00  0.00    +0.149 C 
ATOM      6  C   UNL     1     -11.804  13.530  68.403  0.00  0.00    +0.033 C 
ATOM      7  C   UNL     1     -10.591  12.517  68.727  0.00  0.00    +0.005 C 
ATOM      8  C   UNL     1     -11.440  11.088  68.970  0.00  0.00    +0.006 C 
ATOM      9  C   UNL     1      -9.970  10.425  69.450  0.00  0.00    +0.038 C 
ATOM     10  C   UNL     1      -9.484   9.873  67.899  0.00  0.00    +0.153 C 
ATOM     11  C   UNL     1      -9.400  11.314  67.152  0.00  0.00    +0.036 C 
ATOM     12  O   UNL     1     -10.859   9.541  67.363  0.00  0.00    -0.223 OA
ATOM     13  C   UNL     1     -10.480   9.034  70.060  0.00  0.00    +0.039 C 
ATOM     14  C   UNL     1     -11.599   9.210  70.974  0.00  0.00    -0.006 C 
ATOM     15  C   UNL     1     -11.768   8.458  71.999  0.00  0.00    +0.036 C 
ATOM     16  C   UNL     1     -10.573   8.048  72.737  0.00  0.00    +0.195 C 
ATOM     17  C   UNL     1      -9.287   8.390  72.142  0.00  0.00    +0.038 C 
ATOM     18  O   UNL     1     -10.737   7.423  73.816  0.00  0.00    -0.287 OA
ATOM     19  C   UNL     1     -12.851  10.068  70.385  0.00  0.00    +0.180 C 
ATOM     20  F   UNL     1     -13.481  10.369  71.723  0.00  0.00    -0.233 F 
ATOM     21  C   UNL     1     -10.465   7.916  69.132  0.00  0.00    +0.009 C 
ATOM     22  C   UNL     1      -9.259   8.794  70.931  0.00  0.00    -0.020 C 
ATOM     23  C   UNL     1     -11.921  11.454  70.457  0.00  0.00    +0.040 C 
ATOM     24  C   UNL     1     -10.494  12.160  67.146  0.00  0.00    +0.034 C 
ATOM     25  C   UNL     1     -11.891  11.668  66.708  0.00  0.00    +0.003 C 
ATOM     26  O   UNL     1      -9.491  14.251  68.367  0.00  0.00    -0.334 OA
ATOM     27  C   UNL     1      -7.245  13.919  67.605  0.00  0.00    +0.061 C 
ENDROOT
BRANCH   4  28
ATOM     28  C   UNL     1     -11.425  13.833  65.500  0.00  0.00    +0.210 C 
ATOM     29  O   UNL     1     -12.091  14.868  65.481  0.00  0.00    -0.291 OA
BRANCH  28  30
ATOM     30  C   UNL     1     -11.552  13.253  64.096  0.00  0.00    +0.248 C 
ATOM     31  O   UNL     1     -12.589  14.070  63.607  0.00  0.00    -0.212 OA
ENDBRANCH  28  30
ENDBRANCH   4  28
TORSDOF 2
ENDMDL
MODEL 3
REMARK VINA RESULT:      -7.4      2.054      3.621
REMARK  Name = 
REMARK  2 active torsions:
REMARK  status: ('A' for Active; 'I' for Inactive)
REMARK    1  A    between atoms: C_26  and  C_27
REMARK    2  A    between atoms: C_27  and  C_29
REMARK                            x       y       z     vdW  Elec       q    Type
REMARK                         _______ _______ _______ _____ _____    ______ ____
ROOT
ATOM      1  C   UNL     1     -11.906  12.653  65.475  0.00  0.00    +0.061 C 
ATOM      2  C   UNL     1     -11.245  13.024  65.541  0.00  0.00    +0.188 C 
ATOM      3  O   UNL     1     -10.616  12.511  66.698  0.00  0.00    -0.330 OA
ATOM      4  C   UNL     1     -10.837  13.373  67.729  0.00  0.00    +0.173 C 
ATOM      5  C   UNL     1     -12.144  14.188  67.144  0.00  0.00    +0.149 C 
ATOM      6  C   UNL     1     -11.686  15.593  67.896  0.00  0.00    +0.033 C 
ATOM      7  C   UNL     1     -10.333  15.657  67.019  0.00  0.00    +0.005 C 
ATOM      8  C   UNL     1      -9.377  16.631  67.999  0.00  0.00    +0.006 C 
ATOM      9  C   UNL     1      -8.266  16.623  66.735  0.00  0.00    +0.038 C 
ATOM     10  C   UNL     1      -7.387  15.241  67.250  0.00  0.00    +0.153 C 
ATOM     11  C   UNL     1      -8.586  14.148  67.146  0.00  0.00    +0.036 C 
ATOM     12  O   UNL     1      -7.544  15.448  68.741  0.00  0.00    -0.223 OA
ATOM     13  C   UNL     1      -7.259  17.761  67.243  0.00  0.00    +0.039 C 
ATOM     14  C   UNL     1      -7.958  18.965  67.668  0.00  0.00    -0.006 C 
ATOM     15  C   UNL     1      -7.458  20.136  67.513  0.00  0.00    +0.036 C 
ATOM     16  C   UNL     1      -6.715  20.391  66.279  0.00  0.00    +0.195 C 
ATOM     17  C   UNL     1      -6.466  19.243  65.415  0.00  0.00    +0.038 C 
ATOM     18  O   UNL     1      -6.335  21.569  66.058  0.00  0.00    -0.287 OA
ATOM     19  C   UNL     1      -9.152  18.733  68.750  0.00  0.00    +0.180 C 
ATOM     20  F   UNL     1      -9.829  20.063  68.529  0.00  0.00    -0.233 F 
ATOM     21  C   UNL     1      -6.118  17.276  67.999  0.00  0.00    +0.009 C 
ATOM     22  C   UNL     1      -6.679  18.072  65.875  0.00  0.00    -0.020 C 
ATOM     23  C   UNL     1     -10.075  18.009  67.561  0.00  0.00    +0.040 C 
ATOM     24  C   UNL     1      -9.778  14.356  67.816  0.00  0.00    +0.034 C 
ATOM     25  C   UNL     1      -9.808  14.702  69.321  0.00  0.00    +0.003 C 
ATOM     26  O   UNL     1     -11.459  14.389  65.805  0.00  0.00    -0.334 OA
ATOM     27  C   UNL     1     -10.205  12.892  64.419  0.00  0.00    +0.061 C 
ENDROOT
BRANCH   4  28
ATOM     28  C   UNL     1     -11.468  12.844  68.927  0.00  0.00    +0.210 C 
ATOM     29  O   UNL     1     -12.438  13.298  69.535  0.00  0.00    -0.291 OA
BRANCH  28  30
ATOM     30  C   UNL     1     -11.330  11.407  69.415  0.00  0.00    +0.248 C 
ATOM     31  O   UNL     1     -12.438  10.837  68.759  0.00  0.00    -0.212 OA
ENDBRANCH  28  30
ENDBRANCH   4  28
TORSDOF 2
ENDMDL
MODEL 4
REMARK VINA RESULT:      -7.2      4.326      6.996
REMARK  Name = 
REMARK  2 active torsions:
REMARK  status: ('A' for Active; 'I' for Inactive)
REMARK    1  A    between atoms: C_26  and  C_27
REMARK    2  A    between atoms: C_27  and  C_29
REMARK                            x       y       z     vdW  Elec       q    Type
REMARK                         _______ _______ _______ _____ _____    ______ ____
ROOT
ATOM      1  C   UNL     1      -6.153   8.623  67.845  0.00  0.00    +0.061 C 
ATOM      2  C   UNL     1      -6.576   9.249  67.939  0.00  0.00    +0.188 C 
ATOM      3  O   UNL     1      -7.662   8.873  68.760  0.00  0.00    -0.330 OA
ATOM      4  C   UNL     1      -8.747   8.646  67.968  0.00  0.00    +0.173 C 
ATOM      5  C   UNL     1      -7.996   8.411  66.520  0.00  0.00    +0.149 C 
ATOM      6  C   UNL     1      -9.263   9.077  65.682  0.00  0.00    +0.033 C 
ATOM      7  C   UNL     1      -9.030  10.502  66.402  0.00  0.00    +0.005 C 
ATOM      8  C   UNL     1     -10.549  11.195  66.213  0.00  0.00    +0.006 C 
ATOM      9  C   UNL     1      -9.864  12.599  66.837  0.00  0.00    +0.038 C 
ATOM     10  C   UNL     1     -10.215  12.278  68.486  0.00  0.00    +0.153 C 
ATOM     11  C   UNL     1      -9.331  10.925  68.655  0.00  0.00    +0.036 C 
ATOM     12  O   UNL     1     -11.520  11.542  68.274  0.00  0.00    -0.223 OA
ATOM     13  C   UNL     1     -11.043  13.641  66.531  0.00  0.00    +0.039 C 
ATOM     14  C   UNL     1     -11.524  13.542  65.160  0.00  0.00    -0.006 C 
ATOM     15  C   UNL     1     -11.943  14.563  64.508  0.00  0.00    +0.036 C 
ATOM     16  C   UNL     1     -11.227  15.825  64.702  0.00  0.00    +0.195 C 
ATOM     17  C   UNL     1     -10.211  15.847  65.747  0.00  0.00    +0.038 C 
ATOM     18  O   UNL     1     -11.545  16.796  63.970  0.00  0.00    -0.287 OA
ATOM     19  C   UNL     1     -11.944  12.045  64.676  0.00  0.00    +0.180 C 
ATOM     20  F   UNL     1     -11.909  12.340  63.197  0.00  0.00    -0.233 F 
ATOM     21  C   UNL     1     -11.982  13.840  67.620  0.00  0.00    +0.009 C 
ATOM     22  C   UNL     1     -10.166  14.880  66.580  0.00  0.00    -0.020 C 
ATOM     23  C   UNL     1     -10.333  11.605  64.676  0.00  0.00    +0.040 C 
ATOM     24  C   UNL     1      -9.529   9.853  67.804  0.00  0.00    +0.034 C 
ATOM     25  C   UNL     1     -10.937   9.270  67.555  0.00  0.00    +0.003 C 
ATOM     26  O   UNL     1      -7.150   9.655  66.720  0.00  0.00    -0.334 OA
ATOM     27  C   UNL     1      -5.950  10.472  68.625  0.00  0.00    +0.061 C 
ENDROOT
BRANCH   4  28
ATOM     28  C   UNL     1      -9.387   7.344  68.059  0.00  0.00    +0.210 C 
ATOM     29  O   UNL     1      -9.238   6.374  67.316  0.00  0.00    -0.291 OA
BRANCH  28  30
ATOM     30  C   UNL     1     -10.035   6.785  69.320  0.00  0.00    +0.248 C 
ATOM     31  O   UNL     1     -11.023   5.976  68.727  0.00  0.00    -0.212 OA
ENDBRANCH  28  30
ENDBRANCH   4  28
TORSDOF 2
ENDMDL
MODEL 5
REMARK VINA RESULT:      -7.1      2.365      4.109
REMARK  Name = 
REMARK  2 active torsions:
REMARK  status: ('A' for Active; 'I' for Inactive)
REMARK    1  A    between atoms: C_26  and  C_27
REMARK    2  A    between atoms: C_27  and  C_29
REMARK                            x       y       z     vdW  Elec       q    Type
REMARK                         _______ _______ _______ _____ _____    ______ ____
ROOT
ATOM      1  C   UNL     1      -9.262  10.141  66.025  0.00  0.00    +0.061 C 
ATOM      2  C   UNL     1      -8.865  10.753  66.241  0.00  0.00    +0.188 C 
ATOM      3  O   UNL     1      -9.067  10.885  67.633  0.00  0.00    -0.330 OA
ATOM      4  C   UNL     1     -10.027  11.828  67.845  0.00  0.00    +0.173 C 
ATOM      5  C   UNL     1     -10.748  11.837  66.363  0.00  0.00    +0.149 C 
ATOM      6  C   UNL     1     -11.102  13.453  66.474  0.00  0.00    +0.033 C 
ATOM      7  C   UNL     1      -9.532  13.823  66.523  0.00  0.00    +0.005 C 
ATOM      8  C   UNL     1      -9.596  15.333  67.258  0.00  0.00    +0.006 C 
ATOM      9  C   UNL     1      -7.947  15.435  66.942  0.00  0.00    +0.038 C 
ATOM     10  C   UNL     1      -7.416  14.739  68.418  0.00  0.00    +0.153 C 
ATOM     11  C   UNL     1      -8.083  13.267  68.236  0.00  0.00    +0.036 C 
ATOM     12  O   UNL     1      -8.528  15.264  69.299  0.00  0.00    -0.223 OA
ATOM     13  C   UNL     1      -7.692  16.978  67.290  0.00  0.00    +0.039 C 
ATOM     14  C   UNL     1      -8.669  17.854  66.659  0.00  0.00    -0.006 C 
ATOM     15  C   UNL     1      -8.370  19.034  66.257  0.00  0.00    +0.036 C 
ATOM     16  C   UNL     1      -7.054  19.222  65.645  0.00  0.00    +0.195 C 
ATOM     17  C   UNL     1      -6.138  18.089  65.703  0.00  0.00    +0.038 C 
ATOM     18  O   UNL     1      -6.803  20.341  65.130  0.00  0.00    -0.287 OA
ATOM     19  C   UNL     1     -10.228  17.459  66.917  0.00  0.00    +0.180 C 
ATOM     20  F   UNL     1     -10.790  18.274  65.779  0.00  0.00    -0.233 F 
ATOM     21  C   UNL     1      -7.255  17.235  68.651  0.00  0.00    +0.009 C 
ATOM     22  C   UNL     1      -6.420  17.110  66.472  0.00  0.00    -0.020 C 
ATOM     23  C   UNL     1     -10.041  16.123  65.933  0.00  0.00    +0.040 C 
ATOM     24  C   UNL     1      -9.438  13.142  67.994  0.00  0.00    +0.034 C 
ATOM     25  C   UNL     1     -10.486  13.844  68.885  0.00  0.00    +0.003 C 
ATOM     26  O   UNL     1      -9.400  11.924  65.672  0.00  0.00    -0.334 OA
ATOM     27  C   UNL     1      -7.342  10.758  66.047  0.00  0.00    +0.061 C 
ENDROOT
BRANCH   4  28
ATOM     28  C   UNL     1     -11.195  11.438  68.617  0.00  0.00    +0.210 C 
ATOM     29  O   UNL     1     -12.351  11.291  68.220  0.00  0.00    -0.291 OA
BRANCH  28  30
ATOM     30  C   UNL     1     -11.144  10.727  69.964  0.00  0.00    +0.248 C 
ATOM     31  O   UNL     1     -12.174  11.421  70.626  0.00  0.00    -0.212 OA
ENDBRANCH  28  30
ENDBRANCH   4  28
TORSDOF 2
ENDMDL
MODEL 6
REMARK VINA RESULT:      -7.1      3.087      6.860
REMARK  Name = 
REMARK  2 active torsions:
REMARK  status: ('A' for Active; 'I' for Inactive)
REMARK    1  A    between atoms: C_26  and  C_27
REMARK    2  A    between atoms: C_27  and  C_29
REMARK                            x       y       z     vdW  Elec       q    Type
REMARK                         _______ _______ _______ _____ _____    ______ ____
ROOT
ATOM      1  C   UNL     1      -9.786  17.750  68.498  0.00  0.00    +0.061 C 
ATOM      2  C   UNL     1     -10.024  17.272  67.955  0.00  0.00    +0.188 C 
ATOM      3  O   UNL     1     -11.311  16.839  68.345  0.00  0.00    -0.330 OA
ATOM      4  C   UNL     1     -11.197  15.614  68.929  0.00  0.00    +0.173 C 
ATOM      5  C   UNL     1      -9.596  15.632  69.319  0.00  0.00    +0.149 C 
ATOM      6  C   UNL     1      -9.456  13.996  69.089  0.00  0.00    +0.033 C 
ATOM      7  C   UNL     1      -9.828  14.153  67.527  0.00  0.00    +0.005 C 
ATOM      8  C   UNL     1     -10.369  12.600  67.182  0.00  0.00    +0.006 C 
ATOM      9  C   UNL     1     -10.434  13.098  65.577  0.00  0.00    +0.038 C 
ATOM     10  C   UNL     1     -12.056  13.657  65.605  0.00  0.00    +0.153 C 
ATOM     11  C   UNL     1     -11.878  14.840  66.706  0.00  0.00    +0.036 C 
ATOM     12  O   UNL     1     -12.598  12.652  66.597  0.00  0.00    -0.223 OA
ATOM     13  C   UNL     1     -10.671  11.685  64.858  0.00  0.00    +0.039 C 
ATOM     14  C   UNL     1      -9.746  10.665  65.328  0.00  0.00    -0.006 C 
ATOM     15  C   UNL     1      -9.304   9.737  64.561  0.00  0.00    +0.036 C 
ATOM     16  C   UNL     1      -8.997  10.098  63.177  0.00  0.00    +0.195 C 
ATOM     17  C   UNL     1      -9.381  11.438  62.750  0.00  0.00    +0.038 C 
ATOM     18  O   UNL     1      -8.442   9.231  62.456  0.00  0.00    -0.287 OA
ATOM     19  C   UNL     1      -9.676  10.480  66.944  0.00  0.00    +0.180 C 
ATOM     20  F   UNL     1      -8.361   9.740  66.964  0.00  0.00    -0.233 F 
ATOM     21  C   UNL     1     -12.063  11.349  64.613  0.00  0.00    +0.009 C 
ATOM     22  C   UNL     1     -10.160  12.120  63.496  0.00  0.00    -0.020 C 
ATOM     23  C   UNL     1      -8.904  11.955  67.070  0.00  0.00    +0.040 C 
ATOM     24  C   UNL     1     -11.342  14.558  67.950  0.00  0.00    +0.034 C 
ATOM     25  C   UNL     1     -11.891  13.408  68.822  0.00  0.00    +0.003 C 
ATOM     26  O   UNL     1      -9.230  16.110  67.926  0.00  0.00    -0.334 OA
ATOM     27  C   UNL     1     -10.187  17.798  66.522  0.00  0.00    +0.061 C 
ENDROOT
BRANCH   4  28
ATOM     28  C   UNL     1     -11.715  15.460  70.279  0.00  0.00    +0.210 C 
ATOM     29  O   UNL     1     -11.102  15.564  71.342  0.00  0.00    -0.291 OA
BRANCH  28  30
ATOM     30  C   UNL     1     -13.187  15.562  70.658  0.00  0.00    +0.248 C 
ATOM     31  O   UNL     1     -13.048  15.938  72.008  0.00  0.00    -0.212 OA
ENDBRANCH  28  30
ENDBRANCH   4  28
TORSDOF 2
ENDMDL
MODEL 7
REMARK VINA RESULT:      -7.0      3.987      7.397
REMARK  Name = 
REMARK  2 active torsions:
REMARK  status: ('A' for Active; 'I' for Inactive)
REMARK    1  A    between atoms: C_26  and  C_27
REMARK    2  A    between atoms: C_27  and  C_29
REMARK                            x       y       z     vdW  Elec       q    Type
REMARK                         _______ _______ _______ _____ _____    ______ ____
ROOT
ATOM      1  C   UNL     1     -10.184  15.880  66.549  0.00  0.00    +0.061 C 
ATOM      2  C   UNL     1      -9.769  15.259  66.696  0.00  0.00    +0.188 C 
ATOM      3  O   UNL     1      -9.939  14.399  65.588  0.00  0.00    -0.330 OA
ATOM      4  C   UNL     1     -10.873  13.461  65.907  0.00  0.00    +0.173 C 
ATOM      5  C   UNL     1     -11.624  14.222  67.161  0.00  0.00    +0.149 C 
ATOM      6  C   UNL     1     -11.939  12.786  67.928  0.00  0.00    +0.033 C 
ATOM      7  C   UNL     1     -10.361  12.493  68.092  0.00  0.00    +0.005 C 
ATOM      8  C   UNL     1     -10.376  10.823  68.277  0.00  0.00    +0.006 C 
ATOM      9  C   UNL     1      -8.732  10.955  68.607  0.00  0.00    +0.038 C 
ATOM     10  C   UNL     1      -8.187  10.772  66.990  0.00  0.00    +0.153 C 
ATOM     11  C   UNL     1      -8.889  12.093  66.355  0.00  0.00    +0.036 C 
ATOM     12  O   UNL     1      -9.268   9.825  66.520  0.00  0.00    -0.223 OA
ATOM     13  C   UNL     1      -8.436   9.472  69.138  0.00  0.00    +0.039 C 
ATOM     14  C   UNL     1      -9.406   9.040  70.134  0.00  0.00    -0.006 C 
ATOM     15  C   UNL     1      -9.088   8.266  71.106  0.00  0.00    +0.036 C 
ATOM     16  C   UNL     1      -7.781   8.473  71.730  0.00  0.00    +0.195 C 
ATOM     17  C   UNL     1      -6.890   9.426  71.082  0.00  0.00    +0.038 C 
ATOM     18  O   UNL     1      -7.516   7.809  72.765  0.00  0.00    -0.287 OA
ATOM     19  C   UNL     1     -10.967   9.189  69.696  0.00  0.00    +0.180 C 
ATOM     20  F   UNL     1     -11.534   9.090  71.091  0.00  0.00    -0.233 F 
ATOM     21  C   UNL     1      -7.965   8.543  68.127  0.00  0.00    +0.009 C 
ATOM     22  C   UNL     1      -7.178   9.835  69.907  0.00  0.00    -0.020 C 
ATOM     23  C   UNL     1     -10.831  10.849  69.816  0.00  0.00    +0.040 C 
ATOM     24  C   UNL     1     -10.252  12.288  66.486  0.00  0.00    +0.034 C 
ATOM     25  C   UNL     1     -11.265  11.188  66.101  0.00  0.00    +0.003 C 
ATOM     26  O   UNL     1     -10.289  14.556  67.799  0.00  0.00    -0.334 OA
ATOM     27  C   UNL     1      -8.251  15.404  66.871  0.00  0.00    +0.061 C 
ENDROOT
BRANCH   4  28
ATOM     28  C   UNL     1     -12.034  13.343  65.039  0.00  0.00    +0.210 C 
ATOM     29  O   UNL     1     -13.145  13.852  65.187  0.00  0.00    -0.291 OA
BRANCH  28  30
ATOM     30  C   UNL     1     -11.980  12.924  63.575  0.00  0.00    +0.248 C 
ATOM     31  O   UNL     1     -13.156  12.152  63.517  0.00  0.00    -0.212 OA
ENDBRANCH  28  30
ENDBRANCH   4  28
TORSDOF 2
ENDMDL
MODEL 8
REMARK VINA RESULT:      -6.9      4.944      8.671
REMARK  Name = 
REMARK  2 active torsions:
REMARK  status: ('A' for Active; 'I' for Inactive)
REMARK    1  A    between atoms: C_26  and  C_27
REMARK    2  A    between atoms: C_27  and  C_29
REMARK                            x       y       z     vdW  Elec       q    Type
REMARK                         _______ _______ _______ _____ _____    ______ ____
ROOT
ATOM      1  C   UNL     1      -9.414  14.372  67.460  0.00  0.00    +0.061 C 
ATOM      2  C   UNL     1      -9.147  13.723  67.756  0.00  0.00    +0.188 C 
ATOM      3  O   UNL     1      -9.209  12.763  66.721  0.00  0.00    -0.330 OA
ATOM      4  C   UNL     1     -10.329  12.009  66.896  0.00  0.00    +0.173 C 
ATOM      5  C   UNL     1     -11.202  13.017  67.865  0.00  0.00    +0.149 C 
ATOM      6  C   UNL     1     -11.905  11.745  68.664  0.00  0.00    +0.033 C 
ATOM      7  C   UNL     1     -10.469  11.261  69.219  0.00  0.00    +0.005 C 
ATOM      8  C   UNL     1     -10.794   9.646  69.546  0.00  0.00    +0.006 C 
ATOM      9  C   UNL     1      -9.262   9.592  70.238  0.00  0.00    +0.038 C 
ATOM     10  C   UNL     1      -8.415   9.135  68.818  0.00  0.00    +0.153 C 
ATOM     11  C   UNL     1      -8.739  10.449  67.918  0.00  0.00    +0.036 C 
ATOM     12  O   UNL     1      -9.506   8.293  68.195  0.00  0.00    -0.223 OA
ATOM     13  C   UNL     1      -9.332   8.160  70.956  0.00  0.00    +0.039 C 
ATOM     14  C   UNL     1     -10.553   7.993  71.732  0.00  0.00    -0.006 C 
ATOM     15  C   UNL     1     -10.584   7.310  72.817  0.00  0.00    +0.036 C 
ATOM     16  C   UNL     1      -9.429   7.413  73.709  0.00  0.00    +0.195 C 
ATOM     17  C   UNL     1      -8.275   8.147  73.204  0.00  0.00    +0.038 C 
ATOM     18  O   UNL     1      -9.506   6.854  74.832  0.00  0.00    -0.287 OA
ATOM     19  C   UNL     1     -11.936   8.298  70.929  0.00  0.00    +0.180 C 
ATOM     20  F   UNL     1     -12.802   8.453  72.155  0.00  0.00    -0.233 F 
ATOM     21  C   UNL     1      -8.810   7.056  70.171  0.00  0.00    +0.009 C 
ATOM     22  C   UNL     1      -8.230   8.441  71.962  0.00  0.00    -0.020 C 
ATOM     23  C   UNL     1     -11.562   9.926  70.927  0.00  0.00    +0.040 C 
ATOM     24  C   UNL     1     -10.048  10.844  67.708  0.00  0.00    +0.034 C 
ATOM     25  C   UNL     1     -11.117   9.853  67.198  0.00  0.00    +0.003 C 
ATOM     26  O   UNL     1     -10.001  13.242  68.765  0.00  0.00    -0.334 OA
ATOM     27  C   UNL     1      -7.700  13.680  68.267  0.00  0.00    +0.061 C 
ENDROOT
BRANCH   4  28
ATOM     28  C   UNL     1     -11.276  11.944  65.795  0.00  0.00    +0.210 C 
ATOM     29  O   UNL     1     -12.383  12.478  65.715  0.00  0.00    -0.291 OA
BRANCH  28  30
ATOM     30  C   UNL     1     -10.915  11.561  64.365  0.00  0.00    +0.248 C 
ATOM     31  O   UNL     1     -12.100  11.961  63.718  0.00  0.00    -0.212 OA
ENDBRANCH  28  30
ENDBRANCH   4  28
TORSDOF 2
ENDMDL
MODEL 9
REMARK VINA RESULT:      -6.9      5.282      8.538
REMARK  Name = 
REMARK  2 active torsions:
REMARK  status: ('A' for Active; 'I' for Inactive)
REMARK    1  A    between atoms: C_26  and  C_27
REMARK    2  A    between atoms: C_27  and  C_29
REMARK                            x       y       z     vdW  Elec       q    Type
REMARK                         _______ _______ _______ _____ _____    ______ ____
ROOT
ATOM      1  C   UNL     1     -10.627   5.422  69.836  0.00  0.00    +0.061 C 
ATOM      2  C   UNL     1     -10.493   5.959  69.313  0.00  0.00    +0.188 C 
ATOM      3  O   UNL     1      -9.167   6.397  69.528  0.00  0.00    -0.330 OA
ATOM      4  C   UNL     1      -9.204   7.555  70.245  0.00  0.00    +0.173 C 
ATOM      5  C   UNL     1     -10.717   7.443  70.889  0.00  0.00    +0.149 C 
ATOM      6  C   UNL     1     -10.924   9.087  70.854  0.00  0.00    +0.033 C 
ATOM      7  C   UNL     1     -10.815   9.096  69.244  0.00  0.00    +0.005 C 
ATOM      8  C   UNL     1     -10.369  10.694  68.975  0.00  0.00    +0.006 C 
ATOM      9  C   UNL     1     -10.565  10.357  67.338  0.00  0.00    +0.038 C 
ATOM     10  C   UNL     1      -8.951   9.856  67.041  0.00  0.00    +0.153 C 
ATOM     11  C   UNL     1      -8.920   8.566  68.030  0.00  0.00    +0.036 C 
ATOM     12  O   UNL     1      -8.269  10.777  68.028  0.00  0.00    -0.223 OA
ATOM     13  C   UNL     1     -10.478  11.841  66.738  0.00  0.00    +0.039 C 
ATOM     14  C   UNL     1     -11.330  12.777  67.456  0.00  0.00    -0.006 C 
ATOM     15  C   UNL     1     -11.911  13.759  66.872  0.00  0.00    +0.036 C 
ATOM     16  C   UNL     1     -12.439  13.524  65.527  0.00  0.00    +0.195 C 
ATOM     17  C   UNL     1     -12.107  12.247  64.908  0.00  0.00    +0.038 C 
ATOM     18  O   UNL     1     -13.123  14.438  65.000  0.00  0.00    -0.287 OA
ATOM     19  C   UNL     1     -11.131  12.801  69.072  0.00  0.00    +0.180 C 
ATOM     20  F   UNL     1     -12.437  13.489  69.384  0.00  0.00    -0.233 F 
ATOM     21  C   UNL     1      -9.154  12.248  66.302  0.00  0.00    +0.009 C 
ATOM     22  C   UNL     1     -11.201  11.523  65.441  0.00  0.00    -0.020 C 
ATOM     23  C   UNL     1     -11.844  11.294  69.172  0.00  0.00    +0.040 C 
ATOM     24  C   UNL     1      -9.245   8.706  69.367  0.00  0.00    +0.034 C 
ATOM     25  C   UNL     1      -8.579   9.784  70.250  0.00  0.00    +0.003 C 
ATOM     26  O   UNL     1     -11.302   7.090  69.534  0.00  0.00    -0.334 OA
ATOM     27  C   UNL     1     -10.562   5.582  67.827  0.00  0.00    +0.061 C 
ENDROOT
BRANCH   4  28
ATOM     28  C   UNL     1      -8.470   7.595  71.499  0.00  0.00    +0.210 C 
ATOM     29  O   UNL     1      -8.926   7.594  72.643  0.00  0.00    -0.291 OA
BRANCH  28  30
ATOM     30  C   UNL     1      -7.002   7.216  71.655  0.00  0.00    +0.248 C 
ATOM     31  O   UNL     1      -7.158   5.922  72.188  0.00  0.00    -0.212 OA
ENDBRANCH  28  30
ENDBRANCH   4  28
TORSDOF 2
ENDMDL
