MODEL 1
REMARK VINA RESULT:      -6.7      0.000      0.000
REMARK  Name = 
REMARK  6 active torsions:
REMARK  status: ('A' for Active; 'I' for Inactive)
REMARK    1  A    between atoms: N_2  and  C_4
REMARK    2  A    between atoms: C_4  and  C_5
REMARK    3  A    between atoms: C_5  and  C_6
REMARK    4  A    between atoms: C_6  and  C_7
REMARK    5  A    between atoms: C_7  and  C_8
REMARK    6  A    between atoms: C_19  and  C_20
REMARK                            x       y       z     vdW  Elec       q    Type
REMARK                         _______ _______ _______ _____ _____    ______ ____
ROOT
ATOM      1  C   UNL     1     -10.637  15.554  68.256  0.00  0.00    +0.130 C 
ATOM      2  C   UNL     1     -11.180  14.979  66.984  0.00  0.00    +0.004 A 
ATOM      3  C   UNL     1     -11.517  13.678  67.345  0.00  0.00    +0.006 A 
ATOM      4  C   UNL     1     -11.980  12.875  66.328  0.00  0.00    +0.008 A 
ATOM      5  C   UNL     1     -11.713  13.178  64.999  0.00  0.00    +0.068 A 
ATOM      6  C   UNL     1     -11.017  14.332  64.655  0.00  0.00    +0.010 A 
ATOM      7  C   UNL     1     -10.886  13.453  68.684  0.00  0.00    +0.169 C 
ATOM      8  C   UNL     1     -10.949  15.299  65.651  0.00  0.00    -0.001 A 
ATOM      9  O   UNL     1      -9.929  14.479  68.750  0.00  0.00    -0.346 OA
ENDROOT
BRANCH   1  10
ATOM     10  C   UNL     1      -9.800  16.729  67.941  0.00  0.00    +0.006 A 
ATOM     11  C   UNL     1     -10.318  18.013  67.946  0.00  0.00    +0.001 A 
ATOM     12  C   UNL     1      -9.631  19.083  68.508  0.00  0.00    +0.029 A 
ATOM     13  C   UNL     1      -8.280  18.944  68.794  0.00  0.00    +0.140 A 
ATOM     14  F   UNL     1      -7.488  20.032  68.768  0.00  0.00    -0.204 F 
ATOM     15  C   UNL     1      -7.673  17.715  68.577  0.00  0.00    +0.029 A 
ATOM     16  C   UNL     1      -8.452  16.627  68.258  0.00  0.00    +0.001 A 
ENDBRANCH   1  10
BRANCH   5  17
ATOM     17  C   UNL     1     -12.286  12.341  63.972  0.00  0.00    +0.100 C 
ATOM     18  N   UNL     1     -12.853  11.763  63.136  0.00  0.00    -0.191 NA
ENDBRANCH   5  17
BRANCH   1  19
ATOM     19  C   UNL     1     -11.753  15.898  69.199  0.00  0.00    +0.037 C 
BRANCH  19  20
ATOM     20  C   UNL     1     -11.199  16.078  70.583  0.00  0.00    +0.020 C 
BRANCH  20  21
ATOM     21  C   UNL     1     -11.862  15.180  71.602  0.00  0.00    +0.072 C 
BRANCH  21  23
ATOM     22  C   UNL     1     -12.738  15.961  73.643  0.00  0.00    +0.090 C 
ATOM     23  N   UNL     1     -12.944  15.840  72.294  0.00  0.00    -0.270 NA
ATOM     24  C   UNL     1     -14.224  15.210  71.980  0.00  0.00    +0.090 C 
ENDBRANCH  21  23
ENDBRANCH  20  21
ENDBRANCH  19  20
ENDBRANCH   1  19
TORSDOF 6
ENDMDL
MODEL 2
REMARK VINA RESULT:      -6.2      3.008      5.135
REMARK  Name = 
REMARK  6 active torsions:
REMARK  status: ('A' for Active; 'I' for Inactive)
REMARK    1  A    between atoms: N_2  and  C_4
REMARK    2  A    between atoms: C_4  and  C_5
REMARK    3  A    between atoms: C_5  and  C_6
REMARK    4  A    between atoms: C_6  and  C_7
REMARK    5  A    between atoms: C_7  and  C_8
REMARK    6  A    between atoms: C_19  and  C_20
REMARK                            x       y       z     vdW  Elec       q    Type
REMARK                         _______ _______ _______ _____ _____    ______ ____
ROOT
ATOM      1  C   UNL     1     -11.563  14.164  69.032  0.00  0.00    +0.130 C 
ATOM      2  C   UNL     1     -11.120  12.751  68.802  0.00  0.00    +0.004 A 
ATOM      3  C   UNL     1     -11.189  12.620  67.419  0.00  0.00    +0.006 A 
ATOM      4  C   UNL     1     -10.903  11.369  66.922  0.00  0.00    +0.008 A 
ATOM      5  C   UNL     1     -10.984  10.242  67.730  0.00  0.00    +0.068 A 
ATOM      6  C   UNL     1     -11.301  10.351  69.079  0.00  0.00    +0.010 A 
ATOM      7  C   UNL     1     -11.947  13.818  66.935  0.00  0.00    +0.169 C 
ATOM      8  C   UNL     1     -11.160  11.625  69.617  0.00  0.00    -0.001 A 
ATOM      9  O   UNL     1     -12.577  14.276  68.104  0.00  0.00    -0.346 OA
ENDROOT
BRANCH   1  10
ATOM     10  C   UNL     1     -12.011  14.313  70.430  0.00  0.00    +0.006 A 
ATOM     11  C   UNL     1     -11.262  15.010  71.363  0.00  0.00    +0.001 A 
ATOM     12  C   UNL     1     -11.843  15.893  72.266  0.00  0.00    +0.029 A 
ATOM     13  C   UNL     1     -13.217  15.857  72.456  0.00  0.00    +0.140 A 
ATOM     14  F   UNL     1     -13.724  16.223  73.648  0.00  0.00    -0.204 F 
ATOM     15  C   UNL     1     -13.978  14.989  71.686  0.00  0.00    +0.029 A 
ATOM     16  C   UNL     1     -13.384  14.323  70.639  0.00  0.00    +0.001 A 
ENDBRANCH   1  10
BRANCH   5  17
ATOM     17  C   UNL     1     -10.602   8.965  67.173  0.00  0.00    +0.100 C 
ATOM     18  N   UNL     1     -10.229   8.012  66.622  0.00  0.00    -0.191 NA
ENDBRANCH   5  17
BRANCH   1  19
ATOM     19  C   UNL     1     -10.462  15.125  68.690  0.00  0.00    +0.037 C 
BRANCH  19  20
ATOM     20  C   UNL     1     -11.024  16.514  68.593  0.00  0.00    +0.020 C 
BRANCH  20  21
ATOM     21  C   UNL     1     -10.348  17.348  67.529  0.00  0.00    +0.072 C 
BRANCH  21  23
ATOM     22  C   UNL     1     -10.564  19.471  66.533  0.00  0.00    +0.090 C 
ATOM     23  N   UNL     1     -10.588  18.761  67.704  0.00  0.00    -0.270 NA
ATOM     24  C   UNL     1      -9.692  19.320  68.713  0.00  0.00    +0.090 C 
ENDBRANCH  21  23
ENDBRANCH  20  21
ENDBRANCH  19  20
ENDBRANCH   1  19
TORSDOF 6
ENDMDL
MODEL 3
REMARK VINA RESULT:      -6.1      3.091      6.469
REMARK  Name = 
REMARK  6 active torsions:
REMARK  status: ('A' for Active; 'I' for Inactive)
REMARK    1  A    between atoms: N_2  and  C_4
REMARK    2  A    between atoms: C_4  and  C_5
REMARK    3  A    between atoms: C_5  and  C_6
REMARK    4  A    between atoms: C_6  and  C_7
REMARK    5  A    between atoms: C_7  and  C_8
REMARK    6  A    between atoms: C_19  and  C_20
REMARK                            x       y       z     vdW  Elec       q    Type
REMARK                         _______ _______ _______ _____ _____    ______ ____
ROOT
ATOM      1  C   UNL     1     -10.820  14.851  67.918  0.00  0.00    +0.130 C 
ATOM      2  C   UNL     1     -11.544  14.880  69.229  0.00  0.00    +0.004 A 
ATOM      3  C   UNL     1     -10.699  15.631  70.039  0.00  0.00    +0.006 A 
ATOM      4  C   UNL     1     -11.087  15.758  71.354  0.00  0.00    +0.008 A 
ATOM      5  C   UNL     1     -11.979  14.860  71.926  0.00  0.00    +0.068 A 
ATOM      6  C   UNL     1     -12.550  13.841  71.172  0.00  0.00    +0.010 A 
ATOM      7  C   UNL     1      -9.408  15.740  69.288  0.00  0.00    +0.169 C 
ATOM      8  C   UNL     1     -12.468  14.008  69.795  0.00  0.00    -0.001 A 
ATOM      9  O   UNL     1      -9.515  14.709  68.341  0.00  0.00    -0.346 OA
ENDROOT
BRANCH   1  10
ATOM     10  C   UNL     1     -11.316  13.718  67.112  0.00  0.00    +0.006 A 
ATOM     11  C   UNL     1     -12.355  13.868  66.209  0.00  0.00    +0.001 A 
ATOM     12  C   UNL     1     -12.322  13.293  64.944  0.00  0.00    +0.029 A 
ATOM     13  C   UNL     1     -11.389  12.301  64.677  0.00  0.00    +0.140 A 
ATOM     14  F   UNL     1     -11.677  11.360  63.759  0.00  0.00    -0.204 F 
ATOM     15  C   UNL     1     -10.469  11.964  65.660  0.00  0.00    +0.029 A 
ATOM     16  C   UNL     1     -10.388  12.734  66.797  0.00  0.00    +0.001 A 
ENDBRANCH   1  10
BRANCH   5  17
ATOM     17  C   UNL     1     -12.406  15.086  73.287  0.00  0.00    +0.100 C 
ATOM     18  N   UNL     1     -12.659  15.378  74.384  0.00  0.00    -0.191 NA
ENDBRANCH   5  17
BRANCH   1  19
ATOM     19  C   UNL     1     -10.975  16.160  67.199  0.00  0.00    +0.037 C 
BRANCH  19  20
ATOM     20  C   UNL     1      -9.842  16.335  66.230  0.00  0.00    +0.020 C 
BRANCH  20  21
ATOM     21  C   UNL     1      -9.141  17.665  66.380  0.00  0.00    +0.072 C 
BRANCH  21  23
ATOM     22  C   UNL     1     -10.405  19.613  65.989  0.00  0.00    +0.090 C 
ATOM     23  N   UNL     1     -10.009  18.687  66.916  0.00  0.00    -0.270 NA
ATOM     24  C   UNL     1      -9.417  19.303  68.101  0.00  0.00    +0.090 C 
ENDBRANCH  21  23
ENDBRANCH  20  21
ENDBRANCH  19  20
ENDBRANCH   1  19
TORSDOF 6
ENDMDL
MODEL 4
REMARK VINA RESULT:      -6.0      3.251      5.650
REMARK  Name = 
REMARK  6 active torsions:
REMARK  status: ('A' for Active; 'I' for Inactive)
REMARK    1  A    between atoms: N_2  and  C_4
REMARK    2  A    between atoms: C_4  and  C_5
REMARK    3  A    between atoms: C_5  and  C_6
REMARK    4  A    between atoms: C_6  and  C_7
REMARK    5  A    between atoms: C_7  and  C_8
REMARK    6  A    between atoms: C_19  and  C_20
REMARK                            x       y       z     vdW  Elec       q    Type
REMARK                         _______ _______ _______ _____ _____    ______ ____
ROOT
ATOM      1  C   UNL     1     -10.429  15.184  67.609  0.00  0.00    +0.130 C 
ATOM      2  C   UNL     1      -9.068  15.805  67.534  0.00  0.00    +0.004 A 
ATOM      3  C   UNL     1      -9.156  16.867  68.428  0.00  0.00    +0.006 A 
ATOM      4  C   UNL     1      -8.046  17.678  68.506  0.00  0.00    +0.008 A 
ATOM      5  C   UNL     1      -7.112  17.711  67.480  0.00  0.00    +0.068 A 
ATOM      6  C   UNL     1      -7.240  16.886  66.368  0.00  0.00    +0.010 A 
ATOM      7  C   UNL     1     -10.613  17.013  68.742  0.00  0.00    +0.169 C 
ATOM      8  C   UNL     1      -8.108  15.813  66.528  0.00  0.00    -0.001 A 
ATOM      9  O   UNL     1     -11.226  16.307  67.694  0.00  0.00    -0.346 OA
ENDROOT
BRANCH   1  10
ATOM     10  C   UNL     1     -10.662  14.374  66.397  0.00  0.00    +0.006 A 
ATOM     11  C   UNL     1     -10.583  12.992  66.421  0.00  0.00    +0.001 A 
ATOM     12  C   UNL     1     -11.513  12.188  65.771  0.00  0.00    +0.029 A 
ATOM     13  C   UNL     1     -12.358  12.758  64.830  0.00  0.00    +0.140 A 
ATOM     14  F   UNL     1     -12.816  12.000  63.816  0.00  0.00    -0.204 F 
ATOM     15  C   UNL     1     -12.297  14.128  64.617  0.00  0.00    +0.029 A 
ATOM     16  C   UNL     1     -11.538  14.906  65.460  0.00  0.00    +0.001 A 
ENDBRANCH   1  10
BRANCH   5  17
ATOM     17  C   UNL     1      -5.930  18.525  67.649  0.00  0.00    +0.100 C 
ATOM     18  N   UNL     1      -4.925  19.109  67.674  0.00  0.00    -0.191 NA
ENDBRANCH   5  17
BRANCH   1  19
ATOM     19  C   UNL     1     -10.571  14.371  68.863  0.00  0.00    +0.037 C 
BRANCH  19  20
ATOM     20  C   UNL     1     -12.028  14.139  69.144  0.00  0.00    +0.020 C 
BRANCH  20  21
ATOM     21  C   UNL     1     -12.341  14.102  70.622  0.00  0.00    +0.072 C 
BRANCH  21  23
ATOM     22  C   UNL     1     -12.122  15.995  72.006  0.00  0.00    +0.090 C 
ATOM     23  N   UNL     1     -12.909  15.343  71.094  0.00  0.00    -0.270 NA
ATOM     24  C   UNL     1     -14.272  15.140  71.579  0.00  0.00    +0.090 C 
ENDBRANCH  21  23
ENDBRANCH  20  21
ENDBRANCH  19  20
ENDBRANCH   1  19
TORSDOF 6
ENDMDL
MODEL 5
REMARK VINA RESULT:      -5.9      3.228      6.333
REMARK  Name = 
REMARK  6 active torsions:
REMARK  status: ('A' for Active; 'I' for Inactive)
REMARK    1  A    between atoms: N_2  and  C_4
REMARK    2  A    between atoms: C_4  and  C_5
REMARK    3  A    between atoms: C_5  and  C_6
REMARK    4  A    between atoms: C_6  and  C_7
REMARK    5  A    between atoms: C_7  and  C_8
REMARK    6  A    between atoms: C_19  and  C_20
REMARK                            x       y       z     vdW  Elec       q    Type
REMARK                         _______ _______ _______ _____ _____    ______ ____
ROOT
ATOM      1  C   UNL     1     -11.027  12.261  67.942  0.00  0.00    +0.130 C 
ATOM      2  C   UNL     1     -11.406  13.265  68.988  0.00  0.00    +0.004 A 
ATOM      3  C   UNL     1     -11.912  12.474  70.014  0.00  0.00    +0.006 A 
ATOM      4  C   UNL     1     -12.418  13.154  71.099  0.00  0.00    +0.008 A 
ATOM      5  C   UNL     1     -12.804  14.484  70.993  0.00  0.00    +0.068 A 
ATOM      6  C   UNL     1     -12.638  15.184  69.804  0.00  0.00    +0.010 A 
ATOM      7  C   UNL     1     -12.096  11.111  69.423  0.00  0.00    +0.169 C 
ATOM      8  C   UNL     1     -11.756  14.607  68.897  0.00  0.00    -0.001 A 
ATOM      9  O   UNL     1     -12.073  11.368  68.043  0.00  0.00    -0.346 OA
ENDROOT
BRANCH   1  10
ATOM     10  C   UNL     1     -10.937  12.934  66.631  0.00  0.00    +0.006 A 
ATOM     11  C   UNL     1     -12.052  13.122  65.833  0.00  0.00    +0.001 A 
ATOM     12  C   UNL     1     -12.290  14.320  65.168  0.00  0.00    +0.029 A 
ATOM     13  C   UNL     1     -11.258  15.240  65.042  0.00  0.00    +0.140 A 
ATOM     14  F   UNL     1     -11.243  16.068  63.982  0.00  0.00    -0.204 F 
ATOM     15  C   UNL     1     -10.039  14.965  65.646  0.00  0.00    +0.029 A 
ATOM     16  C   UNL     1      -9.937  13.889  66.496  0.00  0.00    +0.001 A 
ENDBRANCH   1  10
BRANCH   5  17
ATOM     17  C   UNL     1     -13.259  15.167  72.182  0.00  0.00    +0.100 C 
ATOM     18  N   UNL     1     -13.636  15.834  73.057  0.00  0.00    -0.191 NA
ENDBRANCH   5  17
BRANCH   1  19
ATOM     19  C   UNL     1      -9.743  11.575  68.309  0.00  0.00    +0.037 C 
BRANCH  19  20
ATOM     20  C   UNL     1      -9.428  10.525  67.282  0.00  0.00    +0.020 C 
BRANCH  20  21
ATOM     21  C   UNL     1      -8.741   9.315  67.872  0.00  0.00    +0.072 C 
BRANCH  21  23
ATOM     22  C   UNL     1     -10.563   8.169  66.916  0.00  0.00    +0.090 C 
ATOM     23  N   UNL     1      -9.594   8.150  67.884  0.00  0.00    -0.270 NA
ATOM     24  C   UNL     1     -10.143   7.921  69.218  0.00  0.00    +0.090 C 
ENDBRANCH  21  23
ENDBRANCH  20  21
ENDBRANCH  19  20
ENDBRANCH   1  19
TORSDOF 6
ENDMDL
MODEL 6
REMARK VINA RESULT:      -5.9      2.891      4.839
REMARK  Name = 
REMARK  6 active torsions:
REMARK  status: ('A' for Active; 'I' for Inactive)
REMARK    1  A    between atoms: N_2  and  C_4
REMARK    2  A    between atoms: C_4  and  C_5
REMARK    3  A    between atoms: C_5  and  C_6
REMARK    4  A    between atoms: C_6  and  C_7
REMARK    5  A    between atoms: C_7  and  C_8
REMARK    6  A    between atoms: C_19  and  C_20
REMARK                            x       y       z     vdW  Elec       q    Type
REMARK                         _______ _______ _______ _____ _____    ______ ____
ROOT
ATOM      1  C   UNL     1     -11.035  14.441  66.715  0.00  0.00    +0.130 C 
ATOM      2  C   UNL     1     -10.370  13.319  65.979  0.00  0.00    +0.004 A 
ATOM      3  C   UNL     1     -10.963  13.371  64.722  0.00  0.00    +0.006 A 
ATOM      4  C   UNL     1     -10.587  12.382  63.841  0.00  0.00    +0.008 A 
ATOM      5  C   UNL     1     -10.028  11.195  64.296  0.00  0.00    +0.068 A 
ATOM      6  C   UNL     1      -9.779  10.992  65.648  0.00  0.00    +0.010 A 
ATOM      7  C   UNL     1     -12.139  14.286  64.866  0.00  0.00    +0.169 C 
ATOM      8  C   UNL     1      -9.773  12.145  66.426  0.00  0.00    -0.001 A 
ATOM      9  O   UNL     1     -12.331  14.324  66.257  0.00  0.00    -0.346 OA
ENDROOT
BRANCH   1  10
ATOM     10  C   UNL     1     -10.892  14.223  68.169  0.00  0.00    +0.006 A 
ATOM     11  C   UNL     1     -10.163  15.090  68.964  0.00  0.00    +0.001 A 
ATOM     12  C   UNL     1     -10.617  15.506  70.211  0.00  0.00    +0.029 A 
ATOM     13  C   UNL     1     -11.660  14.818  70.814  0.00  0.00    +0.140 A 
ATOM     14  F   UNL     1     -11.733  14.784  72.157  0.00  0.00    -0.204 F 
ATOM     15  C   UNL     1     -12.266  13.779  70.122  0.00  0.00    +0.029 A 
ATOM     16  C   UNL     1     -11.944  13.574  68.801  0.00  0.00    +0.001 A 
ENDBRANCH   1  10
BRANCH   5  17
ATOM     17  C   UNL     1      -9.586  10.224  63.322  0.00  0.00    +0.100 C 
ATOM     18  N   UNL     1      -9.242   9.547  62.441  0.00  0.00    -0.191 NA
ENDBRANCH   5  17
BRANCH   1  19
ATOM     19  C   UNL     1     -10.468  15.763  66.288  0.00  0.00    +0.037 C 
BRANCH  19  20
ATOM     20  C   UNL     1      -8.976  15.651  66.168  0.00  0.00    +0.020 C 
BRANCH  20  21
ATOM     21  C   UNL     1      -8.282  16.993  66.188  0.00  0.00    +0.072 C 
BRANCH  21  23
ATOM     22  C   UNL     1      -9.231  19.143  66.345  0.00  0.00    +0.090 C 
ATOM     23  N   UNL     1      -8.985  17.963  66.995  0.00  0.00    -0.270 NA
ATOM     24  C   UNL     1      -8.308  18.162  68.275  0.00  0.00    +0.090 C 
ENDBRANCH  21  23
ENDBRANCH  20  21
ENDBRANCH  19  20
ENDBRANCH   1  19
TORSDOF 6
ENDMDL
MODEL 7
REMARK VINA RESULT:      -5.8      3.376      7.451
REMARK  Name = 
REMARK  6 active torsions:
REMARK  status: ('A' for Active; 'I' for Inactive)
REMARK    1  A    between atoms: N_2  and  C_4
REMARK    2  A    between atoms: C_4  and  C_5
REMARK    3  A    between atoms: C_5  and  C_6
REMARK    4  A    between atoms: C_6  and  C_7
REMARK    5  A    between atoms: C_7  and  C_8
REMARK    6  A    between atoms: C_19  and  C_20
REMARK                            x       y       z     vdW  Elec       q    Type
REMARK                         _______ _______ _______ _____ _____    ______ ____
ROOT
ATOM      1  C   UNL     1     -10.816  12.734  68.214  0.00  0.00    +0.130 C 
ATOM      2  C   UNL     1     -11.750  13.233  69.274  0.00  0.00    +0.004 A 
ATOM      3  C   UNL     1     -11.566  14.611  69.232  0.00  0.00    +0.006 A 
ATOM      4  C   UNL     1     -12.260  15.336  70.175  0.00  0.00    +0.008 A 
ATOM      5  C   UNL     1     -12.734  14.735  71.333  0.00  0.00    +0.068 A 
ATOM      6  C   UNL     1     -12.572  13.371  71.549  0.00  0.00    +0.010 A 
ATOM      7  C   UNL     1     -10.342  14.832  68.399  0.00  0.00    +0.169 C 
ATOM      8  C   UNL     1     -12.262  12.627  70.416  0.00  0.00    -0.001 A 
ATOM      9  O   UNL     1      -9.733  13.566  68.405  0.00  0.00    -0.346 OA
ENDROOT
BRANCH   1  10
ATOM     10  C   UNL     1     -10.525  11.306  68.455  0.00  0.00    +0.006 A 
ATOM     11  C   UNL     1     -11.217  10.303  67.799  0.00  0.00    +0.001 A 
ATOM     12  C   UNL     1     -10.577   9.186  67.275  0.00  0.00    +0.029 A 
ATOM     13  C   UNL     1      -9.278   8.904  67.671  0.00  0.00    +0.140 A 
ATOM     14  F   UNL     1      -8.857   7.625  67.679  0.00  0.00    -0.204 F 
ATOM     15  C   UNL     1      -8.631   9.786  68.525  0.00  0.00    +0.029 A 
ATOM     16  C   UNL     1      -9.219  10.996  68.812  0.00  0.00    +0.001 A 
ENDBRANCH   1  10
BRANCH   5  17
ATOM     17  C   UNL     1     -13.517  15.528  72.251  0.00  0.00    +0.100 C 
ATOM     18  N   UNL     1     -14.238  16.190  72.881  0.00  0.00    -0.191 NA
ENDBRANCH   5  17
BRANCH   1  19
ATOM     19  C   UNL     1     -11.394  12.965  66.849  0.00  0.00    +0.037 C 
BRANCH  19  20
ATOM     20  C   UNL     1     -10.317  12.796  65.816  0.00  0.00    +0.020 C 
BRANCH  20  21
ATOM     21  C   UNL     1     -10.697  13.371  64.472  0.00  0.00    +0.072 C 
BRANCH  21  23
ATOM     22  C   UNL     1     -12.367  12.076  63.433  0.00  0.00    +0.090 C 
ATOM     23  N   UNL     1     -11.027  12.348  63.508  0.00  0.00    -0.270 NA
ATOM     24  C   UNL     1     -10.226  11.146  63.731  0.00  0.00    +0.090 C 
ENDBRANCH  21  23
ENDBRANCH  20  21
ENDBRANCH  19  20
ENDBRANCH   1  19
TORSDOF 6
ENDMDL
MODEL 8
REMARK VINA RESULT:      -5.8      2.961      6.341
REMARK  Name = 
REMARK  6 active torsions:
REMARK  status: ('A' for Active; 'I' for Inactive)
REMARK    1  A    between atoms: N_2  and  C_4
REMARK    2  A    between atoms: C_4  and  C_5
REMARK    3  A    between atoms: C_5  and  C_6
REMARK    4  A    between atoms: C_6  and  C_7
REMARK    5  A    between atoms: C_7  and  C_8
REMARK    6  A    between atoms: C_19  and  C_20
REMARK                            x       y       z     vdW  Elec       q    Type
REMARK                         _______ _______ _______ _____ _____    ______ ____
ROOT
ATOM      1  C   UNL     1      -9.779  15.406  68.858  0.00  0.00    +0.130 C 
ATOM      2  C   UNL     1      -9.444  16.783  68.372  0.00  0.00    +0.004 A 
ATOM      3  C   UNL     1      -8.064  16.730  68.203  0.00  0.00    +0.006 A 
ATOM      4  C   UNL     1      -7.462  17.909  67.827  0.00  0.00    +0.008 A 
ATOM      5  C   UNL     1      -8.089  19.131  68.035  0.00  0.00    +0.068 A 
ATOM      6  C   UNL     1      -9.367  19.195  68.578  0.00  0.00    +0.010 A 
ATOM      7  C   UNL     1      -7.621  15.468  68.876  0.00  0.00    +0.169 C 
ATOM      8  C   UNL     1     -10.085  18.005  68.541  0.00  0.00    -0.001 A 
ATOM      9  O   UNL     1      -8.715  15.158  69.700  0.00  0.00    -0.346 OA
ENDROOT
BRANCH   1  10
ATOM     10  C   UNL     1     -11.089  15.435  69.539  0.00  0.00    +0.006 A 
ATOM     11  C   UNL     1     -11.956  14.358  69.493  0.00  0.00    +0.001 A 
ATOM     12  C   UNL     1     -12.646  13.916  70.617  0.00  0.00    +0.029 A 
ATOM     13  C   UNL     1     -12.717  14.739  71.732  0.00  0.00    +0.140 A 
ATOM     14  F   UNL     1     -13.782  14.646  72.549  0.00  0.00    -0.204 F 
ATOM     15  C   UNL     1     -12.036  15.948  71.717  0.00  0.00    +0.029 A 
ATOM     16  C   UNL     1     -11.171  16.220  70.682  0.00  0.00    +0.001 A 
ENDBRANCH   1  10
BRANCH   5  17
ATOM     17  C   UNL     1      -7.442  20.329  67.554  0.00  0.00    +0.100 C 
ATOM     18  N   UNL     1      -6.907  21.332  67.305  0.00  0.00    -0.191 NA
ENDBRANCH   5  17
BRANCH   1  19
ATOM     19  C   UNL     1      -9.760  14.425  67.723  0.00  0.00    +0.037 C 
BRANCH  19  20
ATOM     20  C   UNL     1     -10.487  15.009  66.545  0.00  0.00    +0.020 C 
BRANCH  20  21
ATOM     21  C   UNL     1     -10.271  14.224  65.273  0.00  0.00    +0.072 C 
BRANCH  21  23
ATOM     22  C   UNL     1     -12.604  13.933  65.401  0.00  0.00    +0.090 C 
ATOM     23  N   UNL     1     -11.426  13.438  64.909  0.00  0.00    -0.270 NA
ATOM     24  C   UNL     1     -11.227  12.032  65.251  0.00  0.00    +0.090 C 
ENDBRANCH  21  23
ENDBRANCH  20  21
ENDBRANCH  19  20
ENDBRANCH   1  19
TORSDOF 6
ENDMDL
MODEL 9
REMARK VINA RESULT:      -5.8      4.508      7.350
REMARK  Name = 
REMARK  6 active torsions:
REMARK  status: ('A' for Active; 'I' for Inactive)
REMARK    1  A    between atoms: N_2  and  C_4
REMARK    2  A    between atoms: C_4  and  C_5
REMARK    3  A    between atoms: C_5  and  C_6
REMARK    4  A    between atoms: C_6  and  C_7
REMARK    5  A    between atoms: C_7  and  C_8
REMARK    6  A    between atoms: C_19  and  C_20
REMARK                            x       y       z     vdW  Elec       q    Type
REMARK                         _______ _______ _______ _____ _____    ______ ____
ROOT
ATOM      1  C   UNL     1      -9.862  11.257  67.886  0.00  0.00    +0.130 C 
ATOM      2  C   UNL     1     -10.473  12.299  67.000  0.00  0.00    +0.004 A 
ATOM      3  C   UNL     1      -9.388  13.104  66.665  0.00  0.00    +0.006 A 
ATOM      4  C   UNL     1      -9.679  14.212  65.901  0.00  0.00    +0.008 A 
ATOM      5  C   UNL     1     -10.967  14.728  65.851  0.00  0.00    +0.068 A 
ATOM      6  C   UNL     1     -12.013  14.107  66.524  0.00  0.00    +0.010 A 
ATOM      7  C   UNL     1      -8.283  12.701  67.591  0.00  0.00    +0.169 C 
ATOM      8  C   UNL     1     -11.769  12.795  66.913  0.00  0.00    -0.001 A 
ATOM      9  O   UNL     1      -8.969  12.019  68.610  0.00  0.00    -0.346 OA
ENDROOT
BRANCH   1  10
ATOM     10  C   UNL     1     -10.919  10.632  68.705  0.00  0.00    +0.006 A 
ATOM     11  C   UNL     1     -10.821   9.323  69.143  0.00  0.00    +0.001 A 
ATOM     12  C   UNL     1     -11.163   8.951  70.438  0.00  0.00    +0.029 A 
ATOM     13  C   UNL     1     -11.904   9.827  71.219  0.00  0.00    +0.140 A 
ATOM     14  F   UNL     1     -12.718   9.330  72.169  0.00  0.00    -0.204 F 
ATOM     15  C   UNL     1     -12.219  11.078  70.709  0.00  0.00    +0.029 A 
ATOM     16  C   UNL     1     -11.645  11.485  69.527  0.00  0.00    +0.001 A 
ENDBRANCH   1  10
BRANCH   5  17
ATOM     17  C   UNL     1     -11.227  15.847  64.976  0.00  0.00    +0.100 C 
ATOM     18  N   UNL     1     -11.298  16.743  64.237  0.00  0.00    -0.191 NA
ENDBRANCH   5  17
BRANCH   1  19
ATOM     19  C   UNL     1      -9.112  10.244  67.071  0.00  0.00    +0.037 C 
BRANCH  19  20
ATOM     20  C   UNL     1      -9.887   9.934  65.823  0.00  0.00    +0.020 C 
BRANCH  20  21
ATOM     21  C   UNL     1      -9.046  10.024  64.571  0.00  0.00    +0.072 C 
BRANCH  21  23
ATOM     22  C   UNL     1      -9.262   9.789  62.239  0.00  0.00    +0.090 C 
ATOM     23  N   UNL     1      -9.841  10.255  63.389  0.00  0.00    -0.270 NA
ATOM     24  C   UNL     1     -10.229  11.660  63.289  0.00  0.00    +0.090 C 
ENDBRANCH  21  23
ENDBRANCH  20  21
ENDBRANCH  19  20
ENDBRANCH   1  19
TORSDOF 6
ENDMDL
