MODEL 1
REMARK VINA RESULT:      -7.6      0.000      0.000
REMARK  Name = 
REMARK  9 active torsions:
REMARK  status: ('A' for Active; 'I' for Inactive)
REMARK    1  A    between atoms: C_13  and  C_14
REMARK    2  A    between atoms: C_14  and  N_15
REMARK    3  A    between atoms: N_15  and  C_16
REMARK    4  A    between atoms: C_19  and  C_20
REMARK    5  A    between atoms: N_22  and  CA_23
REMARK    6  A    between atoms: CA_23  and  CB_24
REMARK    7  A    between atoms: CA_23  and  C_29
REMARK    8  A    between atoms: CB_24  and  CG_25
REMARK    9  A    between atoms: CG_25  and  CD_26
REMARK                            x       y       z     vdW  Elec       q    Type
REMARK                         _______ _______ _______ _____ _____    ______ ____
ROOT
ATOM      1  C   UNK A   0      -9.754  18.664  68.550  0.00  0.00    +0.065 A 
ATOM      2  C   UNK A   0     -10.413  19.381  67.558  0.00  0.00    +0.016 A 
ATOM      3  C   UNK A   0      -9.591  19.852  66.532  0.00  0.00    +0.006 A 
ATOM      4  C   UNK A   0      -8.219  20.008  66.714  0.00  0.00    +0.055 A 
ATOM      5  C   UNK A   0      -7.846  19.962  68.056  0.00  0.00    +0.006 A 
ATOM      6  C   UNK A   0      -8.590  19.261  69.000  0.00  0.00    +0.016 A 
ENDROOT
BRANCH   4   7
ATOM      7  C   UNK A   0      -7.255  19.680  65.648  0.00  0.00    +0.265 C 
ATOM      8  N   GLU A   1      -6.039  20.403  65.713  0.00  0.00    -0.192 NA
ATOM      9  O   UNK A   0      -7.242  18.451  65.333  0.00  0.00    -0.268 OA
BRANCH   8  10
ATOM     10  CA  GLU A   1      -4.776  19.634  65.112  0.00  0.00    +0.199 C 
BRANCH  10  11
ATOM     11  C   GLU A   1      -3.802  20.171  66.308  0.00  0.00    +0.384 C 
ATOM     12  OXT GLU A   1      -2.626  20.718  65.886  0.00  0.00    -0.244 OA
ATOM     13  O   GLU A   1      -4.190  19.976  67.461  0.00  0.00    -0.244 OA
ENDBRANCH  10  11
BRANCH  10  14
ATOM     14  CB  GLU A   1      -4.379  20.908  64.110  0.00  0.00    +0.045 C 
BRANCH  14  15
ATOM     15  CG  GLU A   1      -5.129  20.657  62.840  0.00  0.00    +0.116 C 
BRANCH  15  16
ATOM     16  CD  GLU A   1      -5.662  21.858  62.186  0.00  0.00    +0.365 C 
ATOM     17  OE2 GLU A   1      -6.977  22.251  62.151  0.00  0.00    -0.246 OA
ATOM     18  OE1 GLU A   1      -4.832  22.664  61.669  0.00  0.00    -0.246 OA
ENDBRANCH  15  16
ENDBRANCH  14  15
ENDBRANCH  10  14
ENDBRANCH   8  10
ENDBRANCH   4   7
BRANCH   1  19
ATOM     19  N   UNK A   0     -10.221  17.398  69.033  0.00  0.00    -0.236 NA
BRANCH  19  20
ATOM     20  C   UNK A   0     -11.032  16.718  68.021  0.00  0.00    +0.134 C 
BRANCH  20  23
ATOM     21  C   UNK A   0      -9.544  16.153  65.885  0.00  0.00    +0.112 C 
ATOM     22  N   UNK A   0     -10.340  15.114  66.488  0.00  0.00    -0.298 N 
ATOM     23  C   UNK A   0     -10.228  15.260  68.063  0.00  0.00    +0.116 C 
ATOM     24  C   UNK A   0     -11.627  14.441  68.442  0.00  0.00    +0.135 C 
ATOM     25  N   UNK A   0     -11.536  13.200  67.666  0.00  0.00    -0.217 NA
ATOM     26  C   UNK A   0     -11.964  13.436  66.315  0.00  0.00    +0.169 A 
ATOM     27  N   UNK A   0     -12.524  12.537  65.511  0.00  0.00    -0.193 NA
ATOM     28  C   UNK A   0     -12.584  12.801  64.180  0.00  0.00    +0.260 A 
ATOM     29  N   UNK A   0     -12.431  14.099  63.817  0.00  0.00    -0.171 NA
ATOM     30  C   UNK A   0     -11.759  14.990  64.566  0.00  0.00    +0.298 A 
ATOM     31  O   UNK A   0     -11.329  16.092  64.137  0.00  0.00    -0.264 OA
ATOM     32  N   UNK A   0     -12.330  11.732  63.258  0.00  0.00    -0.086 NA
ATOM     33  C   UNK A   0     -11.536  14.700  65.907  0.00  0.00    +0.140 A 
ENDBRANCH  20  23
ENDBRANCH  19  20
ENDBRANCH   1  19
TORSDOF 9
ENDMDL
MODEL 2
REMARK VINA RESULT:      -7.6      3.044      6.492
REMARK  Name = 
REMARK  9 active torsions:
REMARK  status: ('A' for Active; 'I' for Inactive)
REMARK    1  A    between atoms: C_13  and  C_14
REMARK    2  A    between atoms: C_14  and  N_15
REMARK    3  A    between atoms: N_15  and  C_16
REMARK    4  A    between atoms: C_19  and  C_20
REMARK    5  A    between atoms: N_22  and  CA_23
REMARK    6  A    between atoms: CA_23  and  CB_24
REMARK    7  A    between atoms: CA_23  and  C_29
REMARK    8  A    between atoms: CB_24  and  CG_25
REMARK    9  A    between atoms: CG_25  and  CD_26
REMARK                            x       y       z     vdW  Elec       q    Type
REMARK                         _______ _______ _______ _____ _____    ______ ____
ROOT
ATOM      1  C   UNK A   0     -11.538  12.784  66.145  0.00  0.00    +0.065 A 
ATOM      2  C   UNK A   0     -10.225  12.940  65.716  0.00  0.00    +0.016 A 
ATOM      3  C   UNK A   0      -9.857  14.255  65.421  0.00  0.00    +0.006 A 
ATOM      4  C   UNK A   0     -10.810  15.226  65.125  0.00  0.00    +0.055 A 
ATOM      5  C   UNK A   0     -12.063  14.683  64.847  0.00  0.00    +0.006 A 
ATOM      6  C   UNK A   0     -12.468  13.462  65.378  0.00  0.00    +0.016 A 
ENDROOT
BRANCH   4   7
ATOM      7  C   UNK A   0     -10.676  16.614  65.606  0.00  0.00    +0.265 C 
ATOM      8  N   GLU A   1      -9.564  16.835  66.454  0.00  0.00    -0.192 NA
ATOM      9  O   UNK A   0     -10.995  17.486  64.741  0.00  0.00    -0.268 OA
BRANCH   8  10
ATOM     10  CA  GLU A   1      -8.975  18.318  66.403  0.00  0.00    +0.199 C 
BRANCH  10  11
ATOM     11  C   GLU A   1      -7.503  17.785  65.938  0.00  0.00    +0.384 C 
ATOM     12  OXT GLU A   1      -6.847  18.604  65.067  0.00  0.00    -0.244 OA
ATOM     13  O   GLU A   1      -7.161  16.680  66.363  0.00  0.00    -0.244 OA
ENDBRANCH  10  11
BRANCH  10  14
ATOM     14  CB  GLU A   1      -8.561  18.294  68.019  0.00  0.00    +0.045 C 
BRANCH  14  15
ATOM     15  CG  GLU A   1      -8.119  19.687  68.333  0.00  0.00    +0.116 C 
BRANCH  15  16
ATOM     16  CD  GLU A   1      -6.756  19.801  68.866  0.00  0.00    +0.365 C 
ATOM     17  OE2 GLU A   1      -5.867  20.818  68.622  0.00  0.00    -0.246 OA
ATOM     18  OE1 GLU A   1      -6.376  18.924  69.699  0.00  0.00    -0.246 OA
ENDBRANCH  15  16
ENDBRANCH  14  15
ENDBRANCH  10  14
ENDBRANCH   8  10
ENDBRANCH   4   7
BRANCH   1  19
ATOM     19  N   UNK A   0     -11.889  12.020  67.305  0.00  0.00    -0.236 NA
BRANCH  19  20
ATOM     20  C   UNK A   0     -12.458  12.878  68.346  0.00  0.00    +0.134 C 
BRANCH  20  23
ATOM     21  C   UNK A   0     -12.161  11.738  70.735  0.00  0.00    +0.112 C 
ATOM     22  N   UNK A   0     -11.747  13.106  70.548  0.00  0.00    -0.298 N 
ATOM     23  C   UNK A   0     -11.030  13.213  69.137  0.00  0.00    +0.116 C 
ATOM     24  C   UNK A   0     -11.241  14.852  68.928  0.00  0.00    +0.135 C 
ATOM     25  N   UNK A   0     -10.782  15.435  70.194  0.00  0.00    -0.217 NA
ATOM     26  C   UNK A   0     -11.830  15.360  71.174  0.00  0.00    +0.169 A 
ATOM     27  N   UNK A   0     -12.009  16.208  72.183  0.00  0.00    -0.193 NA
ATOM     28  C   UNK A   0     -12.830  15.844  73.202  0.00  0.00    +0.260 A 
ATOM     29  N   UNK A   0     -13.700  14.835  72.942  0.00  0.00    -0.171 NA
ATOM     30  C   UNK A   0     -13.470  13.900  72.005  0.00  0.00    +0.298 A 
ATOM     31  O   UNK A   0     -14.074  12.797  71.944  0.00  0.00    -0.264 OA
ATOM     32  N   UNK A   0     -12.441  16.168  74.544  0.00  0.00    -0.086 NA
ATOM     33  C   UNK A   0     -12.524  14.160  71.020  0.00  0.00    +0.140 A 
ENDBRANCH  20  23
ENDBRANCH  19  20
ENDBRANCH   1  19
TORSDOF 9
ENDMDL
MODEL 3
REMARK VINA RESULT:      -7.6      3.761      9.478
REMARK  Name = 
REMARK  9 active torsions:
REMARK  status: ('A' for Active; 'I' for Inactive)
REMARK    1  A    between atoms: C_13  and  C_14
REMARK    2  A    between atoms: C_14  and  N_15
REMARK    3  A    between atoms: N_15  and  C_16
REMARK    4  A    between atoms: C_19  and  C_20
REMARK    5  A    between atoms: N_22  and  CA_23
REMARK    6  A    between atoms: CA_23  and  CB_24
REMARK    7  A    between atoms: CA_23  and  C_29
REMARK    8  A    between atoms: CB_24  and  CG_25
REMARK    9  A    between atoms: CG_25  and  CD_26
REMARK                            x       y       z     vdW  Elec       q    Type
REMARK                         _______ _______ _______ _____ _____    ______ ____
ROOT
ATOM      1  C   UNK A   0      -9.064  19.260  67.602  0.00  0.00    +0.065 A 
ATOM      2  C   UNK A   0      -9.852  18.365  68.317  0.00  0.00    +0.016 A 
ATOM      3  C   UNK A   0     -10.521  17.422  67.536  0.00  0.00    +0.006 A 
ATOM      4  C   UNK A   0     -10.763  17.640  66.181  0.00  0.00    +0.055 A 
ATOM      5  C   UNK A   0     -10.567  18.968  65.807  0.00  0.00    +0.006 A 
ATOM      6  C   UNK A   0      -9.687  19.801  66.493  0.00  0.00    +0.016 A 
ENDROOT
BRANCH   4   7
ATOM      7  C   UNK A   0     -10.660  16.552  65.192  0.00  0.00    +0.265 C 
ATOM      8  N   GLU A   1     -10.486  15.263  65.753  0.00  0.00    -0.192 NA
ATOM      9  O   UNK A   0     -11.417  16.705  64.185  0.00  0.00    -0.268 OA
BRANCH   8  10
ATOM     10  CA  GLU A   1     -11.073  14.069  64.870  0.00  0.00    +0.199 C 
BRANCH  10  11
ATOM     11  C   GLU A   1     -12.308  13.825  65.911  0.00  0.00    +0.384 C 
ATOM     12  OXT GLU A   1     -13.548  14.050  65.390  0.00  0.00    -0.244 OA
ATOM     13  O   GLU A   1     -12.000  13.526  67.066  0.00  0.00    -0.244 OA
ENDBRANCH  10  11
BRANCH  10  14
ATOM     14  CB  GLU A   1     -10.109  12.935  65.623  0.00  0.00    +0.045 C 
BRANCH  14  15
ATOM     15  CG  GLU A   1     -10.164  11.726  64.744  0.00  0.00    +0.116 C 
BRANCH  15  16
ATOM     16  CD  GLU A   1     -10.089  10.441  65.449  0.00  0.00    +0.365 C 
ATOM     17  OE2 GLU A   1     -10.653  10.144  66.664  0.00  0.00    -0.246 OA
ATOM     18  OE1 GLU A   1      -9.522   9.477  64.853  0.00  0.00    -0.246 OA
ENDBRANCH  15  16
ENDBRANCH  14  15
ENDBRANCH  10  14
ENDBRANCH   8  10
ENDBRANCH   4   7
BRANCH   1  19
ATOM     19  N   UNK A   0      -7.711  19.563  67.965  0.00  0.00    -0.236 NA
BRANCH  19  20
ATOM     20  C   UNK A   0      -7.050  18.395  68.549  0.00  0.00    +0.134 C 
BRANCH  20  23
ATOM     21  C   UNK A   0      -5.024  17.150  69.750  0.00  0.00    +0.112 C 
ATOM     22  N   UNK A   0      -4.859  18.515  69.316  0.00  0.00    -0.298 N 
ATOM     23  C   UNK A   0      -5.543  18.665  67.893  0.00  0.00    +0.116 C 
ATOM     24  C   UNK A   0      -5.759  20.315  67.946  0.00  0.00    +0.135 C 
ATOM     25  N   UNK A   0      -4.448  20.834  68.350  0.00  0.00    -0.217 NA
ATOM     26  C   UNK A   0      -4.305  20.742  69.776  0.00  0.00    +0.169 A 
ATOM     27  N   UNK A   0      -3.571  21.551  70.535  0.00  0.00    -0.193 NA
ATOM     28  C   UNK A   0      -3.274  21.164  71.803  0.00  0.00    +0.260 A 
ATOM     29  N   UNK A   0      -4.054  20.187  72.332  0.00  0.00    -0.171 NA
ATOM     30  C   UNK A   0      -4.705  19.287  71.575  0.00  0.00    +0.298 A 
ATOM     31  O   UNK A   0      -5.169  18.201  72.011  0.00  0.00    -0.264 OA
ATOM     32  N   UNK A   0      -1.957  21.423  72.308  0.00  0.00    -0.086 NA
ATOM     33  C   UNK A   0      -4.904  19.566  70.228  0.00  0.00    +0.140 A 
ENDBRANCH  20  23
ENDBRANCH  19  20
ENDBRANCH   1  19
TORSDOF 9
ENDMDL
MODEL 4
REMARK VINA RESULT:      -7.5      3.255      4.812
REMARK  Name = 
REMARK  9 active torsions:
REMARK  status: ('A' for Active; 'I' for Inactive)
REMARK    1  A    between atoms: C_13  and  C_14
REMARK    2  A    between atoms: C_14  and  N_15
REMARK    3  A    between atoms: N_15  and  C_16
REMARK    4  A    between atoms: C_19  and  C_20
REMARK    5  A    between atoms: N_22  and  CA_23
REMARK    6  A    between atoms: CA_23  and  CB_24
REMARK    7  A    between atoms: CA_23  and  C_29
REMARK    8  A    between atoms: CB_24  and  CG_25
REMARK    9  A    between atoms: CG_25  and  CD_26
REMARK                            x       y       z     vdW  Elec       q    Type
REMARK                         _______ _______ _______ _____ _____    ______ ____
ROOT
ATOM      1  C   UNK A   0     -10.456  18.093  66.292  0.00  0.00    +0.065 A 
ATOM      2  C   UNK A   0     -10.476  19.383  65.774  0.00  0.00    +0.016 A 
ATOM      3  C   UNK A   0      -9.634  20.288  66.423  0.00  0.00    +0.006 A 
ATOM      4  C   UNK A   0      -9.193  20.063  67.725  0.00  0.00    +0.055 A 
ATOM      5  C   UNK A   0      -9.917  19.065  68.374  0.00  0.00    +0.006 A 
ATOM      6  C   UNK A   0     -10.540  18.037  67.672  0.00  0.00    +0.016 A 
ENDROOT
BRANCH   4   7
ATOM      7  C   UNK A   0      -7.819  20.397  68.145  0.00  0.00    +0.265 C 
ATOM      8  N   GLU A   1      -7.142  19.353  68.821  0.00  0.00    -0.192 NA
ATOM      9  O   UNK A   0      -7.193  21.121  67.312  0.00  0.00    -0.268 OA
BRANCH   8  10
ATOM     10  CA  GLU A   1      -5.555  19.369  68.648  0.00  0.00    +0.199 C 
BRANCH  10  11
ATOM     11  C   GLU A   1      -5.465  17.742  68.757  0.00  0.00    +0.384 C 
ATOM     12  OXT GLU A   1      -6.670  17.105  68.810  0.00  0.00    -0.244 OA
ATOM     13  O   GLU A   1      -4.334  17.260  68.842  0.00  0.00    -0.244 OA
ENDBRANCH  10  11
BRANCH  10  14
ATOM     14  CB  GLU A   1      -5.300  19.573  70.284  0.00  0.00    +0.045 C 
BRANCH  14  15
ATOM     15  CG  GLU A   1      -4.500  20.830  70.404  0.00  0.00    +0.116 C 
BRANCH  15  16
ATOM     16  CD  GLU A   1      -4.123  21.199  71.773  0.00  0.00    +0.365 C 
ATOM     17  OE2 GLU A   1      -4.445  22.364  72.422  0.00  0.00    -0.246 OA
ATOM     18  OE1 GLU A   1      -3.510  20.333  72.467  0.00  0.00    -0.246 OA
ENDBRANCH  15  16
ENDBRANCH  14  15
ENDBRANCH  10  14
ENDBRANCH   8  10
ENDBRANCH   4   7
BRANCH   1  19
ATOM     19  N   UNK A   0     -10.322  16.928  65.469  0.00  0.00    -0.236 NA
BRANCH  19  20
ATOM     20  C   UNK A   0     -10.708  15.721  66.201  0.00  0.00    +0.134 C 
BRANCH  20  23
ATOM     21  C   UNK A   0     -10.681  13.599  64.591  0.00  0.00    +0.112 C 
ATOM     22  N   UNK A   0      -9.983  13.540  65.851  0.00  0.00    -0.298 N 
ATOM     23  C   UNK A   0      -9.248  14.928  66.072  0.00  0.00    +0.116 C 
ATOM     24  C   UNK A   0      -9.103  14.818  67.727  0.00  0.00    +0.135 C 
ATOM     25  N   UNK A   0      -8.541  13.482  67.948  0.00  0.00    -0.217 NA
ATOM     26  C   UNK A   0      -9.588  12.500  67.910  0.00  0.00    +0.169 A 
ATOM     27  N   UNK A   0      -9.591  11.344  68.569  0.00  0.00    -0.193 NA
ATOM     28  C   UNK A   0     -10.479  10.385  68.199  0.00  0.00    +0.260 A 
ATOM     29  N   UNK A   0     -11.542  10.801  67.465  0.00  0.00    -0.171 NA
ATOM     30  C   UNK A   0     -11.509  11.904  66.698  0.00  0.00    +0.298 A 
ATOM     31  O   UNK A   0     -12.333  12.151  65.779  0.00  0.00    -0.264 OA
ATOM     32  N   UNK A   0     -10.042   9.020  68.172  0.00  0.00    -0.086 NA
ATOM     33  C   UNK A   0     -10.522  12.853  66.935  0.00  0.00    +0.140 A 
ENDBRANCH  20  23
ENDBRANCH  19  20
ENDBRANCH   1  19
TORSDOF 9
ENDMDL
MODEL 5
REMARK VINA RESULT:      -7.4      3.745      9.417
REMARK  Name = 
REMARK  9 active torsions:
REMARK  status: ('A' for Active; 'I' for Inactive)
REMARK    1  A    between atoms: C_13  and  C_14
REMARK    2  A    between atoms: C_14  and  N_15
REMARK    3  A    between atoms: N_15  and  C_16
REMARK    4  A    between atoms: C_19  and  C_20
REMARK    5  A    between atoms: N_22  and  CA_23
REMARK    6  A    between atoms: CA_23  and  CB_24
REMARK    7  A    between atoms: CA_23  and  C_29
REMARK    8  A    between atoms: CB_24  and  CG_25
REMARK    9  A    between atoms: CG_25  and  CD_26
REMARK                            x       y       z     vdW  Elec       q    Type
REMARK                         _______ _______ _______ _____ _____    ______ ____
ROOT
ATOM      1  C   UNK A   0      -9.593  18.311  67.554  0.00  0.00    +0.065 A 
ATOM      2  C   UNK A   0     -10.440  17.653  68.438  0.00  0.00    +0.016 A 
ATOM      3  C   UNK A   0     -10.827  16.373  68.035  0.00  0.00    +0.006 A 
ATOM      4  C   UNK A   0     -10.771  15.985  66.699  0.00  0.00    +0.055 A 
ATOM      5  C   UNK A   0     -10.614  17.064  65.831  0.00  0.00    +0.006 A 
ATOM      6  C   UNK A   0      -9.992  18.243  66.232  0.00  0.00    +0.016 A 
ENDROOT
BRANCH   4   7
ATOM      7  C   UNK A   0     -10.348  14.628  66.304  0.00  0.00    +0.265 C 
ATOM      8  N   GLU A   1     -11.288  13.929  65.508  0.00  0.00    -0.192 NA
ATOM      9  O   UNK A   0      -9.109  14.535  66.047  0.00  0.00    -0.268 OA
BRANCH   8  10
ATOM     10  CA  GLU A   1     -10.647  12.862  64.508  0.00  0.00    +0.199 C 
BRANCH  10  11
ATOM     11  C   GLU A   1     -12.009  12.797  63.608  0.00  0.00    +0.384 C 
ATOM     12  OXT GLU A   1     -12.655  13.989  63.461  0.00  0.00    -0.244 OA
ATOM     13  O   GLU A   1     -12.348  11.683  63.207  0.00  0.00    -0.244 OA
ENDBRANCH  10  11
BRANCH  10  14
ATOM     14  CB  GLU A   1     -11.118  11.573  65.457  0.00  0.00    +0.045 C 
BRANCH  14  15
ATOM     15  CG  GLU A   1      -9.917  10.686  65.538  0.00  0.00    +0.116 C 
BRANCH  15  16
ATOM     16  CD  GLU A   1      -8.908  11.094  66.523  0.00  0.00    +0.365 C 
ATOM     17  OE2 GLU A   1      -7.553  11.168  66.319  0.00  0.00    -0.246 OA
ATOM     18  OE1 GLU A   1      -9.319  11.500  67.652  0.00  0.00    -0.246 OA
ENDBRANCH  15  16
ENDBRANCH  14  15
ENDBRANCH  10  14
ENDBRANCH   8  10
ENDBRANCH   4   7
BRANCH   1  19
ATOM     19  N   UNK A   0      -8.391  18.968  67.976  0.00  0.00    -0.236 NA
BRANCH  19  20
ATOM     20  C   UNK A   0      -7.348  17.995  68.303  0.00  0.00    +0.134 C 
BRANCH  20  23
ATOM     21  C   UNK A   0      -4.916  17.174  69.014  0.00  0.00    +0.112 C 
ATOM     22  N   UNK A   0      -5.183  18.586  68.909  0.00  0.00    -0.298 N 
ATOM     23  C   UNK A   0      -6.075  18.824  67.619  0.00  0.00    +0.116 C 
ATOM     24  C   UNK A   0      -6.714  20.290  68.083  0.00  0.00    +0.135 C 
ATOM     25  N   UNK A   0      -5.546  21.073  68.499  0.00  0.00    -0.217 NA
ATOM     26  C   UNK A   0      -5.185  20.731  69.847  0.00  0.00    +0.169 A 
ATOM     27  N   UNK A   0      -4.595  21.542  70.721  0.00  0.00    -0.193 NA
ATOM     28  C   UNK A   0      -4.030  21.002  71.833  0.00  0.00    +0.260 A 
ATOM     29  N   UNK A   0      -4.439  19.753  72.168  0.00  0.00    -0.171 NA
ATOM     30  C   UNK A   0      -4.925  18.880  71.269  0.00  0.00    +0.298 A 
ATOM     31  O   UNK A   0      -5.017  17.641  71.466  0.00  0.00    -0.264 OA
ATOM     32  N   UNK A   0      -2.773  21.523  72.284  0.00  0.00    -0.086 NA
ATOM     33  C   UNK A   0      -5.378  19.364  70.048  0.00  0.00    +0.140 A 
ENDBRANCH  20  23
ENDBRANCH  19  20
ENDBRANCH   1  19
TORSDOF 9
ENDMDL
MODEL 6
REMARK VINA RESULT:      -7.3      3.144      4.938
REMARK  Name = 
REMARK  9 active torsions:
REMARK  status: ('A' for Active; 'I' for Inactive)
REMARK    1  A    between atoms: C_13  and  C_14
REMARK    2  A    between atoms: C_14  and  N_15
REMARK    3  A    between atoms: N_15  and  C_16
REMARK    4  A    between atoms: C_19  and  C_20
REMARK    5  A    between atoms: N_22  and  CA_23
REMARK    6  A    between atoms: CA_23  and  CB_24
REMARK    7  A    between atoms: CA_23  and  C_29
REMARK    8  A    between atoms: CB_24  and  CG_25
REMARK    9  A    between atoms: CG_25  and  CD_26
REMARK                            x       y       z     vdW  Elec       q    Type
REMARK                         _______ _______ _______ _____ _____    ______ ____
ROOT
ATOM      1  C   UNK A   0     -10.465  17.878  66.352  0.00  0.00    +0.065 A 
ATOM      2  C   UNK A   0     -10.501  19.205  65.939  0.00  0.00    +0.016 A 
ATOM      3  C   UNK A   0      -9.559  20.035  66.551  0.00  0.00    +0.006 A 
ATOM      4  C   UNK A   0      -8.978  19.697  67.771  0.00  0.00    +0.055 A 
ATOM      5  C   UNK A   0      -9.654  18.668  68.423  0.00  0.00    +0.006 A 
ATOM      6  C   UNK A   0     -10.390  17.715  67.724  0.00  0.00    +0.016 A 
ENDROOT
BRANCH   4   7
ATOM      7  C   UNK A   0      -7.554  19.962  68.049  0.00  0.00    +0.265 C 
ATOM      8  N   GLU A   1      -7.015  19.209  69.120  0.00  0.00    -0.192 NA
ATOM      9  O   UNK A   0      -6.859  20.163  67.006  0.00  0.00    -0.268 OA
BRANCH   8  10
ATOM     10  CA  GLU A   1      -5.452  18.908  69.000  0.00  0.00    +0.199 C 
BRANCH  10  11
ATOM     11  C   GLU A   1      -5.708  17.299  68.883  0.00  0.00    +0.384 C 
ATOM     12  OXT GLU A   1      -5.770  16.821  67.607  0.00  0.00    -0.244 OA
ATOM     13  O   GLU A   1      -5.880  16.693  69.942  0.00  0.00    -0.244 OA
ENDBRANCH  10  11
BRANCH  10  14
ATOM     14  CB  GLU A   1      -5.259  18.837  70.656  0.00  0.00    +0.045 C 
BRANCH  14  15
ATOM     15  CG  GLU A   1      -5.554  20.219  71.146  0.00  0.00    +0.116 C 
BRANCH  15  16
ATOM     16  CD  GLU A   1      -4.487  20.836  71.943  0.00  0.00    +0.365 C 
ATOM     17  OE2 GLU A   1      -4.353  22.171  72.230  0.00  0.00    -0.246 OA
ATOM     18  OE1 GLU A   1      -3.647  20.065  72.497  0.00  0.00    -0.246 OA
ENDBRANCH  15  16
ENDBRANCH  14  15
ENDBRANCH  10  14
ENDBRANCH   8  10
ENDBRANCH   4   7
BRANCH   1  19
ATOM     19  N   UNK A   0     -10.467  16.779  65.433  0.00  0.00    -0.236 NA
BRANCH  19  20
ATOM     20  C   UNK A   0      -9.917  15.574  66.055  0.00  0.00    +0.134 C 
BRANCH  20  23
ATOM     21  C   UNK A   0     -10.257  14.028  68.198  0.00  0.00    +0.112 C 
ATOM     22  N   UNK A   0     -10.627  13.527  66.897  0.00  0.00    -0.298 N 
ATOM     23  C   UNK A   0     -11.336  14.703  66.102  0.00  0.00    +0.116 C 
ATOM     24  C   UNK A   0     -11.073  14.097  64.573  0.00  0.00    +0.135 C 
ATOM     25  N   UNK A   0     -11.519  12.702  64.660  0.00  0.00    -0.217 NA
ATOM     26  C   UNK A   0     -10.477  11.893  65.229  0.00  0.00    +0.169 A 
ATOM     27  N   UNK A   0     -10.275  10.602  64.979  0.00  0.00    -0.193 NA
ATOM     28  C   UNK A   0      -9.469   9.895  65.814  0.00  0.00    +0.260 A 
ATOM     29  N   UNK A   0      -8.630  10.619  66.596  0.00  0.00    -0.171 NA
ATOM     30  C   UNK A   0      -8.886  11.889  66.956  0.00  0.00    +0.298 A 
ATOM     31  O   UNK A   0      -8.317  12.481  67.909  0.00  0.00    -0.264 OA
ATOM     32  N   UNK A   0      -9.852   8.559  66.167  0.00  0.00    -0.086 NA
ATOM     33  C   UNK A   0      -9.820  12.614  66.225  0.00  0.00    +0.140 A 
ENDBRANCH  20  23
ENDBRANCH  19  20
ENDBRANCH   1  19
TORSDOF 9
ENDMDL
MODEL 7
REMARK VINA RESULT:      -7.3      4.423      7.662
REMARK  Name = 
REMARK  9 active torsions:
REMARK  status: ('A' for Active; 'I' for Inactive)
REMARK    1  A    between atoms: C_13  and  C_14
REMARK    2  A    between atoms: C_14  and  N_15
REMARK    3  A    between atoms: N_15  and  C_16
REMARK    4  A    between atoms: C_19  and  C_20
REMARK    5  A    between atoms: N_22  and  CA_23
REMARK    6  A    between atoms: CA_23  and  CB_24
REMARK    7  A    between atoms: CA_23  and  C_29
REMARK    8  A    between atoms: CB_24  and  CG_25
REMARK    9  A    between atoms: CG_25  and  CD_26
REMARK                            x       y       z     vdW  Elec       q    Type
REMARK                         _______ _______ _______ _____ _____    ______ ____
ROOT
ATOM      1  C   UNK A   0     -11.546  12.064  65.746  0.00  0.00    +0.065 A 
ATOM      2  C   UNK A   0     -10.259  12.368  65.318  0.00  0.00    +0.016 A 
ATOM      3  C   UNK A   0     -10.050  13.711  64.999  0.00  0.00    +0.006 A 
ATOM      4  C   UNK A   0     -11.112  14.555  64.681  0.00  0.00    +0.055 A 
ATOM      5  C   UNK A   0     -12.289  13.861  64.409  0.00  0.00    +0.006 A 
ATOM      6  C   UNK A   0     -12.546  12.610  64.963  0.00  0.00    +0.016 A 
ENDROOT
BRANCH   4   7
ATOM      7  C   UNK A   0     -11.147  15.958  65.135  0.00  0.00    +0.265 C 
ATOM      8  N   GLU A   1     -10.328  16.232  66.257  0.00  0.00    -0.192 NA
ATOM      9  O   UNK A   0     -11.223  16.799  64.188  0.00  0.00    -0.268 OA
BRANCH   8  10
ATOM     10  CA  GLU A   1      -9.779  17.729  66.328  0.00  0.00    +0.199 C 
BRANCH  10  11
ATOM     11  C   GLU A   1      -8.229  17.233  66.183  0.00  0.00    +0.384 C 
ATOM     12  OXT GLU A   1      -7.965  16.015  66.736  0.00  0.00    -0.244 OA
ATOM     13  O   GLU A   1      -7.448  18.024  65.651  0.00  0.00    -0.244 OA
ENDBRANCH  10  11
BRANCH  10  14
ATOM     14  CB  GLU A   1      -9.713  17.710  67.995  0.00  0.00    +0.045 C 
BRANCH  14  15
ATOM     15  CG  GLU A   1     -10.890  16.895  68.426  0.00  0.00    +0.116 C 
BRANCH  15  16
ATOM     16  CD  GLU A   1     -10.704  16.145  69.673  0.00  0.00    +0.365 C 
ATOM     17  OE2 GLU A   1     -11.442  16.277  70.822  0.00  0.00    -0.246 OA
ATOM     18  OE1 GLU A   1      -9.834  15.223  69.679  0.00  0.00    -0.246 OA
ENDBRANCH  15  16
ENDBRANCH  14  15
ENDBRANCH  10  14
ENDBRANCH   8  10
ENDBRANCH   4   7
BRANCH   1  19
ATOM     19  N   UNK A   0     -11.809  11.285  66.920  0.00  0.00    -0.236 NA
BRANCH  19  20
ATOM     20  C   UNK A   0     -10.598  10.603  67.379  0.00  0.00    +0.134 C 
BRANCH  20  23
ATOM     21  C   UNK A   0      -8.502   9.916  68.874  0.00  0.00    +0.112 C 
ATOM     22  N   UNK A   0      -9.765  10.196  69.511  0.00  0.00    -0.298 N 
ATOM     23  C   UNK A   0     -10.407  11.458  68.796  0.00  0.00    +0.116 C 
ATOM     24  C   UNK A   0     -11.983  11.163  69.245  0.00  0.00    +0.135 C 
ATOM     25  N   UNK A   0     -11.903  10.918  70.689  0.00  0.00    -0.217 NA
ATOM     26  C   UNK A   0     -11.512   9.557  70.931  0.00  0.00    +0.169 A 
ATOM     27  N   UNK A   0     -11.845   8.833  71.996  0.00  0.00    -0.193 NA
ATOM     28  C   UNK A   0     -11.156   7.690  72.249  0.00  0.00    +0.260 A 
ATOM     29  N   UNK A   0     -10.457   7.168  71.210  0.00  0.00    -0.171 NA
ATOM     30  C   UNK A   0     -10.009   7.914  70.186  0.00  0.00    +0.298 A 
ATOM     31  O   UNK A   0      -9.111   7.548  69.384  0.00  0.00    -0.264 OA
ATOM     32  N   UNK A   0     -10.818   7.380  73.608  0.00  0.00    -0.086 NA
ATOM     33  C   UNK A   0     -10.578   9.165  69.973  0.00  0.00    +0.140 A 
ENDBRANCH  20  23
ENDBRANCH  19  20
ENDBRANCH   1  19
TORSDOF 9
ENDMDL
MODEL 8
REMARK VINA RESULT:      -7.3      3.073      4.464
REMARK  Name = 
REMARK  9 active torsions:
REMARK  status: ('A' for Active; 'I' for Inactive)
REMARK    1  A    between atoms: C_13  and  C_14
REMARK    2  A    between atoms: C_14  and  N_15
REMARK    3  A    between atoms: N_15  and  C_16
REMARK    4  A    between atoms: C_19  and  C_20
REMARK    5  A    between atoms: N_22  and  CA_23
REMARK    6  A    between atoms: CA_23  and  CB_24
REMARK    7  A    between atoms: CA_23  and  C_29
REMARK    8  A    between atoms: CB_24  and  CG_25
REMARK    9  A    between atoms: CG_25  and  CD_26
REMARK                            x       y       z     vdW  Elec       q    Type
REMARK                         _______ _______ _______ _____ _____    ______ ____
ROOT
ATOM      1  C   UNK A   0     -10.376  18.226  67.490  0.00  0.00    +0.065 A 
ATOM      2  C   UNK A   0      -9.481  17.844  66.497  0.00  0.00    +0.016 A 
ATOM      3  C   UNK A   0      -8.321  18.620  66.426  0.00  0.00    +0.006 A 
ATOM      4  C   UNK A   0      -8.276  19.909  66.951  0.00  0.00    +0.055 A 
ATOM      5  C   UNK A   0      -9.541  20.419  67.236  0.00  0.00    +0.006 A 
ATOM      6  C   UNK A   0     -10.615  19.588  67.542  0.00  0.00    +0.016 A 
ENDROOT
BRANCH   4   7
ATOM      7  C   UNK A   0      -7.080  20.419  67.647  0.00  0.00    +0.265 C 
ATOM      8  N   GLU A   1      -6.196  19.413  68.107  0.00  0.00    -0.192 NA
ATOM      9  O   UNK A   0      -6.615  21.488  67.145  0.00  0.00    -0.268 OA
BRANCH   8  10
ATOM     10  CA  GLU A   1      -4.665  19.860  68.185  0.00  0.00    +0.199 C 
BRANCH  10  11
ATOM     11  C   GLU A   1      -4.143  18.326  67.978  0.00  0.00    +0.384 C 
ATOM     12  OXT GLU A   1      -2.875  18.089  68.422  0.00  0.00    -0.244 OA
ATOM     13  O   GLU A   1      -4.910  17.560  67.392  0.00  0.00    -0.244 OA
ENDBRANCH  10  11
BRANCH  10  14
ATOM     14  CB  GLU A   1      -4.630  19.731  69.848  0.00  0.00    +0.045 C 
BRANCH  14  15
ATOM     15  CG  GLU A   1      -3.874  20.931  70.320  0.00  0.00    +0.116 C 
BRANCH  15  16
ATOM     16  CD  GLU A   1      -3.940  21.180  71.765  0.00  0.00    +0.365 C 
ATOM     17  OE2 GLU A   1      -4.530  22.255  72.381  0.00  0.00    -0.246 OA
ATOM     18  OE1 GLU A   1      -3.486  20.282  72.536  0.00  0.00    -0.246 OA
ENDBRANCH  15  16
ENDBRANCH  14  15
ENDBRANCH  10  14
ENDBRANCH   8  10
ENDBRANCH   4   7
BRANCH   1  19
ATOM     19  N   UNK A   0     -10.968  17.292  68.401  0.00  0.00    -0.236 NA
BRANCH  19  20
ATOM     20  C   UNK A   0     -10.980  15.942  67.835  0.00  0.00    +0.134 C 
BRANCH  20  23
ATOM     21  C   UNK A   0      -8.772  14.454  67.748  0.00  0.00    +0.112 C 
ATOM     22  N   UNK A   0      -9.945  13.943  68.414  0.00  0.00    -0.298 N 
ATOM     23  C   UNK A   0     -10.598  15.130  69.239  0.00  0.00    +0.116 C 
ATOM     24  C   UNK A   0     -12.130  14.485  69.341  0.00  0.00    +0.135 C 
ATOM     25  N   UNK A   0     -11.908  13.111  69.805  0.00  0.00    -0.217 NA
ATOM     26  C   UNK A   0     -11.559  12.271  68.693  0.00  0.00    +0.169 A 
ATOM     27  N   UNK A   0     -11.812  10.969  68.597  0.00  0.00    -0.193 NA
ATOM     28  C   UNK A   0     -11.155  10.246  67.652  0.00  0.00    +0.260 A 
ATOM     29  N   UNK A   0     -10.597  10.951  66.636  0.00  0.00    -0.171 NA
ATOM     30  C   UNK A   0     -10.225  12.237  66.761  0.00  0.00    +0.298 A 
ATOM     31  O   UNK A   0      -9.437  12.824  65.975  0.00  0.00    -0.264 OA
ATOM     32  N   UNK A   0     -10.690   8.934  67.994  0.00  0.00    -0.086 NA
ATOM     33  C   UNK A   0     -10.752  12.985  67.807  0.00  0.00    +0.140 A 
ENDBRANCH  20  23
ENDBRANCH  19  20
ENDBRANCH   1  19
TORSDOF 9
ENDMDL
MODEL 9
REMARK VINA RESULT:      -7.2      4.235      6.825
REMARK  Name = 
REMARK  9 active torsions:
REMARK  status: ('A' for Active; 'I' for Inactive)
REMARK    1  A    between atoms: C_13  and  C_14
REMARK    2  A    between atoms: C_14  and  N_15
REMARK    3  A    between atoms: N_15  and  C_16
REMARK    4  A    between atoms: C_19  and  C_20
REMARK    5  A    between atoms: N_22  and  CA_23
REMARK    6  A    between atoms: CA_23  and  CB_24
REMARK    7  A    between atoms: CA_23  and  C_29
REMARK    8  A    between atoms: CB_24  and  CG_25
REMARK    9  A    between atoms: CG_25  and  CD_26
REMARK                            x       y       z     vdW  Elec       q    Type
REMARK                         _______ _______ _______ _____ _____    ______ ____
ROOT
ATOM      1  C   UNK A   0     -11.803  12.543  65.980  0.00  0.00    +0.065 A 
ATOM      2  C   UNK A   0     -10.927  12.420  64.907  0.00  0.00    +0.016 A 
ATOM      3  C   UNK A   0     -10.088  13.519  64.709  0.00  0.00    +0.006 A 
ATOM      4  C   UNK A   0     -10.409  14.778  65.211  0.00  0.00    +0.055 A 
ATOM      5  C   UNK A   0     -11.738  14.873  65.615  0.00  0.00    +0.006 A 
ATOM      6  C   UNK A   0     -12.458  13.759  66.039  0.00  0.00    +0.016 A 
ENDROOT
BRANCH   4   7
ATOM      7  C   UNK A   0      -9.379  15.670  65.776  0.00  0.00    +0.265 C 
ATOM      8  N   GLU A   1      -9.787  17.018  65.921  0.00  0.00    -0.192 NA
ATOM      9  O   UNK A   0      -8.670  15.125  66.676  0.00  0.00    -0.268 OA
BRANCH   8  10
ATOM     10  CA  GLU A   1      -9.070  17.805  67.110  0.00  0.00    +0.199 C 
BRANCH  10  11
ATOM     11  C   GLU A   1     -10.500  18.200  67.794  0.00  0.00    +0.384 C 
ATOM     12  OXT GLU A   1     -11.116  17.181  68.460  0.00  0.00    -0.244 OA
ATOM     13  O   GLU A   1     -10.907  19.345  67.591  0.00  0.00    -0.244 OA
ENDBRANCH  10  11
BRANCH  10  14
ATOM     14  CB  GLU A   1      -9.005  19.225  66.237  0.00  0.00    +0.045 C 
BRANCH  14  15
ATOM     15  CG  GLU A   1      -7.553  19.576  66.165  0.00  0.00    +0.116 C 
BRANCH  15  16
ATOM     16  CD  GLU A   1      -7.026  20.283  67.338  0.00  0.00    +0.365 C 
ATOM     17  OE2 GLU A   1      -6.618  19.713  68.518  0.00  0.00    -0.246 OA
ATOM     18  OE1 GLU A   1      -6.847  21.534  67.239  0.00  0.00    -0.246 OA
ENDBRANCH  15  16
ENDBRANCH  14  15
ENDBRANCH  10  14
ENDBRANCH   8  10
ENDBRANCH   4   7
BRANCH   1  19
ATOM     19  N   UNK A   0     -11.980  11.511  66.958  0.00  0.00    -0.236 NA
BRANCH  19  20
ATOM     20  C   UNK A   0     -10.704  10.867  67.277  0.00  0.00    +0.134 C 
BRANCH  20  23
ATOM     21  C   UNK A   0      -8.566  10.069  68.651  0.00  0.00    +0.112 C 
ATOM     22  N   UNK A   0      -9.795  10.348  69.353  0.00  0.00    -0.298 N 
ATOM     23  C   UNK A   0     -10.435  11.655  68.720  0.00  0.00    +0.116 C 
ATOM     24  C   UNK A   0     -11.998  11.375  69.223  0.00  0.00    +0.135 C 
ATOM     25  N   UNK A   0     -11.864  11.065  70.650  0.00  0.00    -0.217 NA
ATOM     26  C   UNK A   0     -11.496   9.687  70.817  0.00  0.00    +0.169 A 
ATOM     27  N   UNK A   0     -11.802   8.924  71.863  0.00  0.00    -0.193 NA
ATOM     28  C   UNK A   0     -11.131   7.756  72.037  0.00  0.00    +0.260 A 
ATOM     29  N   UNK A   0     -10.488   7.264  70.948  0.00  0.00    -0.171 NA
ATOM     30  C   UNK A   0     -10.065   8.045  69.939  0.00  0.00    +0.298 A 
ATOM     31  O   UNK A   0      -9.211   7.694  69.084  0.00  0.00    -0.264 OA
ATOM     32  N   UNK A   0     -10.745   7.379  73.365  0.00  0.00    -0.086 NA
ATOM     33  C   UNK A   0     -10.612   9.316  69.804  0.00  0.00    +0.140 A 
ENDBRANCH  20  23
ENDBRANCH  19  20
ENDBRANCH   1  19
TORSDOF 9
ENDMDL
