MODEL 1
REMARK VINA RESULT:      -4.5      0.000      0.000
REMARK  Name = 
REMARK  0 active torsions:
REMARK  status: ('A' for Active; 'I' for Inactive)
REMARK                            x       y       z     vdW  Elec       q    Type
REMARK                         _______ _______ _______ _____ _____    ______ ____
ROOT
ATOM      1  C   UNL     1     -11.792  12.147  66.265  0.00  0.00    +0.000 C 
ATOM      2  C   UNL     1     -11.392  12.387  66.415  0.00  0.00    +0.007 C 
ATOM      3  C   UNL     1     -11.064  12.393  65.048  0.00  0.00    +0.052 C 
ATOM      4  C   UNL     1     -12.356  12.965  64.526  0.00  0.00    +0.150 C 
ATOM      5  C   UNL     1     -12.877  13.939  65.484  0.00  0.00    +0.064 C 
ATOM      6  O   UNL     1     -13.105  12.246  63.858  0.00  0.00    -0.296 OA
ATOM      7  C   UNL     1     -10.625  11.161  64.389  0.00  0.00    +0.007 C 
ATOM      8  C   UNL     1     -10.067  13.486  64.939  0.00  0.00    +0.007 C 
ATOM      9  C   UNL     1     -10.600  14.582  65.716  0.00  0.00    +0.001 C 
ATOM     10  C   UNL     1     -11.759  13.944  66.676  0.00  0.00    +0.008 C 
ATOM     11  C   UNL     1     -11.255  11.592  67.527  0.00  0.00    +0.000 C 
ENDROOT
TORSDOF 0
ENDMDL
MODEL 2
REMARK VINA RESULT:      -4.5      1.056      2.737
REMARK  Name = 
REMARK  0 active torsions:
REMARK  status: ('A' for Active; 'I' for Inactive)
REMARK                            x       y       z     vdW  Elec       q    Type
REMARK                         _______ _______ _______ _____ _____    ______ ____
ROOT
ATOM      1  C   UNL     1     -10.864  14.248  65.539  0.00  0.00    +0.000 C 
ATOM      2  C   UNL     1     -10.525  13.904  65.624  0.00  0.00    +0.007 C 
ATOM      3  C   UNL     1     -11.557  13.273  66.341  0.00  0.00    +0.052 C 
ATOM      4  C   UNL     1     -12.608  13.301  65.264  0.00  0.00    +0.150 C 
ATOM      5  C   UNL     1     -11.971  13.115  63.960  0.00  0.00    +0.064 C 
ATOM      6  O   UNL     1     -13.596  14.028  65.406  0.00  0.00    -0.296 OA
ATOM      7  C   UNL     1     -11.987  13.806  67.637  0.00  0.00    +0.007 C 
ATOM      8  C   UNL     1     -11.104  11.863  66.425  0.00  0.00    +0.007 C 
ATOM      9  C   UNL     1     -10.623  11.525  65.105  0.00  0.00    +0.001 C 
ATOM     10  C   UNL     1     -10.387  12.944  64.326  0.00  0.00    +0.008 C 
ATOM     11  C   UNL     1      -9.535  14.838  65.806  0.00  0.00    +0.000 C 
ENDROOT
TORSDOF 0
ENDMDL
MODEL 3
REMARK VINA RESULT:      -4.4      4.576      5.846
REMARK  Name = 
REMARK  0 active torsions:
REMARK  status: ('A' for Active; 'I' for Inactive)
REMARK                            x       y       z     vdW  Elec       q    Type
REMARK                         _______ _______ _______ _____ _____    ______ ____
ROOT
ATOM      1  C   UNL     1     -10.477  17.549  67.811  0.00  0.00    +0.000 C 
ATOM      2  C   UNL     1     -10.081  17.624  68.089  0.00  0.00    +0.007 C 
ATOM      3  C   UNL     1      -9.388  17.526  66.870  0.00  0.00    +0.052 C 
ATOM      4  C   UNL     1     -10.187  18.540  66.094  0.00  0.00    +0.150 C 
ATOM      5  C   UNL     1     -10.590  19.625  66.987  0.00  0.00    +0.064 C 
ATOM      6  O   UNL     1     -10.911  18.156  65.171  0.00  0.00    -0.296 OA
ATOM      7  C   UNL     1      -9.235  16.227  66.211  0.00  0.00    +0.007 C 
ATOM      8  C   UNL     1      -8.088  18.176  67.161  0.00  0.00    +0.007 C 
ATOM      9  C   UNL     1      -8.405  19.381  67.892  0.00  0.00    +0.001 C 
ATOM     10  C   UNL     1      -9.940  19.202  68.426  0.00  0.00    +0.008 C 
ATOM     11  C   UNL     1     -10.560  16.820  69.095  0.00  0.00    +0.000 C 
ENDROOT
TORSDOF 0
ENDMDL
MODEL 4
REMARK VINA RESULT:      -4.2      5.604      7.148
REMARK  Name = 
REMARK  0 active torsions:
REMARK  status: ('A' for Active; 'I' for Inactive)
REMARK                            x       y       z     vdW  Elec       q    Type
REMARK                         _______ _______ _______ _____ _____    ______ ____
ROOT
ATOM      1  C   UNL     1      -7.948  18.733  67.906  0.00  0.00    +0.000 C 
ATOM      2  C   UNL     1      -8.208  19.126  68.040  0.00  0.00    +0.007 C 
ATOM      3  C   UNL     1      -8.465  19.239  66.662  0.00  0.00    +0.052 C 
ATOM      4  C   UNL     1      -8.954  17.835  66.424  0.00  0.00    +0.150 C 
ATOM      5  C   UNL     1      -9.699  17.376  67.596  0.00  0.00    +0.064 C 
ATOM      6  O   UNL     1      -8.263  17.064  65.751  0.00  0.00    -0.296 OA
ATOM      7  C   UNL     1      -7.410  19.688  65.750  0.00  0.00    +0.007 C 
ATOM      8  C   UNL     1      -9.672  20.100  66.608  0.00  0.00    +0.007 C 
ATOM      9  C   UNL     1     -10.563  19.591  67.625  0.00  0.00    +0.001 C 
ATOM     10  C   UNL     1      -9.651  18.658  68.609  0.00  0.00    +0.008 C 
ATOM     11  C   UNL     1      -7.272  19.505  68.971  0.00  0.00    +0.000 C 
ENDROOT
TORSDOF 0
ENDMDL
MODEL 5
REMARK VINA RESULT:      -4.2      1.352      1.831
REMARK  Name = 
REMARK  0 active torsions:
REMARK  status: ('A' for Active; 'I' for Inactive)
REMARK                            x       y       z     vdW  Elec       q    Type
REMARK                         _______ _______ _______ _____ _____    ______ ____
ROOT
ATOM      1  C   UNL     1     -11.606  12.910  66.821  0.00  0.00    +0.000 C 
ATOM      2  C   UNL     1     -11.588  13.399  66.791  0.00  0.00    +0.007 C 
ATOM      3  C   UNL     1     -10.442  13.161  66.011  0.00  0.00    +0.052 C 
ATOM      4  C   UNL     1     -11.050  12.188  65.037  0.00  0.00    +0.150 C 
ATOM      5  C   UNL     1     -12.438  12.568  64.774  0.00  0.00    +0.064 C 
ATOM      6  O   UNL     1     -10.697  11.005  65.069  0.00  0.00    -0.296 OA
ATOM      7  C   UNL     1      -9.201  12.707  66.644  0.00  0.00    +0.007 C 
ATOM      8  C   UNL     1     -10.270  14.428  65.260  0.00  0.00    +0.007 C 
ATOM      9  C   UNL     1     -11.588  14.789  64.790  0.00  0.00    +0.001 C 
ATOM     10  C   UNL     1     -12.646  13.914  65.678  0.00  0.00    +0.008 C 
ATOM     11  C   UNL     1     -11.952  13.555  68.106  0.00  0.00    +0.000 C 
ENDROOT
TORSDOF 0
ENDMDL
MODEL 6
REMARK VINA RESULT:      -4.2      4.697      6.306
REMARK  Name = 
REMARK  0 active torsions:
REMARK  status: ('A' for Active; 'I' for Inactive)
REMARK                            x       y       z     vdW  Elec       q    Type
REMARK                         _______ _______ _______ _____ _____    ______ ____
ROOT
ATOM      1  C   UNL     1      -8.662  17.731  67.011  0.00  0.00    +0.000 C 
ATOM      2  C   UNL     1      -8.650  18.113  66.704  0.00  0.00    +0.007 C 
ATOM      3  C   UNL     1     -10.013  17.820  66.522  0.00  0.00    +0.052 C 
ATOM      4  C   UNL     1     -10.419  17.801  67.972  0.00  0.00    +0.150 C 
ATOM      5  C   UNL     1      -9.651  18.809  68.703  0.00  0.00    +0.064 C 
ATOM      6  O   UNL     1     -10.743  16.729  68.492  0.00  0.00    -0.296 OA
ATOM      7  C   UNL     1     -10.417  16.640  65.753  0.00  0.00    +0.007 C 
ATOM      8  C   UNL     1     -10.564  19.079  65.966  0.00  0.00    +0.007 C 
ATOM      9  C   UNL     1      -9.997  20.142  66.765  0.00  0.00    +0.001 C 
ATOM     10  C   UNL     1      -8.717  19.493  67.549  0.00  0.00    +0.008 C 
ATOM     11  C   UNL     1      -7.421  17.754  66.208  0.00  0.00    +0.000 C 
ENDROOT
TORSDOF 0
ENDMDL
MODEL 7
REMARK VINA RESULT:      -4.2      2.622      3.760
REMARK  Name = 
REMARK  0 active torsions:
REMARK  status: ('A' for Active; 'I' for Inactive)
REMARK                            x       y       z     vdW  Elec       q    Type
REMARK                         _______ _______ _______ _____ _____    ______ ____
ROOT
ATOM      1  C   UNL     1     -12.069  14.292  66.947  0.00  0.00    +0.000 C 
ATOM      2  C   UNL     1     -11.749  13.940  66.831  0.00  0.00    +0.007 C 
ATOM      3  C   UNL     1     -10.793  14.866  67.284  0.00  0.00    +0.052 C 
ATOM      4  C   UNL     1     -11.407  15.160  68.627  0.00  0.00    +0.150 C 
ATOM      5  C   UNL     1     -12.022  13.943  69.155  0.00  0.00    +0.064 C 
ATOM      6  O   UNL     1     -11.893  16.276  68.834  0.00  0.00    -0.296 OA
ATOM      7  C   UNL     1     -10.472  16.048  66.480  0.00  0.00    +0.007 C 
ATOM      8  C   UNL     1      -9.604  14.024  67.561  0.00  0.00    +0.007 C 
ATOM      9  C   UNL     1     -10.100  12.863  68.265  0.00  0.00    +0.001 C 
ATOM     10  C   UNL     1     -11.713  12.824  68.004  0.00  0.00    +0.008 C 
ATOM     11  C   UNL     1     -12.434  13.610  65.687  0.00  0.00    +0.000 C 
ENDROOT
TORSDOF 0
ENDMDL
MODEL 8
REMARK VINA RESULT:      -4.1      5.604      6.837
REMARK  Name = 
REMARK  0 active torsions:
REMARK  status: ('A' for Active; 'I' for Inactive)
REMARK                            x       y       z     vdW  Elec       q    Type
REMARK                         _______ _______ _______ _____ _____    ______ ____
ROOT
ATOM      1  C   UNL     1     -13.885  14.627  71.155  0.00  0.00    +0.000 C 
ATOM      2  C   UNL     1     -13.891  14.862  71.585  0.00  0.00    +0.007 C 
ATOM      3  C   UNL     1     -13.078  13.796  72.009  0.00  0.00    +0.052 C 
ATOM      4  C   UNL     1     -12.044  13.875  70.918  0.00  0.00    +0.150 C 
ATOM      5  C   UNL     1     -11.832  15.276  70.552  0.00  0.00    +0.064 C 
ATOM      6  O   UNL     1     -11.981  12.969  70.081  0.00  0.00    -0.296 OA
ATOM      7  C   UNL     1     -13.655  12.465  72.216  0.00  0.00    +0.007 C 
ATOM      8  C   UNL     1     -12.420  14.329  73.227  0.00  0.00    +0.007 C 
ATOM      9  C   UNL     1     -12.000  15.670  72.891  0.00  0.00    +0.001 C 
ATOM     10  C   UNL     1     -12.836  16.091  71.551  0.00  0.00    +0.008 C 
ATOM     11  C   UNL     1     -15.220  15.187  71.460  0.00  0.00    +0.000 C 
ENDROOT
TORSDOF 0
ENDMDL
MODEL 9
REMARK VINA RESULT:      -4.1      2.007      3.421
REMARK  Name = 
REMARK  0 active torsions:
REMARK  status: ('A' for Active; 'I' for Inactive)
REMARK                            x       y       z     vdW  Elec       q    Type
REMARK                         _______ _______ _______ _____ _____    ______ ____
ROOT
ATOM      1  C   UNL     1      -9.496  14.482  66.350  0.00  0.00    +0.000 C 
ATOM      2  C   UNL     1      -9.683  14.156  66.664  0.00  0.00    +0.007 C 
ATOM      3  C   UNL     1     -10.756  15.062  66.739  0.00  0.00    +0.052 C 
ATOM      4  C   UNL     1     -11.023  15.190  65.263  0.00  0.00    +0.150 C 
ATOM      5  C   UNL     1     -10.780  13.903  64.612  0.00  0.00    +0.064 C 
ATOM      6  O   UNL     1     -10.776  16.260  64.698  0.00  0.00    -0.296 OA
ATOM      7  C   UNL     1     -10.599  16.333  67.450  0.00  0.00    +0.007 C 
ATOM      8  C   UNL     1     -11.864  14.238  67.278  0.00  0.00    +0.007 C 
ATOM      9  C   UNL     1     -11.820  12.992  66.547  0.00  0.00    +0.001 C 
ATOM     10  C   UNL     1     -10.344  12.924  65.846  0.00  0.00    +0.008 C 
ATOM     11  C   UNL     1      -8.459  13.924  67.243  0.00  0.00    +0.000 C 
ENDROOT
TORSDOF 0
ENDMDL
