MODEL 1
REMARK VINA RESULT:      -5.2      0.000      0.000
REMARK  Name = 
REMARK  10 active torsions:
REMARK  status: ('A' for Active; 'I' for Inactive)
REMARK    1  A    between atoms: N_2  and  C_3
REMARK    2  A    between atoms: C_3  and  N_8
REMARK    3  A    between atoms: C_4  and  N_5
REMARK    4  A    between atoms: N_8  and  C_9
REMARK    5  A    between atoms: C_9  and  C_10
REMARK    6  A    between atoms: C_10  and  S_11
REMARK    7  A    between atoms: S_11  and  C_12
REMARK    8  A    between atoms: C_12  and  C_13
REMARK    9  A    between atoms: C_16  and  C_17
REMARK   10  A    between atoms: C_17  and  N_18
REMARK                            x       y       z     vdW  Elec       q    Type
REMARK                         _______ _______ _______ _____ _____    ______ ____
ROOT
ATOM      1  S   UNL     1     -11.476  14.541  67.114  0.00  0.00    -0.129 S 
ENDROOT
BRANCH   1   2
ATOM      2  C   UNL     1     -12.028  12.971  66.416  0.00  0.00    +0.104 C 
BRANCH   2   3
ATOM      3  C   UNL     1     -11.303  11.888  67.155  0.00  0.00    +0.077 A 
ATOM      4  N   UNL     1     -11.922  11.109  68.043  0.00  0.00    -0.245 NA
ATOM      5  C   UNL     1     -11.065  10.532  68.909  0.00  0.00    +0.104 A 
ATOM      6  S   UNL     1      -9.743  10.216  67.860  0.00  0.00    -0.069 S 
ATOM      7  C   UNL     1     -10.235  11.224  66.558  0.00  0.00    +0.052 A 
BRANCH   5   8
ATOM      8  C   UNL     1     -11.281  10.184  70.348  0.00  0.00    +0.126 C 
BRANCH   8   9
ATOM      9  N   UNL     1     -12.679  10.074  70.679  0.00  0.00    -0.265 NA
ATOM     10  C   UNL     1     -12.860   8.888  71.514  0.00  0.00    +0.090 C 
ATOM     11  C   UNL     1     -12.993  11.209  71.547  0.00  0.00    +0.090 C 
ENDBRANCH   8   9
ENDBRANCH   5   8
ENDBRANCH   2   3
ENDBRANCH   1   2
BRANCH   1  12
ATOM     12  C   UNL     1     -10.623  14.338  68.693  0.00  0.00    +0.113 C 
BRANCH  12  13
ATOM     13  C   UNL     1     -11.612  14.213  69.821  0.00  0.00    +0.263 C 
BRANCH  13  14
ATOM     14  N   UNL     1     -12.307  15.444  70.113  0.00  0.00    -0.027 NA
BRANCH  14  15
ATOM     15  C   UNL     1     -12.732  15.813  71.429  0.00  0.00    +0.424 C 
ATOM     16  C   UNL     1     -11.926  15.556  72.441  0.00  0.00    +0.447 C 
BRANCH  16  17
ATOM     17  N   UNL     1     -12.304  15.774  73.789  0.00  0.00    +0.096 N 
ATOM     18  O   UNL     1     -12.295  17.008  74.395  0.00  0.00    -0.576 OA
ATOM     19  O   UNL     1     -12.290  14.764  74.537  0.00  0.00    +0.042 OA
ENDBRANCH  16  17
BRANCH  15  21
ATOM     20  C   UNL     1     -14.758  14.461  71.759  0.00  0.00    +0.306 C 
ATOM     21  N   UNL     1     -14.144  15.777  71.669  0.00  0.00    -0.023 NA
ENDBRANCH  15  21
ENDBRANCH  14  15
ENDBRANCH  13  14
ENDBRANCH  12  13
ENDBRANCH   1  12
TORSDOF 10
ENDMDL
MODEL 2
REMARK VINA RESULT:      -5.2      2.688      4.786
REMARK  Name = 
REMARK  10 active torsions:
REMARK  status: ('A' for Active; 'I' for Inactive)
REMARK    1  A    between atoms: N_2  and  C_3
REMARK    2  A    between atoms: C_3  and  N_8
REMARK    3  A    between atoms: C_4  and  N_5
REMARK    4  A    between atoms: N_8  and  C_9
REMARK    5  A    between atoms: C_9  and  C_10
REMARK    6  A    between atoms: C_10  and  S_11
REMARK    7  A    between atoms: S_11  and  C_12
REMARK    8  A    between atoms: C_12  and  C_13
REMARK    9  A    between atoms: C_16  and  C_17
REMARK   10  A    between atoms: C_17  and  N_18
REMARK                            x       y       z     vdW  Elec       q    Type
REMARK                         _______ _______ _______ _____ _____    ______ ____
ROOT
ATOM      1  S   UNL     1     -10.463  12.710  68.374  0.00  0.00    -0.129 S 
ENDROOT
BRANCH   1   2
ATOM      2  C   UNL     1      -9.599  12.779  66.793  0.00  0.00    +0.104 C 
BRANCH   2   3
ATOM      3  C   UNL     1     -10.011  14.057  66.128  0.00  0.00    +0.077 A 
ATOM      4  N   UNL     1      -9.213  15.126  66.106  0.00  0.00    -0.245 NA
ATOM      5  C   UNL     1      -9.891  16.271  65.890  0.00  0.00    +0.104 A 
ATOM      6  S   UNL     1     -11.066  15.719  64.767  0.00  0.00    -0.069 S 
ATOM      7  C   UNL     1     -10.852  14.032  65.018  0.00  0.00    +0.052 A 
BRANCH   5   8
ATOM      8  C   UNL     1      -9.603  17.642  66.417  0.00  0.00    +0.126 C 
BRANCH   8   9
ATOM      9  N   UNL     1     -10.581  18.071  67.384  0.00  0.00    -0.265 NA
ATOM     10  C   UNL     1     -10.163  17.595  68.701  0.00  0.00    +0.090 C 
ATOM     11  C   UNL     1     -10.487  19.529  67.453  0.00  0.00    +0.090 C 
ENDBRANCH   8   9
ENDBRANCH   5   8
ENDBRANCH   2   3
ENDBRANCH   1   2
BRANCH   1  12
ATOM     12  C   UNL     1     -11.615  14.085  68.598  0.00  0.00    +0.113 C 
BRANCH  12  13
ATOM     13  C   UNL     1     -12.061  14.178  70.032  0.00  0.00    +0.263 C 
BRANCH  13  14
ATOM     14  N   UNL     1     -12.598  15.470  70.384  0.00  0.00    -0.027 NA
BRANCH  14  15
ATOM     15  C   UNL     1     -12.931  15.846  71.724  0.00  0.00    +0.424 C 
ATOM     16  C   UNL     1     -12.062  15.582  72.681  0.00  0.00    +0.447 C 
BRANCH  16  17
ATOM     17  N   UNL     1     -12.346  15.806  74.050  0.00  0.00    +0.096 N 
ATOM     18  O   UNL     1     -12.296  17.043  74.649  0.00  0.00    -0.576 OA
ATOM     19  O   UNL     1     -12.281  14.799  74.800  0.00  0.00    +0.042 OA
ENDBRANCH  16  17
BRANCH  15  21
ATOM     20  C   UNL     1     -15.097  14.693  71.565  0.00  0.00    +0.306 C 
ATOM     21  N   UNL     1     -14.324  15.823  72.058  0.00  0.00    -0.023 NA
ENDBRANCH  15  21
ENDBRANCH  14  15
ENDBRANCH  13  14
ENDBRANCH  12  13
ENDBRANCH   1  12
TORSDOF 10
ENDMDL
MODEL 3
REMARK VINA RESULT:      -5.1      3.591      6.173
REMARK  Name = 
REMARK  10 active torsions:
REMARK  status: ('A' for Active; 'I' for Inactive)
REMARK    1  A    between atoms: N_2  and  C_3
REMARK    2  A    between atoms: C_3  and  N_8
REMARK    3  A    between atoms: C_4  and  N_5
REMARK    4  A    between atoms: N_8  and  C_9
REMARK    5  A    between atoms: C_9  and  C_10
REMARK    6  A    between atoms: C_10  and  S_11
REMARK    7  A    between atoms: S_11  and  C_12
REMARK    8  A    between atoms: C_12  and  C_13
REMARK    9  A    between atoms: C_16  and  C_17
REMARK   10  A    between atoms: C_17  and  N_18
REMARK                            x       y       z     vdW  Elec       q    Type
REMARK                         _______ _______ _______ _____ _____    ______ ____
ROOT
ATOM      1  S   UNL     1      -9.601  17.774  66.454  0.00  0.00    -0.129 S 
ENDROOT
BRANCH   1   2
ATOM      2  C   UNL     1     -10.246  18.211  68.082  0.00  0.00    +0.104 C 
BRANCH   2   3
ATOM      3  C   UNL     1     -10.542  16.924  68.790  0.00  0.00    +0.077 A 
ATOM      4  N   UNL     1     -11.786  16.457  68.907  0.00  0.00    -0.245 NA
ATOM      5  C   UNL     1     -11.915  15.580  69.922  0.00  0.00    +0.104 A 
ATOM      6  S   UNL     1     -10.411  14.761  69.806  0.00  0.00    -0.069 S 
ATOM      7  C   UNL     1      -9.612  15.887  68.782  0.00  0.00    +0.052 A 
BRANCH   5   8
ATOM      8  C   UNL     1     -13.096  15.344  70.811  0.00  0.00    +0.126 C 
BRANCH   8   9
ATOM      9  N   UNL     1     -12.720  14.766  72.076  0.00  0.00    -0.265 NA
ATOM     10  C   UNL     1     -12.921  15.772  73.117  0.00  0.00    +0.090 C 
ATOM     11  C   UNL     1     -13.698  13.716  72.361  0.00  0.00    +0.090 C 
ENDBRANCH   8   9
ENDBRANCH   5   8
ENDBRANCH   2   3
ENDBRANCH   1   2
BRANCH   1  12
ATOM     12  C   UNL     1     -10.846  16.999  65.398  0.00  0.00    +0.113 C 
BRANCH  12  13
ATOM     13  C   UNL     1     -10.549  15.535  65.212  0.00  0.00    +0.263 C 
BRANCH  13  14
ATOM     14  N   UNL     1     -11.723  14.741  64.944  0.00  0.00    -0.027 NA
BRANCH  14  15
ATOM     15  C   UNL     1     -12.020  13.519  65.627  0.00  0.00    +0.424 C 
ATOM     16  C   UNL     1     -11.138  13.057  66.493  0.00  0.00    +0.447 C 
BRANCH  16  17
ATOM     17  N   UNL     1     -11.282  11.801  67.130  0.00  0.00    +0.096 N 
ATOM     18  O   UNL     1     -10.835  10.616  66.594  0.00  0.00    -0.576 OA
ATOM     19  O   UNL     1     -12.163  11.734  68.026  0.00  0.00    +0.042 OA
ENDBRANCH  16  17
BRANCH  15  21
ATOM     20  C   UNL     1     -12.364  12.229  63.563  0.00  0.00    +0.306 C 
ATOM     21  N   UNL     1     -12.811  12.568  64.905  0.00  0.00    -0.023 NA
ENDBRANCH  15  21
ENDBRANCH  14  15
ENDBRANCH  13  14
ENDBRANCH  12  13
ENDBRANCH   1  12
TORSDOF 10
ENDMDL
MODEL 4
REMARK VINA RESULT:      -4.8      6.004      7.358
REMARK  Name = 
REMARK  10 active torsions:
REMARK  status: ('A' for Active; 'I' for Inactive)
REMARK    1  A    between atoms: N_2  and  C_3
REMARK    2  A    between atoms: C_3  and  N_8
REMARK    3  A    between atoms: C_4  and  N_5
REMARK    4  A    between atoms: N_8  and  C_9
REMARK    5  A    between atoms: C_9  and  C_10
REMARK    6  A    between atoms: C_10  and  S_11
REMARK    7  A    between atoms: S_11  and  C_12
REMARK    8  A    between atoms: C_12  and  C_13
REMARK    9  A    between atoms: C_16  and  C_17
REMARK   10  A    between atoms: C_17  and  N_18
REMARK                            x       y       z     vdW  Elec       q    Type
REMARK                         _______ _______ _______ _____ _____    ______ ____
ROOT
ATOM      1  S   UNL     1      -8.892  18.039  68.324  0.00  0.00    -0.129 S 
ENDROOT
BRANCH   1   2
ATOM      2  C   UNL     1     -10.480  17.535  67.634  0.00  0.00    +0.104 C 
BRANCH   2   3
ATOM      3  C   UNL     1     -10.925  16.329  68.404  0.00  0.00    +0.077 A 
ATOM      4  N   UNL     1     -11.624  16.436  69.535  0.00  0.00    -0.245 NA
ATOM      5  C   UNL     1     -11.540  15.330  70.300  0.00  0.00    +0.104 A 
ATOM      6  S   UNL     1     -11.546  14.120  69.083  0.00  0.00    -0.069 S 
ATOM      7  C   UNL     1     -11.219  15.140  67.740  0.00  0.00    +0.052 A 
BRANCH   5   8
ATOM      8  C   UNL     1     -11.550  15.223  71.793  0.00  0.00    +0.126 C 
BRANCH   8   9
ATOM      9  N   UNL     1     -12.838  15.538  72.355  0.00  0.00    -0.265 NA
ATOM     10  C   UNL     1     -13.645  14.320  72.363  0.00  0.00    +0.090 C 
ATOM     11  C   UNL     1     -12.610  15.860  73.764  0.00  0.00    +0.090 C 
ENDBRANCH   8   9
ENDBRANCH   5   8
ENDBRANCH   2   3
ENDBRANCH   1   2
BRANCH   1  12
ATOM     12  C   UNL     1      -8.445  19.732  67.877  0.00  0.00    +0.113 C 
BRANCH  12  13
ATOM     13  C   UNL     1      -7.011  20.016  68.238  0.00  0.00    +0.263 C 
BRANCH  13  14
ATOM     14  N   UNL     1      -6.550  19.274  69.386  0.00  0.00    -0.027 NA
BRANCH  14  15
ATOM     15  C   UNL     1      -5.622  19.799  70.341  0.00  0.00    +0.424 C 
ATOM     16  C   UNL     1      -5.113  20.996  70.125  0.00  0.00    +0.447 C 
BRANCH  16  17
ATOM     17  N   UNL     1      -4.101  21.553  70.945  0.00  0.00    +0.096 N 
ATOM     18  O   UNL     1      -2.758  21.480  70.657  0.00  0.00    -0.576 OA
ATOM     19  O   UNL     1      -4.424  21.790  72.136  0.00  0.00    +0.042 OA
ENDBRANCH  16  17
BRANCH  15  21
ATOM     20  C   UNL     1      -4.305  17.725  70.234  0.00  0.00    +0.306 C 
ATOM     21  N   UNL     1      -4.809  18.838  71.025  0.00  0.00    -0.023 NA
ENDBRANCH  15  21
ENDBRANCH  14  15
ENDBRANCH  13  14
ENDBRANCH  12  13
ENDBRANCH   1  12
TORSDOF 10
ENDMDL
MODEL 5
REMARK VINA RESULT:      -4.8      4.013      6.665
REMARK  Name = 
REMARK  10 active torsions:
REMARK  status: ('A' for Active; 'I' for Inactive)
REMARK    1  A    between atoms: N_2  and  C_3
REMARK    2  A    between atoms: C_3  and  N_8
REMARK    3  A    between atoms: C_4  and  N_5
REMARK    4  A    between atoms: N_8  and  C_9
REMARK    5  A    between atoms: C_9  and  C_10
REMARK    6  A    between atoms: C_10  and  S_11
REMARK    7  A    between atoms: S_11  and  C_12
REMARK    8  A    between atoms: C_12  and  C_13
REMARK    9  A    between atoms: C_16  and  C_17
REMARK   10  A    between atoms: C_17  and  N_18
REMARK                            x       y       z     vdW  Elec       q    Type
REMARK                         _______ _______ _______ _____ _____    ______ ____
ROOT
ATOM      1  S   UNL     1      -7.824  13.128  68.122  0.00  0.00    -0.129 S 
ENDROOT
BRANCH   1   2
ATOM      2  C   UNL     1      -7.796  14.762  67.360  0.00  0.00    +0.104 C 
BRANCH   2   3
ATOM      3  C   UNL     1      -8.979  15.511  67.893  0.00  0.00    +0.077 A 
ATOM      4  N   UNL     1      -9.592  15.144  69.020  0.00  0.00    -0.245 NA
ATOM      5  C   UNL     1     -10.852  15.615  69.099  0.00  0.00    +0.104 A 
ATOM      6  S   UNL     1     -10.641  17.161  68.383  0.00  0.00    -0.069 S 
ATOM      7  C   UNL     1      -9.100  16.881  67.676  0.00  0.00    +0.052 A 
BRANCH   5   8
ATOM      8  C   UNL     1     -12.050  14.982  69.735  0.00  0.00    +0.126 C 
BRANCH   8   9
ATOM      9  N   UNL     1     -12.719  15.875  70.647  0.00  0.00    -0.265 NA
ATOM     10  C   UNL     1     -13.875  15.177  71.205  0.00  0.00    +0.090 C 
ATOM     11  C   UNL     1     -11.809  16.078  71.774  0.00  0.00    +0.090 C 
ENDBRANCH   8   9
ENDBRANCH   5   8
ENDBRANCH   2   3
ENDBRANCH   1   2
BRANCH   1  12
ATOM     12  C   UNL     1      -8.566  11.874  67.052  0.00  0.00    +0.113 C 
BRANCH  12  13
ATOM     13  C   UNL     1     -10.000  11.628  67.435  0.00  0.00    +0.263 C 
BRANCH  13  14
ATOM     14  N   UNL     1     -10.932  11.883  66.363  0.00  0.00    -0.027 NA
BRANCH  14  15
ATOM     15  C   UNL     1     -10.791  12.966  65.439  0.00  0.00    +0.424 C 
ATOM     16  C   UNL     1     -11.570  14.020  65.588  0.00  0.00    +0.447 C 
BRANCH  16  17
ATOM     17  N   UNL     1     -11.591  15.089  64.659  0.00  0.00    +0.096 N 
ATOM     18  O   UNL     1     -10.786  16.200  64.755  0.00  0.00    -0.576 OA
ATOM     19  O   UNL     1     -12.623  15.184  63.948  0.00  0.00    +0.042 OA
ENDBRANCH  16  17
BRANCH  15  21
ATOM     20  C   UNL     1     -10.799  11.306  63.626  0.00  0.00    +0.306 C 
ATOM     21  N   UNL     1     -10.385  12.614  64.111  0.00  0.00    -0.023 NA
ENDBRANCH  15  21
ENDBRANCH  14  15
ENDBRANCH  13  14
ENDBRANCH  12  13
ENDBRANCH   1  12
TORSDOF 10
ENDMDL
MODEL 6
REMARK VINA RESULT:      -4.8      2.682      4.911
REMARK  Name = 
REMARK  10 active torsions:
REMARK  status: ('A' for Active; 'I' for Inactive)
REMARK    1  A    between atoms: N_2  and  C_3
REMARK    2  A    between atoms: C_3  and  N_8
REMARK    3  A    between atoms: C_4  and  N_5
REMARK    4  A    between atoms: N_8  and  C_9
REMARK    5  A    between atoms: C_9  and  C_10
REMARK    6  A    between atoms: C_10  and  S_11
REMARK    7  A    between atoms: S_11  and  C_12
REMARK    8  A    between atoms: C_12  and  C_13
REMARK    9  A    between atoms: C_16  and  C_17
REMARK   10  A    between atoms: C_17  and  N_18
REMARK                            x       y       z     vdW  Elec       q    Type
REMARK                         _______ _______ _______ _____ _____    ______ ____
ROOT
ATOM      1  S   UNL     1     -10.887  10.391  67.472  0.00  0.00    -0.129 S 
ENDROOT
BRANCH   1   2
ATOM      2  C   UNL     1     -10.215  10.968  69.043  0.00  0.00    +0.104 C 
BRANCH   2   3
ATOM      3  C   UNL     1     -11.321  10.871  70.050  0.00  0.00    +0.077 A 
ATOM      4  N   UNL     1     -12.259  11.813  70.154  0.00  0.00    -0.245 NA
ATOM      5  C   UNL     1     -12.871  11.801  71.355  0.00  0.00    +0.104 A 
ATOM      6  S   UNL     1     -12.936  10.110  71.644  0.00  0.00    -0.069 S 
ATOM      7  C   UNL     1     -11.810   9.626  70.438  0.00  0.00    +0.052 A 
BRANCH   5   8
ATOM      8  C   UNL     1     -13.421  12.953  72.137  0.00  0.00    +0.126 C 
BRANCH   8   9
ATOM      9  N   UNL     1     -13.272  14.206  71.442  0.00  0.00    -0.265 NA
ATOM     10  C   UNL     1     -14.515  14.959  71.584  0.00  0.00    +0.090 C 
ATOM     11  C   UNL     1     -12.268  14.974  72.179  0.00  0.00    +0.090 C 
ENDBRANCH   8   9
ENDBRANCH   5   8
ENDBRANCH   2   3
ENDBRANCH   1   2
BRANCH   1  12
ATOM     12  C   UNL     1     -10.332  11.388  66.070  0.00  0.00    +0.113 C 
BRANCH  12  13
ATOM     13  C   UNL     1     -11.508  11.962  65.327  0.00  0.00    +0.263 C 
BRANCH  13  14
ATOM     14  N   UNL     1     -12.035  13.163  65.928  0.00  0.00    -0.027 NA
BRANCH  14  15
ATOM     15  C   UNL     1     -11.254  14.044  66.741  0.00  0.00    +0.424 C 
ATOM     16  C   UNL     1     -11.778  14.482  67.870  0.00  0.00    +0.447 C 
BRANCH  16  17
ATOM     17  N   UNL     1     -11.136  15.447  68.684  0.00  0.00    +0.096 N 
ATOM     18  O   UNL     1     -10.029  15.181  69.455  0.00  0.00    -0.576 OA
ATOM     19  O   UNL     1     -11.819  16.459  68.984  0.00  0.00    +0.042 OA
ENDBRANCH  16  17
BRANCH  15  21
ATOM     20  C   UNL     1     -10.910  15.741  64.995  0.00  0.00    +0.306 C 
ATOM     21  N   UNL     1     -10.346  14.906  66.046  0.00  0.00    -0.023 NA
ENDBRANCH  15  21
ENDBRANCH  14  15
ENDBRANCH  13  14
ENDBRANCH  12  13
ENDBRANCH   1  12
TORSDOF 10
ENDMDL
MODEL 7
REMARK VINA RESULT:      -4.8      4.046      5.814
REMARK  Name = 
REMARK  10 active torsions:
REMARK  status: ('A' for Active; 'I' for Inactive)
REMARK    1  A    between atoms: N_2  and  C_3
REMARK    2  A    between atoms: C_3  and  N_8
REMARK    3  A    between atoms: C_4  and  N_5
REMARK    4  A    between atoms: N_8  and  C_9
REMARK    5  A    between atoms: C_9  and  C_10
REMARK    6  A    between atoms: C_10  and  S_11
REMARK    7  A    between atoms: S_11  and  C_12
REMARK    8  A    between atoms: C_12  and  C_13
REMARK    9  A    between atoms: C_16  and  C_17
REMARK   10  A    between atoms: C_17  and  N_18
REMARK                            x       y       z     vdW  Elec       q    Type
REMARK                         _______ _______ _______ _____ _____    ______ ____
ROOT
ATOM      1  S   UNL     1      -9.527  10.668  68.407  0.00  0.00    -0.129 S 
ENDROOT
BRANCH   1   2
ATOM      2  C   UNL     1     -11.234  11.150  68.075  0.00  0.00    +0.104 C 
BRANCH   2   3
ATOM      3  C   UNL     1     -11.845  11.519  69.393  0.00  0.00    +0.077 A 
ATOM      4  N   UNL     1     -12.341  12.735  69.621  0.00  0.00    -0.245 NA
ATOM      5  C   UNL     1     -12.420  13.023  70.935  0.00  0.00    +0.104 A 
ATOM      6  S   UNL     1     -12.875  11.487  71.552  0.00  0.00    -0.069 S 
ATOM      7  C   UNL     1     -12.498  10.556  70.158  0.00  0.00    +0.052 A 
BRANCH   5   8
ATOM      8  C   UNL     1     -12.255  14.346  71.616  0.00  0.00    +0.126 C 
BRANCH   8   9
ATOM      9  N   UNL     1     -13.342  14.636  72.515  0.00  0.00    -0.265 NA
ATOM     10  C   UNL     1     -13.001  15.838  73.273  0.00  0.00    +0.090 C 
ATOM     11  C   UNL     1     -14.483  15.016  71.681  0.00  0.00    +0.090 C 
ENDBRANCH   8   9
ENDBRANCH   5   8
ENDBRANCH   2   3
ENDBRANCH   1   2
BRANCH   1  12
ATOM     12  C   UNL     1      -8.340  11.950  67.944  0.00  0.00    +0.113 C 
BRANCH  12  13
ATOM     13  C   UNL     1      -8.894  12.818  66.847  0.00  0.00    +0.263 C 
BRANCH  13  14
ATOM     14  N   UNL     1      -9.468  14.052  67.326  0.00  0.00    -0.027 NA
BRANCH  14  15
ATOM     15  C   UNL     1     -10.562  14.712  66.682  0.00  0.00    +0.424 C 
ATOM     16  C   UNL     1     -10.566  14.776  65.364  0.00  0.00    +0.447 C 
BRANCH  16  17
ATOM     17  N   UNL     1     -11.538  15.508  64.640  0.00  0.00    +0.096 N 
ATOM     18  O   UNL     1     -12.625  14.932  64.023  0.00  0.00    -0.576 OA
ATOM     19  O   UNL     1     -11.192  16.652  64.250  0.00  0.00    +0.042 OA
ENDBRANCH  16  17
BRANCH  15  21
ATOM     20  C   UNL     1     -10.274  16.853  67.855  0.00  0.00    +0.306 C 
ATOM     21  N   UNL     1     -11.163  15.792  67.407  0.00  0.00    -0.023 NA
ENDBRANCH  15  21
ENDBRANCH  14  15
ENDBRANCH  13  14
ENDBRANCH  12  13
ENDBRANCH   1  12
TORSDOF 10
ENDMDL
MODEL 8
REMARK VINA RESULT:      -4.8      4.357      5.894
REMARK  Name = 
REMARK  10 active torsions:
REMARK  status: ('A' for Active; 'I' for Inactive)
REMARK    1  A    between atoms: N_2  and  C_3
REMARK    2  A    between atoms: C_3  and  N_8
REMARK    3  A    between atoms: C_4  and  N_5
REMARK    4  A    between atoms: N_8  and  C_9
REMARK    5  A    between atoms: C_9  and  C_10
REMARK    6  A    between atoms: C_10  and  S_11
REMARK    7  A    between atoms: S_11  and  C_12
REMARK    8  A    between atoms: C_12  and  C_13
REMARK    9  A    between atoms: C_16  and  C_17
REMARK   10  A    between atoms: C_17  and  N_18
REMARK                            x       y       z     vdW  Elec       q    Type
REMARK                         _______ _______ _______ _____ _____    ______ ____
ROOT
ATOM      1  S   UNL     1     -10.132  10.657  68.498  0.00  0.00    -0.129 S 
ENDROOT
BRANCH   1   2
ATOM      2  C   UNL     1     -11.666  11.206  69.273  0.00  0.00    +0.104 C 
BRANCH   2   3
ATOM      3  C   UNL     1     -11.955  10.249  70.390  0.00  0.00    +0.077 A 
ATOM      4  N   UNL     1     -10.978   9.692  71.107  0.00  0.00    -0.245 NA
ATOM      5  C   UNL     1     -11.372   8.561  71.726  0.00  0.00    +0.104 A 
ATOM      6  S   UNL     1     -12.977   8.996  72.154  0.00  0.00    -0.069 S 
ATOM      7  C   UNL     1     -13.122  10.375  71.139  0.00  0.00    +0.052 A 
BRANCH   5   8
ATOM      8  C   UNL     1     -10.573   7.333  72.029  0.00  0.00    +0.126 C 
BRANCH   8   9
ATOM      9  N   UNL     1     -11.273   6.125  71.675  0.00  0.00    -0.265 NA
ATOM     10  C   UNL     1     -10.496   5.429  70.652  0.00  0.00    +0.090 C 
ATOM     11  C   UNL     1     -11.228   5.257  72.851  0.00  0.00    +0.090 C 
ENDBRANCH   8   9
ENDBRANCH   5   8
ENDBRANCH   2   3
ENDBRANCH   1   2
BRANCH   1  12
ATOM     12  C   UNL     1     -10.062  11.055  66.737  0.00  0.00    +0.113 C 
BRANCH  12  13
ATOM     13  C   UNL     1      -9.072  12.159  66.480  0.00  0.00    +0.263 C 
BRANCH  13  14
ATOM     14  N   UNL     1      -9.567  13.467  66.838  0.00  0.00    -0.027 NA
BRANCH  14  15
ATOM     15  C   UNL     1     -10.708  14.072  66.223  0.00  0.00    +0.424 C 
ATOM     16  C   UNL     1     -10.520  14.809  65.145  0.00  0.00    +0.447 C 
BRANCH  16  17
ATOM     17  N   UNL     1     -11.564  15.545  64.534  0.00  0.00    +0.096 N 
ATOM     18  O   UNL     1     -12.632  14.964  63.890  0.00  0.00    -0.576 OA
ATOM     19  O   UNL     1     -11.308  16.745  64.260  0.00  0.00    +0.042 OA
ENDBRANCH  16  17
BRANCH  15  21
ATOM     20  C   UNL     1     -11.441  15.252  68.252  0.00  0.00    +0.306 C 
ATOM     21  N   UNL     1     -11.783  14.430  67.100  0.00  0.00    -0.023 NA
ENDBRANCH  15  21
ENDBRANCH  14  15
ENDBRANCH  13  14
ENDBRANCH  12  13
ENDBRANCH   1  12
TORSDOF 10
ENDMDL
MODEL 9
REMARK VINA RESULT:      -4.8      2.832      4.696
REMARK  Name = 
REMARK  10 active torsions:
REMARK  status: ('A' for Active; 'I' for Inactive)
REMARK    1  A    between atoms: N_2  and  C_3
REMARK    2  A    between atoms: C_3  and  N_8
REMARK    3  A    between atoms: C_4  and  N_5
REMARK    4  A    between atoms: N_8  and  C_9
REMARK    5  A    between atoms: C_9  and  C_10
REMARK    6  A    between atoms: C_10  and  S_11
REMARK    7  A    between atoms: S_11  and  C_12
REMARK    8  A    between atoms: C_12  and  C_13
REMARK    9  A    between atoms: C_16  and  C_17
REMARK   10  A    between atoms: C_17  and  N_18
REMARK                            x       y       z     vdW  Elec       q    Type
REMARK                         _______ _______ _______ _____ _____    ______ ____
ROOT
ATOM      1  S   UNL     1     -11.125  14.959  67.348  0.00  0.00    -0.129 S 
ENDROOT
BRANCH   1   2
ATOM      2  C   UNL     1     -11.626  13.227  67.321  0.00  0.00    +0.104 C 
BRANCH   2   3
ATOM      3  C   UNL     1     -11.604  12.790  65.888  0.00  0.00    +0.077 A 
ATOM      4  N   UNL     1     -10.918  11.718  65.491  0.00  0.00    -0.245 NA
ATOM      5  C   UNL     1     -10.641  11.741  64.172  0.00  0.00    +0.104 A 
ATOM      6  S   UNL     1     -12.092  12.436  63.572  0.00  0.00    -0.069 S 
ATOM      7  C   UNL     1     -12.707  13.015  65.068  0.00  0.00    +0.052 A 
BRANCH   5   8
ATOM      8  C   UNL     1      -9.440  11.205  63.458  0.00  0.00    +0.126 C 
BRANCH   8   9
ATOM      9  N   UNL     1      -9.415   9.765  63.437  0.00  0.00    -0.265 NA
ATOM     10  C   UNL     1      -9.082   9.332  62.082  0.00  0.00    +0.090 C 
ATOM     11  C   UNL     1      -8.278   9.357  64.263  0.00  0.00    +0.090 C 
ENDBRANCH   8   9
ENDBRANCH   5   8
ENDBRANCH   2   3
ENDBRANCH   1   2
BRANCH   1  12
ATOM     12  C   UNL     1     -10.104  15.367  68.782  0.00  0.00    +0.113 C 
BRANCH  12  13
ATOM     13  C   UNL     1     -10.703  16.512  69.553  0.00  0.00    +0.263 C 
BRANCH  13  14
ATOM     14  N   UNL     1     -11.935  16.172  70.223  0.00  0.00    -0.027 NA
BRANCH  14  15
ATOM     15  C   UNL     1     -12.065  15.056  71.110  0.00  0.00    +0.424 C 
ATOM     16  C   UNL     1     -13.071  14.223  70.923  0.00  0.00    +0.447 C 
BRANCH  16  17
ATOM     17  N   UNL     1     -13.355  13.160  71.814  0.00  0.00    +0.096 N 
ATOM     18  O   UNL     1     -12.984  11.855  71.590  0.00  0.00    -0.576 OA
ATOM     19  O   UNL     1     -14.283  13.363  72.639  0.00  0.00    +0.042 OA
ENDBRANCH  16  17
BRANCH  15  21
ATOM     20  C   UNL     1     -12.315  16.245  73.247  0.00  0.00    +0.306 C 
ATOM     21  N   UNL     1     -11.602  15.258  72.451  0.00  0.00    -0.023 NA
ENDBRANCH  15  21
ENDBRANCH  14  15
ENDBRANCH  13  14
ENDBRANCH  12  13
ENDBRANCH   1  12
TORSDOF 10
ENDMDL
