MODEL 1
REMARK VINA RESULT:      -5.3      0.000      0.000
REMARK  Name = 
REMARK  5 active torsions:
REMARK  status: ('A' for Active; 'I' for Inactive)
REMARK    1  A    between atoms: O_2  and  C_3
REMARK    2  A    between atoms: C_8  and  O_9
REMARK    3  A    between atoms: O_9  and  C_10
REMARK    4  A    between atoms: C_10  and  C_11
REMARK    5  A    between atoms: C_11  and  C_13
REMARK                            x       y       z     vdW  Elec       q    Type
REMARK                         _______ _______ _______ _____ _____    ______ ____
ROOT
ATOM      1  C   UNL     1     -11.649  15.809  69.132  0.00  0.00    +0.172 A 
ATOM      2  C   UNL     1     -11.506  14.752  68.241  0.00  0.00    +0.172 A 
ATOM      3  C   UNL     1     -11.560  13.507  68.856  0.00  0.00    +0.040 A 
ATOM      4  C   UNL     1     -12.124  13.342  70.096  0.00  0.00    +0.003 A 
ATOM      5  C   UNL     1     -12.593  14.412  70.812  0.00  0.00    +0.003 A 
ATOM      6  C   UNL     1     -12.347  15.670  70.325  0.00  0.00    +0.040 A 
ENDROOT
BRANCH   1   8
ATOM      7  C   UNL     1      -9.984  17.476  68.742  0.00  0.00    +0.253 C 
ATOM      8  O   UNL     1     -11.334  17.078  68.682  0.00  0.00    -0.468 OA
ENDBRANCH   1   8
BRANCH   2   9
ATOM      9  O   UNL     1     -11.544  14.922  66.881  0.00  0.00    -0.470 OA
BRANCH   9  10
ATOM     10  C   UNL     1     -12.223  13.999  66.064  0.00  0.00    +0.241 C 
BRANCH  10  11
ATOM     11  C   UNL     1     -11.405  14.180  64.622  0.00  0.00    +0.228 C 
ATOM     12  O   UNL     1     -12.688  14.599  63.891  0.00  0.00    -0.216 OA
BRANCH  11  13
ATOM     13  C   UNL     1     -11.002  15.764  64.949  0.00  0.00    +0.219 C 
ATOM     14  O   UNL     1     -11.561  16.513  63.941  0.00  0.00    -0.217 OA
ENDBRANCH  11  13
ENDBRANCH  10  11
ENDBRANCH   9  10
ENDBRANCH   2   9
TORSDOF 5
ENDMDL
MODEL 2
REMARK VINA RESULT:      -5.0      1.312      1.469
REMARK  Name = 
REMARK  5 active torsions:
REMARK  status: ('A' for Active; 'I' for Inactive)
REMARK    1  A    between atoms: O_2  and  C_3
REMARK    2  A    between atoms: C_8  and  O_9
REMARK    3  A    between atoms: O_9  and  C_10
REMARK    4  A    between atoms: C_10  and  C_11
REMARK    5  A    between atoms: C_11  and  C_13
REMARK                            x       y       z     vdW  Elec       q    Type
REMARK                         _______ _______ _______ _____ _____    ______ ____
ROOT
ATOM      1  C   UNL     1     -11.801  15.648  69.348  0.00  0.00    +0.172 A 
ATOM      2  C   UNL     1     -11.835  14.500  68.565  0.00  0.00    +0.172 A 
ATOM      3  C   UNL     1     -11.866  13.329  69.312  0.00  0.00    +0.040 A 
ATOM      4  C   UNL     1     -12.262  13.324  70.626  0.00  0.00    +0.003 A 
ATOM      5  C   UNL     1     -12.573  14.489  71.279  0.00  0.00    +0.003 A 
ATOM      6  C   UNL     1     -12.335  15.673  70.631  0.00  0.00    +0.040 A 
ENDROOT
BRANCH   1   8
ATOM      7  C   UNL     1     -10.127  17.192  68.630  0.00  0.00    +0.253 C 
ATOM      8  O   UNL     1     -11.489  16.843  68.727  0.00  0.00    -0.468 OA
ENDBRANCH   1   8
BRANCH   2   9
ATOM      9  O   UNL     1     -12.052  14.536  67.212  0.00  0.00    -0.470 OA
BRANCH   9  10
ATOM     10  C   UNL     1     -11.177  13.875  66.330  0.00  0.00    +0.241 C 
BRANCH  10  11
ATOM     11  C   UNL     1     -12.214  12.794  65.595  0.00  0.00    +0.228 C 
ATOM     12  O   UNL     1     -13.215  13.910  65.260  0.00  0.00    -0.216 OA
BRANCH  11  13
ATOM     13  C   UNL     1     -11.461  12.944  64.116  0.00  0.00    +0.219 C 
ATOM     14  O   UNL     1     -12.454  13.247  63.214  0.00  0.00    -0.217 OA
ENDBRANCH  11  13
ENDBRANCH  10  11
ENDBRANCH   9  10
ENDBRANCH   2   9
TORSDOF 5
ENDMDL
MODEL 3
REMARK VINA RESULT:      -5.0      2.855      5.753
REMARK  Name = 
REMARK  5 active torsions:
REMARK  status: ('A' for Active; 'I' for Inactive)
REMARK    1  A    between atoms: O_2  and  C_3
REMARK    2  A    between atoms: C_8  and  O_9
REMARK    3  A    between atoms: O_9  and  C_10
REMARK    4  A    between atoms: C_10  and  C_11
REMARK    5  A    between atoms: C_11  and  C_13
REMARK                            x       y       z     vdW  Elec       q    Type
REMARK                         _______ _______ _______ _____ _____    ______ ____
ROOT
ATOM      1  C   UNL     1     -11.084  15.850  68.815  0.00  0.00    +0.172 A 
ATOM      2  C   UNL     1     -11.984  15.240  69.680  0.00  0.00    +0.172 A 
ATOM      3  C   UNL     1     -12.118  13.875  69.458  0.00  0.00    +0.040 A 
ATOM      4  C   UNL     1     -11.163  13.160  68.779  0.00  0.00    +0.003 A 
ATOM      5  C   UNL     1     -10.070  13.778  68.229  0.00  0.00    +0.003 A 
ATOM      6  C   UNL     1     -10.031  15.148  68.241  0.00  0.00    +0.040 A 
ENDROOT
BRANCH   1   8
ATOM      7  C   UNL     1     -10.506  17.836  67.622  0.00  0.00    +0.253 C 
ATOM      8  O   UNL     1     -11.080  17.231  68.758  0.00  0.00    -0.468 OA
ENDBRANCH   1   8
BRANCH   2   9
ATOM      9  O   UNL     1     -12.498  15.877  70.780  0.00  0.00    -0.470 OA
BRANCH   9  10
ATOM     10  C   UNL     1     -11.949  15.655  72.057  0.00  0.00    +0.241 C 
BRANCH  10  11
ATOM     11  C   UNL     1     -13.302  15.809  73.022  0.00  0.00    +0.228 C 
ATOM     12  O   UNL     1     -13.612  14.310  72.908  0.00  0.00    -0.216 OA
BRANCH  11  13
ATOM     13  C   UNL     1     -12.433  15.584  74.425  0.00  0.00    +0.219 C 
ATOM     14  O   UNL     1     -12.458  16.791  75.084  0.00  0.00    -0.217 OA
ENDBRANCH  11  13
ENDBRANCH  10  11
ENDBRANCH   9  10
ENDBRANCH   2   9
TORSDOF 5
ENDMDL
MODEL 4
REMARK VINA RESULT:      -4.9      3.918      6.464
REMARK  Name = 
REMARK  5 active torsions:
REMARK  status: ('A' for Active; 'I' for Inactive)
REMARK    1  A    between atoms: O_2  and  C_3
REMARK    2  A    between atoms: C_8  and  O_9
REMARK    3  A    between atoms: O_9  and  C_10
REMARK    4  A    between atoms: C_10  and  C_11
REMARK    5  A    between atoms: C_11  and  C_13
REMARK                            x       y       z     vdW  Elec       q    Type
REMARK                         _______ _______ _______ _____ _____    ______ ____
ROOT
ATOM      1  C   UNL     1     -11.658  11.390  70.026  0.00  0.00    +0.172 A 
ATOM      2  C   UNL     1     -12.540  11.969  70.930  0.00  0.00    +0.172 A 
ATOM      3  C   UNL     1     -13.207  11.037  71.716  0.00  0.00    +0.040 A 
ATOM      4  C   UNL     1     -12.730   9.761  71.881  0.00  0.00    +0.003 A 
ATOM      5  C   UNL     1     -11.610   9.330  71.218  0.00  0.00    +0.003 A 
ATOM      6  C   UNL     1     -11.066  10.156  70.269  0.00  0.00    +0.040 A 
ENDROOT
BRANCH   1   8
ATOM      7  C   UNL     1     -11.643  11.976  67.711  0.00  0.00    +0.253 C 
ATOM      8  O   UNL     1     -11.155  12.188  69.015  0.00  0.00    -0.468 OA
ENDBRANCH   1   8
BRANCH   2   9
ATOM      9  O   UNL     1     -12.567  13.317  71.176  0.00  0.00    -0.470 OA
BRANCH   9  10
ATOM     10  C   UNL     1     -13.397  13.844  72.183  0.00  0.00    +0.241 C 
BRANCH  10  11
ATOM     11  C   UNL     1     -12.826  15.409  72.286  0.00  0.00    +0.228 C 
ATOM     12  O   UNL     1     -14.224  15.947  72.622  0.00  0.00    -0.216 OA
BRANCH  11  13
ATOM     13  C   UNL     1     -12.433  15.251  73.898  0.00  0.00    +0.219 C 
ATOM     14  O   UNL     1     -12.681  16.477  74.469  0.00  0.00    -0.217 OA
ENDBRANCH  11  13
ENDBRANCH  10  11
ENDBRANCH   9  10
ENDBRANCH   2   9
TORSDOF 5
ENDMDL
MODEL 5
REMARK VINA RESULT:      -4.8      1.355      1.931
REMARK  Name = 
REMARK  5 active torsions:
REMARK  status: ('A' for Active; 'I' for Inactive)
REMARK    1  A    between atoms: O_2  and  C_3
REMARK    2  A    between atoms: C_8  and  O_9
REMARK    3  A    between atoms: O_9  and  C_10
REMARK    4  A    between atoms: C_10  and  C_11
REMARK    5  A    between atoms: C_11  and  C_13
REMARK                            x       y       z     vdW  Elec       q    Type
REMARK                         _______ _______ _______ _____ _____    ______ ____
ROOT
ATOM      1  C   UNL     1     -11.711  13.719  69.065  0.00  0.00    +0.172 A 
ATOM      2  C   UNL     1     -11.585  13.018  67.872  0.00  0.00    +0.172 A 
ATOM      3  C   UNL     1     -11.354  11.660  68.057  0.00  0.00    +0.040 A 
ATOM      4  C   UNL     1     -11.657  11.034  69.240  0.00  0.00    +0.003 A 
ATOM      5  C   UNL     1     -12.134  11.739  70.315  0.00  0.00    +0.003 A 
ATOM      6  C   UNL     1     -12.157  13.106  70.229  0.00  0.00    +0.040 A 
ENDROOT
BRANCH   1   8
ATOM      7  C   UNL     1     -12.009  15.813  70.174  0.00  0.00    +0.253 C 
ATOM      8  O   UNL     1     -11.663  15.100  69.009  0.00  0.00    -0.468 OA
ENDBRANCH   1   8
BRANCH   2   9
ATOM      9  O   UNL     1     -11.890  13.570  66.654  0.00  0.00    -0.470 OA
BRANCH   9  10
ATOM     10  C   UNL     1     -11.330  13.050  65.473  0.00  0.00    +0.241 C 
BRANCH  10  11
ATOM     11  C   UNL     1     -12.054  14.015  64.320  0.00  0.00    +0.228 C 
ATOM     12  O   UNL     1     -13.293  14.221  65.202  0.00  0.00    -0.216 OA
BRANCH  11  13
ATOM     13  C   UNL     1     -11.334  15.400  64.903  0.00  0.00    +0.219 C 
ATOM     14  O   UNL     1     -11.602  16.384  63.981  0.00  0.00    -0.217 OA
ENDBRANCH  11  13
ENDBRANCH  10  11
ENDBRANCH   9  10
ENDBRANCH   2   9
TORSDOF 5
ENDMDL
MODEL 6
REMARK VINA RESULT:      -4.8      3.284      4.621
REMARK  Name = 
REMARK  5 active torsions:
REMARK  status: ('A' for Active; 'I' for Inactive)
REMARK    1  A    between atoms: O_2  and  C_3
REMARK    2  A    between atoms: C_8  and  O_9
REMARK    3  A    between atoms: O_9  and  C_10
REMARK    4  A    between atoms: C_10  and  C_11
REMARK    5  A    between atoms: C_11  and  C_13
REMARK                            x       y       z     vdW  Elec       q    Type
REMARK                         _______ _______ _______ _____ _____    ______ ____
ROOT
ATOM      1  C   UNL     1      -8.448  18.469  66.337  0.00  0.00    +0.172 A 
ATOM      2  C   UNL     1      -9.706  17.880  66.298  0.00  0.00    +0.172 A 
ATOM      3  C   UNL     1     -10.601  18.440  67.203  0.00  0.00    +0.040 A 
ATOM      4  C   UNL     1     -10.398  19.688  67.736  0.00  0.00    +0.003 A 
ATOM      5  C   UNL     1      -9.266  20.406  67.452  0.00  0.00    +0.003 A 
ATOM      6  C   UNL     1      -8.269  19.785  66.745  0.00  0.00    +0.040 A 
ENDROOT
BRANCH   1   8
ATOM      7  C   UNL     1      -6.619  16.939  66.453  0.00  0.00    +0.253 C 
ATOM      8  O   UNL     1      -7.412  17.819  65.691  0.00  0.00    -0.468 OA
ENDBRANCH   1   8
BRANCH   2   9
ATOM      9  O   UNL     1     -10.083  17.007  65.310  0.00  0.00    -0.470 OA
BRANCH   9  10
ATOM     10  C   UNL     1     -10.252  15.638  65.593  0.00  0.00    +0.241 C 
BRANCH  10  11
ATOM     11  C   UNL     1     -11.843  15.411  65.146  0.00  0.00    +0.228 C 
ATOM     12  O   UNL     1     -11.674  16.304  63.910  0.00  0.00    -0.216 OA
BRANCH  11  13
ATOM     13  C   UNL     1     -11.493  14.035  64.275  0.00  0.00    +0.219 C 
ATOM     14  O   UNL     1     -12.574  13.820  63.454  0.00  0.00    -0.217 OA
ENDBRANCH  11  13
ENDBRANCH  10  11
ENDBRANCH   9  10
ENDBRANCH   2   9
TORSDOF 5
ENDMDL
MODEL 7
REMARK VINA RESULT:      -4.7      1.861      4.037
REMARK  Name = 
REMARK  5 active torsions:
REMARK  status: ('A' for Active; 'I' for Inactive)
REMARK    1  A    between atoms: O_2  and  C_3
REMARK    2  A    between atoms: C_8  and  O_9
REMARK    3  A    between atoms: O_9  and  C_10
REMARK    4  A    between atoms: C_10  and  C_11
REMARK    5  A    between atoms: C_11  and  C_13
REMARK                            x       y       z     vdW  Elec       q    Type
REMARK                         _______ _______ _______ _____ _____    ______ ____
ROOT
ATOM      1  C   UNL     1      -9.998  17.735  68.053  0.00  0.00    +0.172 A 
ATOM      2  C   UNL     1     -10.249  17.506  66.706  0.00  0.00    +0.172 A 
ATOM      3  C   UNL     1     -10.576  18.661  66.006  0.00  0.00    +0.040 A 
ATOM      4  C   UNL     1     -10.256  19.906  66.485  0.00  0.00    +0.003 A 
ATOM      5  C   UNL     1      -9.663  20.066  67.710  0.00  0.00    +0.003 A 
ATOM      6  C   UNL     1      -9.535  18.963  68.512  0.00  0.00    +0.040 A 
ENDROOT
BRANCH   1   8
ATOM      7  C   UNL     1     -11.122  16.265  69.563  0.00  0.00    +0.253 C 
ATOM      8  O   UNL     1      -9.939  16.639  68.894  0.00  0.00    -0.468 OA
ENDBRANCH   1   8
BRANCH   2   9
ATOM      9  O   UNL     1      -9.971  16.309  66.096  0.00  0.00    -0.470 OA
BRANCH   9  10
ATOM     10  C   UNL     1     -10.820  15.804  65.095  0.00  0.00    +0.241 C 
BRANCH  10  11
ATOM     11  C   UNL     1     -10.711  14.163  65.378  0.00  0.00    +0.228 C 
ATOM     12  O   UNL     1     -11.605  14.269  66.621  0.00  0.00    -0.216 OA
BRANCH  11  13
ATOM     13  C   UNL     1     -12.013  13.819  64.397  0.00  0.00    +0.219 C 
ATOM     14  O   UNL     1     -13.134  14.078  65.150  0.00  0.00    -0.217 OA
ENDBRANCH  11  13
ENDBRANCH  10  11
ENDBRANCH   9  10
ENDBRANCH   2   9
TORSDOF 5
ENDMDL
MODEL 8
REMARK VINA RESULT:      -4.7      3.558      6.176
REMARK  Name = 
REMARK  5 active torsions:
REMARK  status: ('A' for Active; 'I' for Inactive)
REMARK    1  A    between atoms: O_2  and  C_3
REMARK    2  A    between atoms: C_8  and  O_9
REMARK    3  A    between atoms: O_9  and  C_10
REMARK    4  A    between atoms: C_10  and  C_11
REMARK    5  A    between atoms: C_11  and  C_13
REMARK                            x       y       z     vdW  Elec       q    Type
REMARK                         _______ _______ _______ _____ _____    ______ ____
ROOT
ATOM      1  C   UNL     1     -11.676  12.099  69.433  0.00  0.00    +0.172 A 
ATOM      2  C   UNL     1     -11.966  13.432  69.695  0.00  0.00    +0.172 A 
ATOM      3  C   UNL     1     -11.702  14.272  68.620  0.00  0.00    +0.040 A 
ATOM      4  C   UNL     1     -11.595  13.790  67.340  0.00  0.00    +0.003 A 
ATOM      5  C   UNL     1     -11.674  12.447  67.078  0.00  0.00    +0.003 A 
ATOM      6  C   UNL     1     -11.710  11.584  68.142  0.00  0.00    +0.040 A 
ENDROOT
BRANCH   1   8
ATOM      7  C   UNL     1     -12.745  10.382  70.701  0.00  0.00    +0.253 C 
ATOM      8  O   UNL     1     -11.634  11.226  70.503  0.00  0.00    -0.468 OA
ENDBRANCH   1   8
BRANCH   2   9
ATOM      9  O   UNL     1     -12.659  13.832  70.810  0.00  0.00    -0.470 OA
BRANCH   9  10
ATOM     10  C   UNL     1     -12.886  15.198  71.058  0.00  0.00    +0.241 C 
BRANCH  10  11
ATOM     11  C   UNL     1     -14.116  15.121  72.184  0.00  0.00    +0.228 C 
ATOM     12  O   UNL     1     -13.625  13.760  72.697  0.00  0.00    -0.216 OA
BRANCH  11  13
ATOM     13  C   UNL     1     -13.231  15.941  73.334  0.00  0.00    +0.219 C 
ATOM     14  O   UNL     1     -12.428  15.001  73.935  0.00  0.00    -0.217 OA
ENDBRANCH  11  13
ENDBRANCH  10  11
ENDBRANCH   9  10
ENDBRANCH   2   9
TORSDOF 5
ENDMDL
MODEL 9
REMARK VINA RESULT:      -4.6      3.177      3.703
REMARK  Name = 
REMARK  5 active torsions:
REMARK  status: ('A' for Active; 'I' for Inactive)
REMARK    1  A    between atoms: O_2  and  C_3
REMARK    2  A    between atoms: C_8  and  O_9
REMARK    3  A    between atoms: O_9  and  C_10
REMARK    4  A    between atoms: C_10  and  C_11
REMARK    5  A    between atoms: C_11  and  C_13
REMARK                            x       y       z     vdW  Elec       q    Type
REMARK                         _______ _______ _______ _____ _____    ______ ____
ROOT
ATOM      1  C   UNL     1      -9.604  17.499  66.401  0.00  0.00    +0.172 A 
ATOM      2  C   UNL     1      -9.653  16.175  65.983  0.00  0.00    +0.172 A 
ATOM      3  C   UNL     1      -8.641  15.392  66.526  0.00  0.00    +0.040 A 
ATOM      4  C   UNL     1      -7.966  15.773  67.658  0.00  0.00    +0.003 A 
ATOM      5  C   UNL     1      -8.214  16.978  68.261  0.00  0.00    +0.003 A 
ATOM      6  C   UNL     1      -9.043  17.861  67.620  0.00  0.00    +0.040 A 
ENDROOT
BRANCH   1   8
ATOM      7  C   UNL     1     -10.358  19.753  66.172  0.00  0.00    +0.253 C 
ATOM      8  O   UNL     1     -10.378  18.420  65.718  0.00  0.00    -0.468 OA
ENDBRANCH   1   8
BRANCH   2   9
ATOM      9  O   UNL     1     -10.722  15.655  65.300  0.00  0.00    -0.470 OA
BRANCH   9  10
ATOM     10  C   UNL     1     -10.808  14.272  65.052  0.00  0.00    +0.241 C 
BRANCH  10  11
ATOM     11  C   UNL     1     -12.448  14.015  65.220  0.00  0.00    +0.228 C 
ATOM     12  O   UNL     1     -12.712  14.446  63.770  0.00  0.00    -0.216 OA
BRANCH  11  13
ATOM     13  C   UNL     1     -12.329  12.411  64.785  0.00  0.00    +0.219 C 
ATOM     14  O   UNL     1     -13.040  12.282  63.615  0.00  0.00    -0.217 OA
ENDBRANCH  11  13
ENDBRANCH  10  11
ENDBRANCH   9  10
ENDBRANCH   2   9
TORSDOF 5
ENDMDL
