MODEL 1
REMARK VINA RESULT:      -6.8      0.000      0.000
REMARK  Name = 
REMARK  1 active torsions:
REMARK  status: ('A' for Active; 'I' for Inactive)
REMARK    1  A    between atoms: C_2  and  C_4
REMARK                            x       y       z     vdW  Elec       q    Type
REMARK                         _______ _______ _______ _____ _____    ______ ____
ROOT
ATOM      1  C   UNL     1     -11.417  11.749  65.930  0.00  0.00    +0.058 C 
ATOM      2  C   UNL     1     -10.399  12.986  66.189  0.00  0.00    +0.007 C 
ATOM      3  C   UNL     1     -11.464  13.704  67.175  0.00  0.00    +0.000 C 
ATOM      4  C   UNL     1     -10.277  14.742  67.777  0.00  0.00    +0.001 C 
ATOM      5  C   UNL     1     -10.652  15.876  66.584  0.00  0.00    +0.003 C 
ATOM      6  C   UNL     1      -9.685  15.154  65.498  0.00  0.00    +0.000 C 
ATOM      7  C   UNL     1      -9.511  16.914  67.083  0.00  0.00    +0.016 C 
ATOM      8  C   UNL     1      -9.947  17.432  68.399  0.00  0.00    -0.042 C 
ATOM      9  C   UNL     1     -10.102  18.734  68.623  0.00  0.00    +0.029 C 
ATOM     10  C   UNL     1     -10.318  19.693  67.531  0.00  0.00    +0.173 C 
ATOM     11  C   UNL     1     -10.447  19.070  66.176  0.00  0.00    +0.069 C 
ATOM     12  O   UNL     1      -9.704  20.802  67.548  0.00  0.00    -0.291 OA
ATOM     13  C   UNL     1     -10.495  16.522  69.448  0.00  0.00    +0.022 C 
ATOM     14  C   UNL     1      -8.238  16.179  67.282  0.00  0.00    +0.004 C 
ATOM     15  C   UNL     1      -9.406  17.997  66.060  0.00  0.00    +0.012 C 
ATOM     16  C   UNL     1     -11.294  15.404  68.827  0.00  0.00    +0.004 C 
ATOM     17  C   UNL     1     -11.172  12.543  68.263  0.00  0.00    +0.000 C 
ATOM     18  C   UNL     1      -9.225  12.549  66.897  0.00  0.00    +0.000 C 
ATOM     19  C   UNL     1     -10.350  13.884  65.058  0.00  0.00    +0.000 C 
ATOM     20  C   UNL     1     -11.402  11.302  67.503  0.00  0.00    +0.007 C 
ENDROOT
BRANCH   1  22
ATOM     21  C   UNL     1     -10.126  10.495  65.179  0.00  0.00    +0.072 C 
ATOM     22  C   UNL     1     -10.216  10.726  65.586  0.00  0.00    +0.151 C 
ATOM     23  O   UNL     1     -10.282   9.627  66.152  0.00  0.00    -0.296 OA
ENDBRANCH   1  22
TORSDOF 1
ENDMDL
MODEL 2
REMARK VINA RESULT:      -6.7      1.933      3.151
REMARK  Name = 
REMARK  1 active torsions:
REMARK  status: ('A' for Active; 'I' for Inactive)
REMARK    1  A    between atoms: C_2  and  C_4
REMARK                            x       y       z     vdW  Elec       q    Type
REMARK                         _______ _______ _______ _____ _____    ______ ____
ROOT
ATOM      1  C   UNL     1     -10.885  13.495  64.552  0.00  0.00    +0.058 C 
ATOM      2  C   UNL     1     -10.604  14.193  65.990  0.00  0.00    +0.007 C 
ATOM      3  C   UNL     1     -10.247  15.603  65.278  0.00  0.00    +0.000 C 
ATOM      4  C   UNL     1     -10.377  16.429  66.744  0.00  0.00    +0.001 C 
ATOM      5  C   UNL     1      -8.731  16.187  67.034  0.00  0.00    +0.003 C 
ATOM      6  C   UNL     1      -8.991  14.715  67.667  0.00  0.00    +0.000 C 
ATOM      7  C   UNL     1      -8.781  16.940  68.469  0.00  0.00    +0.016 C 
ATOM      8  C   UNL     1      -9.018  18.375  68.194  0.00  0.00    -0.042 C 
ATOM      9  C   UNL     1      -8.185  19.318  68.624  0.00  0.00    +0.029 C 
ATOM     10  C   UNL     1      -6.787  19.026  68.967  0.00  0.00    +0.173 C 
ATOM     11  C   UNL     1      -6.365  17.616  68.697  0.00  0.00    +0.069 C 
ATOM     12  O   UNL     1      -6.284  19.540  70.012  0.00  0.00    -0.291 OA
ATOM     13  C   UNL     1     -10.040  18.814  67.198  0.00  0.00    +0.022 C 
ATOM     14  C   UNL     1      -9.935  16.428  69.248  0.00  0.00    +0.004 C 
ATOM     15  C   UNL     1      -7.470  16.708  69.147  0.00  0.00    +0.012 C 
ATOM     16  C   UNL     1     -10.116  17.849  66.042  0.00  0.00    +0.004 C 
ATOM     17  C   UNL     1     -11.815  15.763  64.911  0.00  0.00    +0.000 C 
ATOM     18  C   UNL     1     -11.811  14.278  66.768  0.00  0.00    +0.000 C 
ATOM     19  C   UNL     1      -9.335  13.782  66.545  0.00  0.00    +0.000 C 
ATOM     20  C   UNL     1     -12.129  14.502  64.216  0.00  0.00    +0.007 C 
ENDROOT
BRANCH   1  22
ATOM     21  C   UNL     1     -11.872  11.925  65.155  0.00  0.00    +0.072 C 
ATOM     22  C   UNL     1     -11.887  12.401  65.188  0.00  0.00    +0.151 C 
ATOM     23  O   UNL     1     -13.015  12.362  64.678  0.00  0.00    -0.296 OA
ENDBRANCH   1  22
TORSDOF 1
ENDMDL
MODEL 3
REMARK VINA RESULT:      -6.7      1.916      6.607
REMARK  Name = 
REMARK  1 active torsions:
REMARK  status: ('A' for Active; 'I' for Inactive)
REMARK    1  A    between atoms: C_2  and  C_4
REMARK                            x       y       z     vdW  Elec       q    Type
REMARK                         _______ _______ _______ _____ _____    ______ ____
ROOT
ATOM      1  C   UNL     1      -6.778  19.267  67.861  0.00  0.00    +0.058 C 
ATOM      2  C   UNL     1      -7.845  18.323  67.085  0.00  0.00    +0.007 C 
ATOM      3  C   UNL     1      -8.451  17.790  68.489  0.00  0.00    +0.000 C 
ATOM      4  C   UNL     1      -9.812  17.161  67.716  0.00  0.00    +0.001 C 
ATOM      5  C   UNL     1      -9.026  15.680  67.520  0.00  0.00    +0.003 C 
ATOM      6  C   UNL     1      -8.294  16.172  66.158  0.00  0.00    +0.000 C 
ATOM      7  C   UNL     1     -10.282  15.013  66.741  0.00  0.00    +0.016 C 
ATOM      8  C   UNL     1     -11.369  14.857  67.733  0.00  0.00    -0.042 C 
ATOM      9  C   UNL     1     -11.923  13.674  67.986  0.00  0.00    +0.029 C 
ATOM     10  C   UNL     1     -11.232  12.411  67.693  0.00  0.00    +0.173 C 
ATOM     11  C   UNL     1      -9.833  12.574  67.185  0.00  0.00    +0.069 C 
ATOM     12  O   UNL     1     -11.880  11.457  67.165  0.00  0.00    -0.291 OA
ATOM     13  C   UNL     1     -11.711  15.952  68.688  0.00  0.00    +0.022 C 
ATOM     14  C   UNL     1     -10.754  15.947  65.690  0.00  0.00    +0.004 C 
ATOM     15  C   UNL     1      -9.829  13.699  66.194  0.00  0.00    +0.012 C 
ATOM     16  C   UNL     1     -10.474  16.707  69.106  0.00  0.00    +0.004 C 
ATOM     17  C   UNL     1      -9.104  19.253  68.711  0.00  0.00    +0.000 C 
ATOM     18  C   UNL     1      -8.801  19.114  66.356  0.00  0.00    +0.000 C 
ATOM     19  C   UNL     1      -7.216  17.144  66.536  0.00  0.00    +0.000 C 
ATOM     20  C   UNL     1      -7.955  20.163  68.558  0.00  0.00    +0.007 C 
ENDROOT
BRANCH   1  22
ATOM     21  C   UNL     1      -6.298  20.384  66.335  0.00  0.00    +0.072 C 
ATOM     22  C   UNL     1      -6.668  20.299  66.624  0.00  0.00    +0.151 C 
ATOM     23  O   UNL     1      -6.649  21.497  66.938  0.00  0.00    -0.296 OA
ENDBRANCH   1  22
TORSDOF 1
ENDMDL
MODEL 4
REMARK VINA RESULT:      -6.7      1.673      2.838
REMARK  Name = 
REMARK  1 active torsions:
REMARK  status: ('A' for Active; 'I' for Inactive)
REMARK    1  A    between atoms: C_2  and  C_4
REMARK                            x       y       z     vdW  Elec       q    Type
REMARK                         _______ _______ _______ _____ _____    ______ ____
ROOT
ATOM      1  C   UNL     1     -10.388  12.405  67.147  0.00  0.00    +0.058 C 
ATOM      2  C   UNL     1     -10.265  13.866  67.843  0.00  0.00    +0.007 C 
ATOM      3  C   UNL     1     -10.162  14.587  66.398  0.00  0.00    +0.000 C 
ATOM      4  C   UNL     1     -10.467  16.100  67.079  0.00  0.00    +0.001 C 
ATOM      5  C   UNL     1      -8.810  16.346  67.294  0.00  0.00    +0.003 C 
ATOM      6  C   UNL     1      -8.806  15.544  68.705  0.00  0.00    +0.000 C 
ATOM      7  C   UNL     1      -9.023  17.796  67.987  0.00  0.00    +0.016 C 
ATOM      8  C   UNL     1      -9.515  18.709  66.931  0.00  0.00    -0.042 C 
ATOM      9  C   UNL     1      -8.878  19.836  66.625  0.00  0.00    +0.029 C 
ATOM     10  C   UNL     1      -7.456  20.036  66.936  0.00  0.00    +0.173 C 
ATOM     11  C   UNL     1      -6.777  18.840  67.526  0.00  0.00    +0.069 C 
ATOM     12  O   UNL     1      -7.074  21.150  67.408  0.00  0.00    -0.291 OA
ATOM     13  C   UNL     1     -10.583  18.288  65.977  0.00  0.00    +0.022 C 
ATOM     14  C   UNL     1     -10.076  17.690  69.025  0.00  0.00    +0.004 C 
ATOM     15  C   UNL     1      -7.704  18.233  68.536  0.00  0.00    +0.012 C 
ATOM     16  C   UNL     1     -10.460  16.822  65.645  0.00  0.00    +0.004 C 
ATOM     17  C   UNL     1     -11.725  14.243  66.163  0.00  0.00    +0.000 C 
ATOM     18  C   UNL     1     -11.481  14.215  68.529  0.00  0.00    +0.000 C 
ATOM     19  C   UNL     1      -8.952  14.081  68.406  0.00  0.00    +0.000 C 
ATOM     20  C   UNL     1     -11.790  12.790  66.399  0.00  0.00    +0.007 C 
ENDROOT
BRANCH   1  22
ATOM     21  C   UNL     1     -11.047  11.437  68.707  0.00  0.00    +0.072 C 
ATOM     22  C   UNL     1     -11.183  11.782  68.406  0.00  0.00    +0.151 C 
ATOM     23  O   UNL     1     -12.166  11.087  68.116  0.00  0.00    -0.296 OA
ENDBRANCH   1  22
TORSDOF 1
ENDMDL
MODEL 5
REMARK VINA RESULT:      -6.4      2.174      3.121
REMARK  Name = 
REMARK  1 active torsions:
REMARK  status: ('A' for Active; 'I' for Inactive)
REMARK    1  A    between atoms: C_2  and  C_4
REMARK                            x       y       z     vdW  Elec       q    Type
REMARK                         _______ _______ _______ _____ _____    ______ ____
ROOT
ATOM      1  C   UNL     1     -11.680  14.459  67.052  0.00  0.00    +0.058 C 
ATOM      2  C   UNL     1     -10.181  15.052  67.234  0.00  0.00    +0.007 C 
ATOM      3  C   UNL     1     -10.762  16.536  67.516  0.00  0.00    +0.000 C 
ATOM      4  C   UNL     1      -9.274  17.054  68.122  0.00  0.00    +0.001 C 
ATOM      5  C   UNL     1      -8.811  17.554  66.578  0.00  0.00    +0.003 C 
ATOM      6  C   UNL     1      -8.300  16.067  66.176  0.00  0.00    +0.000 C 
ATOM      7  C   UNL     1      -7.349  18.047  67.077  0.00  0.00    +0.016 C 
ATOM      8  C   UNL     1      -7.564  19.238  67.929  0.00  0.00    -0.042 C 
ATOM      9  C   UNL     1      -6.985  20.405  67.660  0.00  0.00    +0.029 C 
ATOM     10  C   UNL     1      -6.501  20.744  66.315  0.00  0.00    +0.173 C 
ATOM     11  C   UNL     1      -6.803  19.716  65.271  0.00  0.00    +0.069 C 
ATOM     12  O   UNL     1      -5.376  21.317  66.187  0.00  0.00    -0.291 OA
ATOM     13  C   UNL     1      -8.642  19.269  68.960  0.00  0.00    +0.022 C 
ATOM     14  C   UNL     1      -6.740  16.988  67.920  0.00  0.00    +0.004 C 
ATOM     15  C   UNL     1      -6.539  18.364  65.863  0.00  0.00    +0.012 C 
ATOM     16  C   UNL     1      -9.855  18.503  68.495  0.00  0.00    +0.004 C 
ATOM     17  C   UNL     1     -11.297  16.007  68.948  0.00  0.00    +0.000 C 
ATOM     18  C   UNL     1      -9.543  14.497  68.399  0.00  0.00    +0.000 C 
ATOM     19  C   UNL     1      -9.509  15.204  65.964  0.00  0.00    +0.000 C 
ATOM     20  C   UNL     1     -12.097  14.822  68.591  0.00  0.00    +0.007 C 
ENDROOT
BRANCH   1  22
ATOM     21  C   UNL     1     -11.170  12.583  67.207  0.00  0.00    +0.072 C 
ATOM     22  C   UNL     1     -11.231  12.969  67.481  0.00  0.00    +0.151 C 
ATOM     23  O   UNL     1     -12.073  12.331  68.127  0.00  0.00    -0.296 OA
ENDBRANCH   1  22
TORSDOF 1
ENDMDL
MODEL 6
REMARK VINA RESULT:      -6.3      1.083      6.528
REMARK  Name = 
REMARK  1 active torsions:
REMARK  status: ('A' for Active; 'I' for Inactive)
REMARK    1  A    between atoms: C_2  and  C_4
REMARK                            x       y       z     vdW  Elec       q    Type
REMARK                         _______ _______ _______ _____ _____    ______ ____
ROOT
ATOM      1  C   UNL     1      -9.225  18.392  66.483  0.00  0.00    +0.058 C 
ATOM      2  C   UNL     1      -9.991  16.990  66.768  0.00  0.00    +0.007 C 
ATOM      3  C   UNL     1      -8.585  16.189  66.812  0.00  0.00    +0.000 C 
ATOM      4  C   UNL     1      -9.319  14.846  67.522  0.00  0.00    +0.001 C 
ATOM      5  C   UNL     1      -9.617  14.191  65.994  0.00  0.00    +0.003 C 
ATOM      6  C   UNL     1     -10.989  15.041  65.824  0.00  0.00    +0.000 C 
ATOM      7  C   UNL     1     -10.364  12.886  66.599  0.00  0.00    +0.016 C 
ATOM      8  C   UNL     1      -9.330  12.075  67.280  0.00  0.00    -0.042 C 
ATOM      9  C   UNL     1      -9.103  10.807  66.950  0.00  0.00    +0.029 C 
ATOM     10  C   UNL     1      -9.484  10.262  65.639  0.00  0.00    +0.173 C 
ATOM     11  C   UNL     1     -10.049  11.272  64.690  0.00  0.00    +0.069 C 
ATOM     12  O   UNL     1     -10.022   9.115  65.576  0.00  0.00    -0.291 OA
ATOM     13  C   UNL     1      -8.312  12.707  68.171  0.00  0.00    +0.022 C 
ATOM     14  C   UNL     1     -11.349  13.318  67.620  0.00  0.00    +0.004 C 
ATOM     15  C   UNL     1     -10.989  12.153  65.457  0.00  0.00    +0.012 C 
ATOM     16  C   UNL     1      -7.920  14.070  67.660  0.00  0.00    +0.004 C 
ATOM     17  C   UNL     1      -8.267  16.913  68.223  0.00  0.00    +0.000 C 
ATOM     18  C   UNL     1     -10.638  17.005  68.053  0.00  0.00    +0.000 C 
ATOM     19  C   UNL     1     -10.619  16.473  65.574  0.00  0.00    +0.000 C 
ATOM     20  C   UNL     1      -8.434  18.343  67.914  0.00  0.00    +0.007 C 
ENDROOT
BRANCH   1  22
ATOM     21  C   UNL     1     -10.687  19.606  66.923  0.00  0.00    +0.072 C 
ATOM     22  C   UNL     1     -10.419  19.268  67.126  0.00  0.00    +0.151 C 
ATOM     23  O   UNL     1     -10.064  20.108  67.964  0.00  0.00    -0.296 OA
ENDBRANCH   1  22
TORSDOF 1
ENDMDL
MODEL 7
REMARK VINA RESULT:      -6.3      3.576      5.447
REMARK  Name = 
REMARK  1 active torsions:
REMARK  status: ('A' for Active; 'I' for Inactive)
REMARK    1  A    between atoms: C_2  and  C_4
REMARK                            x       y       z     vdW  Elec       q    Type
REMARK                         _______ _______ _______ _____ _____    ______ ____
ROOT
ATOM      1  C   UNL     1     -10.502   7.350  70.022  0.00  0.00    +0.058 C 
ATOM      2  C   UNL     1     -10.022   8.634  69.154  0.00  0.00    +0.007 C 
ATOM      3  C   UNL     1     -11.345   9.463  69.579  0.00  0.00    +0.000 C 
ATOM      4  C   UNL     1     -10.662  10.913  69.052  0.00  0.00    +0.001 C 
ATOM      5  C   UNL     1     -11.329  10.680  67.519  0.00  0.00    +0.003 C 
ATOM      6  C   UNL     1     -10.087   9.748  67.047  0.00  0.00    +0.000 C 
ATOM      7  C   UNL     1     -10.680  12.044  66.929  0.00  0.00    +0.016 C 
ATOM      8  C   UNL     1     -11.372  13.171  67.593  0.00  0.00    -0.042 C 
ATOM      9  C   UNL     1     -12.003  14.114  66.897  0.00  0.00    +0.029 C 
ATOM     10  C   UNL     1     -12.467  13.888  65.521  0.00  0.00    +0.173 C 
ATOM     11  C   UNL     1     -12.259  12.494  65.018  0.00  0.00    +0.069 C 
ATOM     12  O   UNL     1     -12.297  14.797  64.653  0.00  0.00    -0.291 OA
ATOM     13  C   UNL     1     -11.633  13.164  69.062  0.00  0.00    +0.022 C 
ATOM     14  C   UNL     1      -9.247  12.104  67.306  0.00  0.00    +0.004 C 
ATOM     15  C   UNL     1     -10.896  12.045  65.451  0.00  0.00    +0.012 C 
ATOM     16  C   UNL     1     -11.926  11.768  69.551  0.00  0.00    +0.004 C 
ATOM     17  C   UNL     1     -10.738   9.580  71.074  0.00  0.00    +0.000 C 
ATOM     18  C   UNL     1      -8.827   9.213  69.707  0.00  0.00    +0.000 C 
ATOM     19  C   UNL     1     -10.214   8.423  67.738  0.00  0.00    +0.000 C 
ATOM     20  C   UNL     1     -10.447   8.180  71.430  0.00  0.00    +0.007 C 
ENDROOT
BRANCH   1  22
ATOM     21  C   UNL     1      -8.788   6.419  70.066  0.00  0.00    +0.072 C 
ATOM     22  C   UNL     1      -8.991   6.820  70.228  0.00  0.00    +0.151 C 
ATOM     23  O   UNL     1      -8.714   6.452  71.377  0.00  0.00    -0.296 OA
ENDBRANCH   1  22
TORSDOF 1
ENDMDL
MODEL 8
REMARK VINA RESULT:      -6.3      1.978      6.215
REMARK  Name = 
REMARK  1 active torsions:
REMARK  status: ('A' for Active; 'I' for Inactive)
REMARK    1  A    between atoms: C_2  and  C_4
REMARK                            x       y       z     vdW  Elec       q    Type
REMARK                         _______ _______ _______ _____ _____    ______ ____
ROOT
ATOM      1  C   UNL     1      -6.821  17.695  67.423  0.00  0.00    +0.058 C 
ATOM      2  C   UNL     1      -8.307  17.043  67.467  0.00  0.00    +0.007 C 
ATOM      3  C   UNL     1      -7.736  15.618  66.954  0.00  0.00    +0.000 C 
ATOM      4  C   UNL     1      -9.161  14.834  67.403  0.00  0.00    +0.001 C 
ATOM      5  C   UNL     1      -9.804  15.104  65.865  0.00  0.00    +0.003 C 
ATOM      6  C   UNL     1     -10.317  16.590  66.267  0.00  0.00    +0.000 C 
ATOM      7  C   UNL     1     -11.214  14.393  66.230  0.00  0.00    +0.016 C 
ATOM      8  C   UNL     1     -10.938  12.948  66.393  0.00  0.00    -0.042 C 
ATOM      9  C   UNL     1     -11.573  12.027  65.672  0.00  0.00    +0.029 C 
ATOM     10  C   UNL     1     -12.210  12.345  64.388  0.00  0.00    +0.173 C 
ATOM     11  C   UNL     1     -11.997  13.752  63.923  0.00  0.00    +0.069 C 
ATOM     12  O   UNL     1     -13.356  11.868  64.128  0.00  0.00    -0.291 OA
ATOM     13  C   UNL     1      -9.754  12.467  67.165  0.00  0.00    +0.022 C 
ATOM     14  C   UNL     1     -11.700  14.913  67.531  0.00  0.00    +0.004 C 
ATOM     15  C   UNL     1     -12.160  14.659  65.105  0.00  0.00    +0.012 C 
ATOM     16  C   UNL     1      -8.580  13.396  66.986  0.00  0.00    +0.004 C 
ATOM     17  C   UNL     1      -7.034  15.429  68.398  0.00  0.00    +0.000 C 
ATOM     18  C   UNL     1      -8.798  16.968  68.817  0.00  0.00    +0.000 C 
ATOM     19  C   UNL     1      -9.117  17.486  66.356  0.00  0.00    +0.000 C 
ATOM     20  C   UNL     1      -6.248  16.665  68.556  0.00  0.00    +0.007 C 
ENDROOT
BRANCH   1  22
ATOM     21  C   UNL     1      -7.189  19.272  68.511  0.00  0.00    +0.072 C 
ATOM     22  C   UNL     1      -7.182  18.796  68.548  0.00  0.00    +0.151 C 
ATOM     23  O   UNL     1      -6.348  18.915  69.454  0.00  0.00    -0.296 OA
ENDBRANCH   1  22
TORSDOF 1
ENDMDL
MODEL 9
REMARK VINA RESULT:      -6.2      1.895      6.668
REMARK  Name = 
REMARK  1 active torsions:
REMARK  status: ('A' for Active; 'I' for Inactive)
REMARK    1  A    between atoms: C_2  and  C_4
REMARK                            x       y       z     vdW  Elec       q    Type
REMARK                         _______ _______ _______ _____ _____    ______ ____
ROOT
ATOM      1  C   UNL     1      -7.394  19.187  66.233  0.00  0.00    +0.058 C 
ATOM      2  C   UNL     1      -8.324  18.248  67.175  0.00  0.00    +0.007 C 
ATOM      3  C   UNL     1      -7.628  16.909  66.589  0.00  0.00    +0.000 C 
ATOM      4  C   UNL     1      -8.262  15.975  67.844  0.00  0.00    +0.001 C 
ATOM      5  C   UNL     1      -9.632  15.642  66.914  0.00  0.00    +0.003 C 
ATOM      6  C   UNL     1     -10.358  17.020  67.370  0.00  0.00    +0.000 C 
ATOM      7  C   UNL     1     -10.321  14.756  68.083  0.00  0.00    +0.016 C 
ATOM      8  C   UNL     1      -9.516  13.521  68.220  0.00  0.00    -0.042 C 
ATOM      9  C   UNL     1     -10.056  12.313  68.086  0.00  0.00    +0.029 C 
ATOM     10  C   UNL     1     -11.313  12.098  67.355  0.00  0.00    +0.173 C 
ATOM     11  C   UNL     1     -11.867  13.325  66.701  0.00  0.00    +0.069 C 
ATOM     12  O   UNL     1     -12.185  11.314  67.839  0.00  0.00    -0.291 OA
ATOM     13  C   UNL     1      -8.024  13.567  68.240  0.00  0.00    +0.022 C 
ATOM     14  C   UNL     1     -10.241  15.496  69.366  0.00  0.00    +0.004 C 
ATOM     15  C   UNL     1     -11.725  14.466  67.663  0.00  0.00    +0.012 C 
ATOM     16  C   UNL     1      -7.506  14.654  67.332  0.00  0.00    +0.004 C 
ATOM     17  C   UNL     1      -6.285  17.305  67.400  0.00  0.00    +0.000 C 
ATOM     18  C   UNL     1      -8.016  18.445  68.566  0.00  0.00    +0.000 C 
ATOM     19  C   UNL     1      -9.675  18.157  66.671  0.00  0.00    +0.000 C 
ATOM     20  C   UNL     1      -6.015  18.682  66.952  0.00  0.00    +0.007 C 
ENDROOT
BRANCH   1  22
ATOM     21  C   UNL     1      -7.819  20.806  67.235  0.00  0.00    +0.072 C 
ATOM     22  C   UNL     1      -7.506  20.446  67.238  0.00  0.00    +0.151 C 
ATOM     23  O   UNL     1      -6.600  21.284  67.136  0.00  0.00    -0.296 OA
ENDBRANCH   1  22
TORSDOF 1
ENDMDL
