MODEL 1
REMARK VINA RESULT:      -8.8      0.000      0.000
REMARK  Name = 
REMARK  6 active torsions:
REMARK  status: ('A' for Active; 'I' for Inactive)
REMARK    1  A    between atoms: C_7  and  C_8
REMARK    2  A    between atoms: C_8  and  S_9
REMARK    3  A    between atoms: C_16  and  C_17
REMARK    4  A    between atoms: C_20  and  C_21
REMARK    5  A    between atoms: C_25  and  C_26
REMARK    6  A    between atoms: C_26  and  S_27
REMARK                            x       y       z     vdW  Elec       q    Type
REMARK                         _______ _______ _______ _____ _____    ______ ____
ROOT
ATOM      1  C   UNL     1      -9.915  14.395  67.141  0.00  0.00    -0.000 A 
ATOM      2  C   UNL     1     -10.704  15.585  66.682  0.00  0.00    -0.000 A 
ATOM      3  C   UNL     1      -9.995  16.825  66.223  0.00  0.00    -0.000 A 
ATOM      4  C   UNL     1      -8.496  16.874  66.222  0.00  0.00    -0.000 A 
ATOM      5  C   UNL     1      -7.706  15.684  66.681  0.00  0.00    -0.000 A 
ATOM      6  C   UNL     1      -8.416  14.444  67.141  0.00  0.00    -0.000 A 
ENDROOT
BRANCH   1  12
ATOM      7  C   UNL     1     -10.886  13.609  68.480  0.00  0.00    +0.001 C 
ATOM      8  C   UNL     1     -11.615  13.387  69.772  0.00  0.00    +0.012 C 
ATOM      9  C   UNL     1     -12.126  13.801  71.121  0.00  0.00    +0.075 C 
ATOM     10  C   UNL     1     -11.350  14.263  69.922  0.00  0.00    +0.170 C 
ATOM     11  C   UNL     1     -11.300  13.131  68.939  0.00  0.00    +0.012 C 
ATOM     12  C   UNL     1     -10.624  13.156  67.600  0.00  0.00    -0.001 C 
ATOM     13  O   UNL     1     -10.733  15.618  69.739  0.00  0.00    -0.292 OA
ATOM     14  C   UNL     1     -12.870  12.640  71.711  0.00  0.00    +0.009 C 
ATOM     15  C   UNL     1     -12.819  11.509  70.728  0.00  0.00    +0.005 C 
ATOM     16  C   UNL     1     -12.044  11.970  69.529  0.00  0.00    +0.026 C 
ATOM     17  C   UNL     1     -10.933  14.671  69.403  0.00  0.00    +0.001 C 
BRANCH   9  18
ATOM     18  C   UNL     1     -11.926  15.141  71.765  0.00  0.00    +0.133 C 
BRANCH  18  19
ATOM     19  S   UNL     1     -12.991  15.710  72.655  0.00  0.00    -0.107 S 
ATOM     20  O   UNL     1     -14.057  16.279  73.544  0.00  0.00    -0.291 OA
ATOM     21  O   UNL     1     -12.098  15.525  73.845  0.00  0.00    -0.371 OA
ATOM     22  O   UNL     1     -13.885  15.895  71.464  0.00  0.00    -0.371 OA
ENDBRANCH  18  19
ENDBRANCH   9  18
ENDBRANCH   1  12
BRANCH   4  23
ATOM     23  C   UNL     1      -7.787  18.113  65.764  0.00  0.00    -0.001 C 
ATOM     24  C   UNL     1      -7.063  18.975  66.756  0.00  0.00    +0.012 C 
ATOM     25  C   UNL     1      -6.313  20.237  66.446  0.00  0.00    +0.026 C 
ATOM     26  C   UNL     1      -6.715  19.303  67.550  0.00  0.00    +0.012 C 
ATOM     27  C   UNL     1      -6.151  19.834  68.835  0.00  0.00    +0.075 C 
ATOM     28  C   UNL     1      -5.401  21.095  68.526  0.00  0.00    +0.009 C 
ATOM     29  C   UNL     1      -7.393  18.086  68.106  0.00  0.00    +0.001 C 
ATOM     30  C   UNL     1      -7.487  18.319  66.721  0.00  0.00    +0.001 C 
ATOM     31  C   UNL     1      -5.501  21.345  67.050  0.00  0.00    +0.005 C 
ATOM     32  C   UNL     1      -6.963  18.726  68.232  0.00  0.00    +0.170 C 
ATOM     33  O   UNL     1      -7.569  17.571  68.974  0.00  0.00    -0.292 OA
BRANCH  27  34
ATOM     34  C   UNL     1      -6.310  19.211  70.190  0.00  0.00    +0.133 C 
BRANCH  34  35
ATOM     35  S   UNL     1      -5.265  19.434  71.244  0.00  0.00    -0.107 S 
ATOM     36  O   UNL     1      -4.221  19.657  72.297  0.00  0.00    -0.291 OA
ATOM     37  O   UNL     1      -4.456  18.304  70.681  0.00  0.00    -0.371 OA
ATOM     38  O   UNL     1      -6.075  20.565  71.807  0.00  0.00    -0.371 OA
ENDBRANCH  34  35
ENDBRANCH  27  34
ENDBRANCH   4  23
TORSDOF 6
ENDMDL
MODEL 2
REMARK VINA RESULT:      -8.8      0.045      7.909
REMARK  Name = 
REMARK  6 active torsions:
REMARK  status: ('A' for Active; 'I' for Inactive)
REMARK    1  A    between atoms: C_7  and  C_8
REMARK    2  A    between atoms: C_8  and  S_9
REMARK    3  A    between atoms: C_16  and  C_17
REMARK    4  A    between atoms: C_20  and  C_21
REMARK    5  A    between atoms: C_25  and  C_26
REMARK    6  A    between atoms: C_26  and  S_27
REMARK                            x       y       z     vdW  Elec       q    Type
REMARK                         _______ _______ _______ _____ _____    ______ ____
ROOT
ATOM      1  C   UNL     1      -8.497  16.877  66.204  0.00  0.00    -0.000 A 
ATOM      2  C   UNL     1      -7.697  15.709  66.701  0.00  0.00    -0.000 A 
ATOM      3  C   UNL     1      -8.395  14.461  67.158  0.00  0.00    -0.000 A 
ATOM      4  C   UNL     1      -9.892  14.382  67.118  0.00  0.00    -0.000 A 
ATOM      5  C   UNL     1     -10.692  15.550  66.622  0.00  0.00    -0.000 A 
ATOM      6  C   UNL     1      -9.994  16.797  66.165  0.00  0.00    -0.000 A 
ENDROOT
BRANCH   1  12
ATOM      7  C   UNL     1      -7.501  18.330  66.705  0.00  0.00    +0.001 C 
ATOM      8  C   UNL     1      -6.737  19.319  67.535  0.00  0.00    +0.012 C 
ATOM      9  C   UNL     1      -6.176  19.851  68.820  0.00  0.00    +0.075 C 
ATOM     10  C   UNL     1      -6.979  18.737  68.216  0.00  0.00    +0.170 C 
ATOM     11  C   UNL     1      -7.084  18.989  66.741  0.00  0.00    +0.012 C 
ATOM     12  C   UNL     1      -7.800  18.123  65.747  0.00  0.00    -0.001 C 
ATOM     13  O   UNL     1      -7.573  17.575  68.956  0.00  0.00    -0.292 OA
ATOM     14  C   UNL     1      -5.439  21.120  68.513  0.00  0.00    +0.009 C 
ATOM     15  C   UNL     1      -5.543  21.372  67.038  0.00  0.00    +0.005 C 
ATOM     16  C   UNL     1      -6.346  20.259  66.433  0.00  0.00    +0.026 C 
ATOM     17  C   UNL     1      -7.403  18.094  68.089  0.00  0.00    +0.001 C 
BRANCH   9  18
ATOM     18  C   UNL     1      -6.327  19.224  70.175  0.00  0.00    +0.133 C 
BRANCH  18  19
ATOM     19  S   UNL     1      -5.273  19.436  71.220  0.00  0.00    -0.107 S 
ATOM     20  O   UNL     1      -4.218  19.649  72.266  0.00  0.00    -0.291 OA
ATOM     21  O   UNL     1      -4.493  18.279  70.670  0.00  0.00    -0.371 OA
ATOM     22  O   UNL     1      -6.052  20.594  71.770  0.00  0.00    -0.371 OA
ENDBRANCH  18  19
ENDBRANCH   9  18
ENDBRANCH   1  12
BRANCH   4  23
ATOM     23  C   UNL     1     -10.589  13.136  67.575  0.00  0.00    -0.001 C 
ATOM     24  C   UNL     1     -11.269  13.103  68.912  0.00  0.00    +0.012 C 
ATOM     25  C   UNL     1     -12.002  11.934  69.500  0.00  0.00    +0.026 C 
ATOM     26  C   UNL     1     -11.590  13.355  69.744  0.00  0.00    +0.012 C 
ATOM     27  C   UNL     1     -12.109  13.764  71.091  0.00  0.00    +0.075 C 
ATOM     28  C   UNL     1     -12.842  12.596  71.680  0.00  0.00    +0.009 C 
ATOM     29  C   UNL     1     -10.921  14.647  69.378  0.00  0.00    +0.001 C 
ATOM     30  C   UNL     1     -10.859  13.586  68.455  0.00  0.00    +0.001 C 
ATOM     31  C   UNL     1     -12.776  11.464  70.696  0.00  0.00    +0.005 C 
ATOM     32  C   UNL     1     -11.334  14.234  69.895  0.00  0.00    +0.170 C 
ATOM     33  O   UNL     1     -10.732  15.596  69.714  0.00  0.00    -0.292 OA
BRANCH  27  34
ATOM     34  C   UNL     1     -11.926  15.106  71.736  0.00  0.00    +0.133 C 
BRANCH  34  35
ATOM     35  S   UNL     1     -13.002  15.666  72.619  0.00  0.00    -0.107 S 
ATOM     36  O   UNL     1     -14.079  16.225  73.501  0.00  0.00    -0.291 OA
ATOM     37  O   UNL     1     -12.117  15.483  73.816  0.00  0.00    -0.371 OA
ATOM     38  O   UNL     1     -13.888  15.849  71.422  0.00  0.00    -0.371 OA
ENDBRANCH  34  35
ENDBRANCH  27  34
ENDBRANCH   4  23
TORSDOF 6
ENDMDL
MODEL 3
REMARK VINA RESULT:      -8.2      7.087     10.358
REMARK  Name = 
REMARK  6 active torsions:
REMARK  status: ('A' for Active; 'I' for Inactive)
REMARK    1  A    between atoms: C_7  and  C_8
REMARK    2  A    between atoms: C_8  and  S_9
REMARK    3  A    between atoms: C_16  and  C_17
REMARK    4  A    between atoms: C_20  and  C_21
REMARK    5  A    between atoms: C_25  and  C_26
REMARK    6  A    between atoms: C_26  and  S_27
REMARK                            x       y       z     vdW  Elec       q    Type
REMARK                         _______ _______ _______ _____ _____    ______ ____
ROOT
ATOM      1  C   UNL     1     -10.604   7.083  71.097  0.00  0.00    -0.000 A 
ATOM      2  C   UNL     1      -9.518   8.108  70.950  0.00  0.00    -0.000 A 
ATOM      3  C   UNL     1      -9.869   9.541  70.681  0.00  0.00    -0.000 A 
ATOM      4  C   UNL     1     -11.307   9.951  70.557  0.00  0.00    -0.000 A 
ATOM      5  C   UNL     1     -12.393   8.926  70.703  0.00  0.00    -0.000 A 
ATOM      6  C   UNL     1     -12.042   7.493  70.973  0.00  0.00    -0.000 A 
ENDROOT
BRANCH   1  12
ATOM      7  C   UNL     1     -10.157   5.466  70.363  0.00  0.00    +0.001 C 
ATOM      8  C   UNL     1      -9.835   4.390  69.368  0.00  0.00    +0.012 C 
ATOM      9  C   UNL     1      -9.630   3.853  67.983  0.00  0.00    +0.075 C 
ATOM     10  C   UNL     1      -9.982   5.082  68.768  0.00  0.00    +0.170 C 
ATOM     11  C   UNL     1      -9.961   4.722  70.225  0.00  0.00    +0.012 C 
ATOM     12  C   UNL     1     -10.253   5.651  71.366  0.00  0.00    -0.001 C 
ATOM     13  O   UNL     1     -10.297   6.434  68.198  0.00  0.00    -0.292 OA
ATOM     14  C   UNL     1      -9.267   2.403  68.096  0.00  0.00    +0.009 C 
ATOM     15  C   UNL     1      -9.247   2.043  69.553  0.00  0.00    +0.005 C 
ATOM     16  C   UNL     1      -9.598   3.271  70.339  0.00  0.00    +0.026 C 
ATOM     17  C   UNL     1     -10.176   5.803  68.997  0.00  0.00    +0.001 C 
BRANCH   9  18
ATOM     18  C   UNL     1      -9.766   4.631  66.707  0.00  0.00    +0.133 C 
BRANCH  18  19
ATOM     19  S   UNL     1      -8.928   4.270  65.517  0.00  0.00    -0.107 S 
ATOM     20  O   UNL     1      -8.090   3.907  64.326  0.00  0.00    -0.291 OA
ATOM     21  O   UNL     1      -7.720   4.852  66.188  0.00  0.00    -0.371 OA
ATOM     22  O   UNL     1     -10.136   3.687  64.844  0.00  0.00    -0.371 OA
ENDBRANCH  18  19
ENDBRANCH   9  18
ENDBRANCH   1  12
BRANCH   4  23
ATOM     23  C   UNL     1     -11.658  11.383  70.288  0.00  0.00    -0.001 C 
ATOM     24  C   UNL     1     -11.634  11.910  68.884  0.00  0.00    +0.012 C 
ATOM     25  C   UNL     1     -11.959  13.313  68.463  0.00  0.00    +0.026 C 
ATOM     26  C   UNL     1     -11.539  11.962  67.963  0.00  0.00    +0.012 C 
ATOM     27  C   UNL     1     -11.386  12.046  66.473  0.00  0.00    +0.075 C 
ATOM     28  C   UNL     1     -11.711  13.448  66.052  0.00  0.00    +0.009 C 
ATOM     29  C   UNL     1     -11.172  10.517  68.130  0.00  0.00    +0.001 C 
ATOM     30  C   UNL     1     -11.505  11.252  69.284  0.00  0.00    +0.001 C 
ATOM     31  C   UNL     1     -12.065  14.231  67.281  0.00  0.00    +0.005 C 
ATOM     32  C   UNL     1     -11.279  11.127  67.654  0.00  0.00    +0.170 C 
ATOM     33  O   UNL     1     -10.888   9.679  67.613  0.00  0.00    -0.292 OA
BRANCH  27  34
ATOM     34  C   UNL     1     -10.979  10.924  65.564  0.00  0.00    +0.133 C 
BRANCH  34  35
ATOM     35  S   UNL     1     -10.274  11.222  64.275  0.00  0.00    -0.107 S 
ATOM     36  O   UNL     1      -9.569  11.521  62.984  0.00  0.00    -0.291 OA
ATOM     37  O   UNL     1      -8.950  11.070  64.962  0.00  0.00    -0.371 OA
ATOM     38  O   UNL     1     -11.599  11.375  63.587  0.00  0.00    -0.371 OA
ENDBRANCH  34  35
ENDBRANCH  27  34
ENDBRANCH   4  23
TORSDOF 6
ENDMDL
MODEL 4
REMARK VINA RESULT:      -8.2      7.092     11.721
REMARK  Name = 
REMARK  6 active torsions:
REMARK  status: ('A' for Active; 'I' for Inactive)
REMARK    1  A    between atoms: C_7  and  C_8
REMARK    2  A    between atoms: C_8  and  S_9
REMARK    3  A    between atoms: C_16  and  C_17
REMARK    4  A    between atoms: C_20  and  C_21
REMARK    5  A    between atoms: C_25  and  C_26
REMARK    6  A    between atoms: C_26  and  S_27
REMARK                            x       y       z     vdW  Elec       q    Type
REMARK                         _______ _______ _______ _____ _____    ______ ____
ROOT
ATOM      1  C   UNL     1     -11.302   9.955  70.537  0.00  0.00    -0.000 A 
ATOM      2  C   UNL     1     -12.394   8.937  70.683  0.00  0.00    -0.000 A 
ATOM      3  C   UNL     1     -12.050   7.500  70.945  0.00  0.00    -0.000 A 
ATOM      4  C   UNL     1     -10.615   7.081  71.060  0.00  0.00    -0.000 A 
ATOM      5  C   UNL     1      -9.523   8.099  70.914  0.00  0.00    -0.000 A 
ATOM      6  C   UNL     1      -9.866   9.536  70.652  0.00  0.00    -0.000 A 
ENDROOT
BRANCH   1  12
ATOM      7  C   UNL     1     -11.501  11.262  69.270  0.00  0.00    +0.001 C 
ATOM      8  C   UNL     1     -11.542  11.977  67.951  0.00  0.00    +0.012 C 
ATOM      9  C   UNL     1     -11.402  12.065  66.461  0.00  0.00    +0.075 C 
ATOM     10  C   UNL     1     -11.291  11.141  67.638  0.00  0.00    +0.170 C 
ATOM     11  C   UNL     1     -11.629  11.923  68.873  0.00  0.00    +0.012 C 
ATOM     12  C   UNL     1     -11.645  11.391  70.275  0.00  0.00    -0.001 C 
ATOM     13  O   UNL     1     -10.911   9.691  67.588  0.00  0.00    -0.292 OA
ATOM     14  C   UNL     1     -11.720  13.471  66.047  0.00  0.00    +0.009 C 
ATOM     15  C   UNL     1     -12.058  14.253  67.282  0.00  0.00    +0.005 C 
ATOM     16  C   UNL     1     -11.948  13.329  68.460  0.00  0.00    +0.026 C 
ATOM     17  C   UNL     1     -11.185  10.529  68.110  0.00  0.00    +0.001 C 
BRANCH   9  18
ATOM     18  C   UNL     1     -11.011  10.943  65.544  0.00  0.00    +0.133 C 
BRANCH  18  19
ATOM     19  S   UNL     1     -10.308  11.241  64.253  0.00  0.00    -0.107 S 
ATOM     20  O   UNL     1      -9.604  11.539  62.962  0.00  0.00    -0.291 OA
ATOM     21  O   UNL     1     -11.632  11.386  63.564  0.00  0.00    -0.371 OA
ATOM     22  O   UNL     1      -8.983  11.096  64.942  0.00  0.00    -0.371 OA
ENDBRANCH  18  19
ENDBRANCH   9  18
ENDBRANCH   1  12
BRANCH   4  23
ATOM     23  C   UNL     1     -10.272   5.645  71.321  0.00  0.00    -0.001 C 
ATOM     24  C   UNL     1      -9.976   4.724  70.175  0.00  0.00    +0.012 C 
ATOM     25  C   UNL     1      -9.620   3.270  70.281  0.00  0.00    +0.026 C 
ATOM     26  C   UNL     1      -9.846   4.397  69.317  0.00  0.00    +0.012 C 
ATOM     27  C   UNL     1      -9.635   3.869  67.929  0.00  0.00    +0.075 C 
ATOM     28  C   UNL     1      -9.278   2.416  68.035  0.00  0.00    +0.009 C 
ATOM     29  C   UNL     1     -10.178   5.814  68.953  0.00  0.00    +0.001 C 
ATOM     30  C   UNL     1     -10.170   5.467  70.318  0.00  0.00    +0.001 C 
ATOM     31  C   UNL     1      -9.269   2.046  69.488  0.00  0.00    +0.005 C 
ATOM     32  C   UNL     1      -9.985   5.094  68.721  0.00  0.00    +0.170 C 
ATOM     33  O   UNL     1     -10.292   6.451  68.159  0.00  0.00    -0.292 OA
BRANCH  27  34
ATOM     34  C   UNL     1      -9.758   4.657  66.658  0.00  0.00    +0.133 C 
BRANCH  34  35
ATOM     35  S   UNL     1      -8.959   4.263  65.452  0.00  0.00    -0.107 S 
ATOM     36  O   UNL     1      -8.158   3.869  64.245  0.00  0.00    -0.291 OA
ATOM     37  O   UNL     1     -10.190   3.679  64.825  0.00  0.00    -0.371 OA
ATOM     38  O   UNL     1      -7.727   4.847  66.078  0.00  0.00    -0.371 OA
ENDBRANCH  34  35
ENDBRANCH  27  34
ENDBRANCH   4  23
TORSDOF 6
ENDMDL
MODEL 5
REMARK VINA RESULT:      -8.1      6.956     10.496
REMARK  Name = 
REMARK  6 active torsions:
REMARK  status: ('A' for Active; 'I' for Inactive)
REMARK    1  A    between atoms: C_7  and  C_8
REMARK    2  A    between atoms: C_8  and  S_9
REMARK    3  A    between atoms: C_16  and  C_17
REMARK    4  A    between atoms: C_20  and  C_21
REMARK    5  A    between atoms: C_25  and  C_26
REMARK    6  A    between atoms: C_26  and  S_27
REMARK                            x       y       z     vdW  Elec       q    Type
REMARK                         _______ _______ _______ _____ _____    ______ ____
ROOT
ATOM      1  C   UNL     1     -10.814   6.272  71.531  0.00  0.00    -0.000 A 
ATOM      2  C   UNL     1     -12.250   6.619  71.271  0.00  0.00    -0.000 A 
ATOM      3  C   UNL     1     -12.697   8.051  71.315  0.00  0.00    -0.000 A 
ATOM      4  C   UNL     1     -11.707   9.136  71.619  0.00  0.00    -0.000 A 
ATOM      5  C   UNL     1     -10.271   8.789  71.879  0.00  0.00    -0.000 A 
ATOM      6  C   UNL     1      -9.824   7.357  71.836  0.00  0.00    -0.000 A 
ENDROOT
BRANCH   1  12
ATOM      7  C   UNL     1     -10.185   4.909  70.482  0.00  0.00    +0.001 C 
ATOM      8  C   UNL     1      -9.705   4.127  69.296  0.00  0.00    +0.012 C 
ATOM      9  C   UNL     1      -9.358   3.952  67.847  0.00  0.00    +0.075 C 
ATOM     10  C   UNL     1      -9.864   4.932  68.864  0.00  0.00    +0.170 C 
ATOM     11  C   UNL     1      -9.919   4.235  70.191  0.00  0.00    +0.012 C 
ATOM     12  C   UNL     1     -10.368   4.842  71.488  0.00  0.00    -0.001 C 
ATOM     13  O   UNL     1     -10.246   6.359  68.601  0.00  0.00    -0.292 OA
ATOM     14  C   UNL     1      -8.887   2.542  67.649  0.00  0.00    +0.009 C 
ATOM     15  C   UNL     1      -8.943   1.845  68.976  0.00  0.00    +0.005 C 
ATOM     16  C   UNL     1      -9.448   2.824  69.994  0.00  0.00    +0.026 C 
ATOM     17  C   UNL     1     -10.132   5.564  69.237  0.00  0.00    +0.001 C 
BRANCH   9  18
ATOM     18  C   UNL     1      -9.463   5.004  66.782  0.00  0.00    +0.133 C 
BRANCH  18  19
ATOM     19  S   UNL     1      -9.276   4.633  65.341  0.00  0.00    -0.107 S 
ATOM     20  O   UNL     1      -9.087   4.262  63.900  0.00  0.00    -0.291 OA
ATOM     21  O   UNL     1     -10.731   4.285  65.240  0.00  0.00    -0.371 OA
ATOM     22  O   UNL     1      -7.820   4.981  65.442  0.00  0.00    -0.371 OA
ENDBRANCH  18  19
ENDBRANCH   9  18
ENDBRANCH   1  12
BRANCH   4  23
ATOM     23  C   UNL     1     -12.153  10.566  71.662  0.00  0.00    -0.001 C 
ATOM     24  C   UNL     1     -11.983  11.443  70.457  0.00  0.00    +0.012 C 
ATOM     25  C   UNL     1     -12.380  12.886  70.352  0.00  0.00    +0.026 C 
ATOM     26  C   UNL     1     -11.766  11.739  69.605  0.00  0.00    +0.012 C 
ATOM     27  C   UNL     1     -11.414  12.217  68.228  0.00  0.00    +0.075 C 
ATOM     28  C   UNL     1     -11.811  13.660  68.123  0.00  0.00    +0.009 C 
ATOM     29  C   UNL     1     -11.289  10.323  69.463  0.00  0.00    +0.001 C 
ATOM     30  C   UNL     1     -11.849  10.711  70.695  0.00  0.00    +0.001 C 
ATOM     31  C   UNL     1     -12.407  14.073  69.436  0.00  0.00    +0.005 C 
ATOM     32  C   UNL     1     -11.387  11.029  69.144  0.00  0.00    +0.170 C 
ATOM     33  O   UNL     1     -10.855   9.667  68.806  0.00  0.00    -0.292 OA
BRANCH  27  34
ATOM     34  C   UNL     1     -10.778  11.396  67.145  0.00  0.00    +0.133 C 
BRANCH  34  35
ATOM     35  S   UNL     1     -10.558  11.991  65.786  0.00  0.00    -0.107 S 
ATOM     36  O   UNL     1     -10.336  12.586  64.426  0.00  0.00    -0.291 OA
ATOM     37  O   UNL     1     -11.992  11.727  65.436  0.00  0.00    -0.371 OA
ATOM     38  O   UNL     1      -9.123  12.255  66.135  0.00  0.00    -0.371 OA
ENDBRANCH  34  35
ENDBRANCH  27  34
ENDBRANCH   4  23
TORSDOF 6
ENDMDL
MODEL 6
REMARK VINA RESULT:      -8.1      5.930      9.259
REMARK  Name = 
REMARK  6 active torsions:
REMARK  status: ('A' for Active; 'I' for Inactive)
REMARK    1  A    between atoms: C_7  and  C_8
REMARK    2  A    between atoms: C_8  and  S_9
REMARK    3  A    between atoms: C_16  and  C_17
REMARK    4  A    between atoms: C_20  and  C_21
REMARK    5  A    between atoms: C_25  and  C_26
REMARK    6  A    between atoms: C_26  and  S_27
REMARK                            x       y       z     vdW  Elec       q    Type
REMARK                         _______ _______ _______ _____ _____    ______ ____
ROOT
ATOM      1  C   UNL     1     -10.517  12.605  64.401  0.00  0.00    -0.000 A 
ATOM      2  C   UNL     1      -9.497  13.183  65.337  0.00  0.00    -0.000 A 
ATOM      3  C   UNL     1      -9.936  13.840  66.613  0.00  0.00    -0.000 A 
ATOM      4  C   UNL     1     -11.395  13.919  66.952  0.00  0.00    -0.000 A 
ATOM      5  C   UNL     1     -12.415  13.340  66.016  0.00  0.00    -0.000 A 
ATOM      6  C   UNL     1     -11.976  12.683  64.740  0.00  0.00    -0.000 A 
ENDROOT
BRANCH   1  12
ATOM      7  C   UNL     1      -9.794  11.106  63.635  0.00  0.00    +0.001 C 
ATOM      8  C   UNL     1      -9.203   9.739  63.456  0.00  0.00    +0.012 C 
ATOM      9  C   UNL     1      -8.714   8.407  63.943  0.00  0.00    +0.075 C 
ATOM     10  C   UNL     1      -9.313   9.713  64.376  0.00  0.00    +0.170 C 
ATOM     11  C   UNL     1      -9.506  10.562  63.155  0.00  0.00    +0.012 C 
ATOM     12  C   UNL     1     -10.078  11.949  63.127  0.00  0.00    -0.001 C 
ATOM     13  O   UNL     1      -9.658  10.101  65.784  0.00  0.00    -0.292 OA
ATOM     14  C   UNL     1      -8.235   7.627  62.756  0.00  0.00    +0.009 C 
ATOM     15  C   UNL     1      -8.428   8.476  61.534  0.00  0.00    +0.005 C 
ATOM     16  C   UNL     1      -9.027   9.782  61.967  0.00  0.00    +0.026 C 
ATOM     17  C   UNL     1      -9.613  10.309  64.782  0.00  0.00    +0.001 C 
BRANCH   9  18
ATOM     18  C   UNL     1      -8.706   7.939  65.368  0.00  0.00    +0.133 C 
BRANCH  18  19
ATOM     19  S   UNL     1      -7.770   6.847  65.792  0.00  0.00    -0.107 S 
ATOM     20  O   UNL     1      -6.832   5.754  66.216  0.00  0.00    -0.291 OA
ATOM     21  O   UNL     1      -8.889   5.853  65.709  0.00  0.00    -0.371 OA
ATOM     22  O   UNL     1      -6.649   7.841  65.875  0.00  0.00    -0.371 OA
ENDBRANCH  18  19
ENDBRANCH   9  18
ENDBRANCH   1  12
BRANCH   4  23
ATOM     23  C   UNL     1     -11.834  14.575  68.227  0.00  0.00    -0.001 C 
ATOM     24  C   UNL     1     -12.197  13.736  69.416  0.00  0.00    +0.012 C 
ATOM     25  C   UNL     1     -12.651  14.249  70.751  0.00  0.00    +0.026 C 
ATOM     26  C   UNL     1     -12.354  13.006  69.965  0.00  0.00    +0.012 C 
ATOM     27  C   UNL     1     -12.608  11.824  70.853  0.00  0.00    +0.075 C 
ATOM     28  C   UNL     1     -13.062  12.336  72.188  0.00  0.00    +0.009 C 
ATOM     29  C   UNL     1     -11.928  12.257  68.737  0.00  0.00    +0.001 C 
ATOM     30  C   UNL     1     -11.953  13.663  68.678  0.00  0.00    +0.001 C 
ATOM     31  C   UNL     1     -13.089  13.834  72.125  0.00  0.00    +0.005 C 
ATOM     32  C   UNL     1     -12.170  12.238  69.479  0.00  0.00    +0.170 C 
ATOM     33  O   UNL     1     -11.775  11.315  68.364  0.00  0.00    -0.292 OA
BRANCH  27  34
ATOM     34  C   UNL     1     -12.437  10.383  70.473  0.00  0.00    +0.133 C 
BRANCH  34  35
ATOM     35  S   UNL     1     -12.261   9.342  71.539  0.00  0.00    -0.107 S 
ATOM     36  O   UNL     1     -12.083   8.302  72.605  0.00  0.00    -0.291 OA
ATOM     37  O   UNL     1     -13.746   9.145  71.594  0.00  0.00    -0.371 OA
ATOM     38  O   UNL     1     -10.775   9.540  71.484  0.00  0.00    -0.371 OA
ENDBRANCH  34  35
ENDBRANCH  27  34
ENDBRANCH   4  23
TORSDOF 6
ENDMDL
MODEL 7
REMARK VINA RESULT:      -8.1      7.304      9.373
REMARK  Name = 
REMARK  6 active torsions:
REMARK  status: ('A' for Active; 'I' for Inactive)
REMARK    1  A    between atoms: C_7  and  C_8
REMARK    2  A    between atoms: C_8  and  S_9
REMARK    3  A    between atoms: C_16  and  C_17
REMARK    4  A    between atoms: C_20  and  C_21
REMARK    5  A    between atoms: C_25  and  C_26
REMARK    6  A    between atoms: C_26  and  S_27
REMARK                            x       y       z     vdW  Elec       q    Type
REMARK                         _______ _______ _______ _____ _____    ______ ____
ROOT
ATOM      1  C   UNL     1      -8.435   5.555  68.406  0.00  0.00    -0.000 A 
ATOM      2  C   UNL     1      -9.198   5.148  67.180  0.00  0.00    -0.000 A 
ATOM      3  C   UNL     1      -9.032   5.917  65.902  0.00  0.00    -0.000 A 
ATOM      4  C   UNL     1      -8.103   7.093  65.850  0.00  0.00    -0.000 A 
ATOM      5  C   UNL     1      -7.340   7.501  67.076  0.00  0.00    -0.000 A 
ATOM      6  C   UNL     1      -7.506   6.732  68.354  0.00  0.00    -0.000 A 
ENDROOT
BRANCH   1  12
ATOM      7  C   UNL     1      -9.428   5.339  69.929  0.00  0.00    +0.001 C 
ATOM      8  C   UNL     1     -10.482   5.513  70.982  0.00  0.00    +0.012 C 
ATOM      9  C   UNL     1     -11.698   6.157  71.579  0.00  0.00    +0.075 C 
ATOM     10  C   UNL     1     -10.766   6.178  70.403  0.00  0.00    +0.170 C 
ATOM     11  C   UNL     1      -9.730   5.115  70.614  0.00  0.00    +0.012 C 
ATOM     12  C   UNL     1      -8.601   4.787  69.682  0.00  0.00    -0.001 C 
ATOM     13  O   UNL     1     -10.855   7.101  69.224  0.00  0.00    -0.292 OA
ATOM     14  C   UNL     1     -11.990   5.479  72.884  0.00  0.00    +0.009 C 
ATOM     15  C   UNL     1     -10.953   4.415  73.095  0.00  0.00    +0.005 C 
ATOM     16  C   UNL     1     -10.021   4.436  71.920  0.00  0.00    +0.026 C 
ATOM     17  C   UNL     1     -10.401   6.337  69.731  0.00  0.00    +0.001 C 
BRANCH   9  18
ATOM     18  C   UNL     1     -12.485   7.283  70.974  0.00  0.00    +0.133 C 
BRANCH  18  19
ATOM     19  S   UNL     1     -13.414   8.091  71.831  0.00  0.00    -0.107 S 
ATOM     20  O   UNL     1     -14.343   8.900  72.687  0.00  0.00    -0.291 OA
ATOM     21  O   UNL     1     -12.256   8.915  72.311  0.00  0.00    -0.371 OA
ATOM     22  O   UNL     1     -14.572   7.268  71.351  0.00  0.00    -0.371 OA
ENDBRANCH  18  19
ENDBRANCH   9  18
ENDBRANCH   1  12
BRANCH   4  23
ATOM     23  C   UNL     1      -7.937   7.861  64.574  0.00  0.00    -0.001 C 
ATOM     24  C   UNL     1      -8.728   9.116  64.344  0.00  0.00    +0.012 C 
ATOM     25  C   UNL     1      -8.668   9.985  63.123  0.00  0.00    +0.026 C 
ATOM     26  C   UNL     1      -9.316   9.822  64.466  0.00  0.00    +0.012 C 
ATOM     27  C   UNL     1     -10.268  10.964  64.664  0.00  0.00    +0.075 C 
ATOM     28  C   UNL     1     -10.209  11.833  63.443  0.00  0.00    +0.009 C 
ATOM     29  C   UNL     1      -9.552   9.125  65.774  0.00  0.00    +0.001 C 
ATOM     30  C   UNL     1      -8.624   8.557  64.880  0.00  0.00    +0.001 C 
ATOM     31  C   UNL     1      -9.220  11.228  62.491  0.00  0.00    +0.005 C 
ATOM     32  C   UNL     1      -9.717   9.720  65.297  0.00  0.00    +0.170 C 
ATOM     33  O   UNL     1     -10.089   9.177  66.645  0.00  0.00    -0.292 OA
BRANCH  27  34
ATOM     34  C   UNL     1     -11.129  11.195  65.871  0.00  0.00    +0.133 C 
BRANCH  34  35
ATOM     35  S   UNL     1     -11.545  12.589  66.237  0.00  0.00    -0.107 S 
ATOM     36  O   UNL     1     -11.961  13.983  66.604  0.00  0.00    -0.291 OA
ATOM     37  O   UNL     1     -12.739  12.471  65.337  0.00  0.00    -0.371 OA
ATOM     38  O   UNL     1     -10.351  12.708  67.138  0.00  0.00    -0.371 OA
ENDBRANCH  34  35
ENDBRANCH  27  34
ENDBRANCH   4  23
TORSDOF 6
ENDMDL
MODEL 8
REMARK VINA RESULT:      -8.1      8.020     12.589
REMARK  Name = 
REMARK  6 active torsions:
REMARK  status: ('A' for Active; 'I' for Inactive)
REMARK    1  A    between atoms: C_7  and  C_8
REMARK    2  A    between atoms: C_8  and  S_9
REMARK    3  A    between atoms: C_16  and  C_17
REMARK    4  A    between atoms: C_20  and  C_21
REMARK    5  A    between atoms: C_25  and  C_26
REMARK    6  A    between atoms: C_26  and  S_27
REMARK                            x       y       z     vdW  Elec       q    Type
REMARK                         _______ _______ _______ _____ _____    ______ ____
ROOT
ATOM      1  C   UNL     1      -9.494   7.625  67.103  0.00  0.00    -0.000 A 
ATOM      2  C   UNL     1      -8.684   7.982  68.314  0.00  0.00    -0.000 A 
ATOM      3  C   UNL     1      -9.146   7.560  69.678  0.00  0.00    -0.000 A 
ATOM      4  C   UNL     1     -10.418   6.780  69.831  0.00  0.00    -0.000 A 
ATOM      5  C   UNL     1     -11.228   6.423  68.620  0.00  0.00    -0.000 A 
ATOM      6  C   UNL     1     -10.766   6.845  67.256  0.00  0.00    -0.000 A 
ENDROOT
BRANCH   1  12
ATOM      7  C   UNL     1      -9.566   8.919  65.809  0.00  0.00    +0.001 C 
ATOM      8  C   UNL     1      -9.903  10.179  65.068  0.00  0.00    +0.012 C 
ATOM      9  C   UNL     1     -10.580  11.508  64.907  0.00  0.00    +0.075 C 
ATOM     10  C   UNL     1     -10.395  10.345  65.837  0.00  0.00    +0.170 C 
ATOM     11  C   UNL     1      -9.485   9.357  65.168  0.00  0.00    +0.012 C 
ATOM     12  C   UNL     1      -9.032   8.047  65.741  0.00  0.00    -0.001 C 
ATOM     13  O   UNL     1     -11.011  10.196  67.196  0.00  0.00    -0.292 OA
ATOM     14  C   UNL     1     -10.203  12.060  63.565  0.00  0.00    +0.009 C 
ATOM     15  C   UNL     1      -9.294  11.073  62.896  0.00  0.00    +0.005 C 
ATOM     16  C   UNL     1      -9.108   9.909  63.825  0.00  0.00    +0.026 C 
ATOM     17  C   UNL     1     -10.419   9.846  66.437  0.00  0.00    +0.001 C 
BRANCH   9  18
ATOM     18  C   UNL     1     -11.476  12.168  65.913  0.00  0.00    +0.133 C 
BRANCH  18  19
ATOM     19  S   UNL     1     -12.350  13.315  65.499  0.00  0.00    -0.107 S 
ATOM     20  O   UNL     1     -13.223  14.463  65.085  0.00  0.00    -0.291 OA
ATOM     21  O   UNL     1     -13.226  12.371  64.730  0.00  0.00    -0.371 OA
ATOM     22  O   UNL     1     -11.473  14.259  66.268  0.00  0.00    -0.371 OA
ENDBRANCH  18  19
ENDBRANCH   9  18
ENDBRANCH   1  12
BRANCH   4  23
ATOM     23  C   UNL     1     -10.880   6.358  71.193  0.00  0.00    -0.001 C 
ATOM     24  C   UNL     1     -10.511   5.005  71.725  0.00  0.00    +0.012 C 
ATOM     25  C   UNL     1     -10.898   4.447  73.062  0.00  0.00    +0.026 C 
ATOM     26  C   UNL     1     -10.151   4.153  71.795  0.00  0.00    +0.012 C 
ATOM     27  C   UNL     1      -9.570   2.775  71.908  0.00  0.00    +0.075 C 
ATOM     28  C   UNL     1      -9.957   2.217  73.245  0.00  0.00    +0.009 C 
ATOM     29  C   UNL     1      -9.642   4.482  70.422  0.00  0.00    +0.001 C 
ATOM     30  C   UNL     1     -10.413   5.452  71.092  0.00  0.00    +0.001 C 
ATOM     31  C   UNL     1     -10.777   3.250  73.959  0.00  0.00    +0.005 C 
ATOM     32  C   UNL     1      -9.690   3.972  71.011  0.00  0.00    +0.170 C 
ATOM     33  O   UNL     1      -9.094   4.110  69.641  0.00  0.00    -0.292 OA
BRANCH  27  34
ATOM     34  C   UNL     1      -8.746   2.078  70.866  0.00  0.00    +0.133 C 
BRANCH  34  35
ATOM     35  S   UNL     1      -8.627   0.582  70.882  0.00  0.00    -0.107 S 
ATOM     36  O   UNL     1      -8.510  -0.913  70.898  0.00  0.00    -0.291 OA
ATOM     37  O   UNL     1      -7.295   0.694  71.561  0.00  0.00    -0.371 OA
ATOM     38  O   UNL     1      -9.961   0.471  70.203  0.00  0.00    -0.371 OA
ENDBRANCH  34  35
ENDBRANCH  27  34
ENDBRANCH   4  23
TORSDOF 6
ENDMDL
MODEL 9
REMARK VINA RESULT:      -8.0      7.335     11.372
REMARK  Name = 
REMARK  6 active torsions:
REMARK  status: ('A' for Active; 'I' for Inactive)
REMARK    1  A    between atoms: C_7  and  C_8
REMARK    2  A    between atoms: C_8  and  S_9
REMARK    3  A    between atoms: C_16  and  C_17
REMARK    4  A    between atoms: C_20  and  C_21
REMARK    5  A    between atoms: C_25  and  C_26
REMARK    6  A    between atoms: C_26  and  S_27
REMARK                            x       y       z     vdW  Elec       q    Type
REMARK                         _______ _______ _______ _____ _____    ______ ____
ROOT
ATOM      1  C   UNL     1      -8.188   6.851  65.718  0.00  0.00    -0.000 A 
ATOM      2  C   UNL     1      -9.198   5.742  65.774  0.00  0.00    -0.000 A 
ATOM      3  C   UNL     1      -9.407   4.982  67.050  0.00  0.00    -0.000 A 
ATOM      4  C   UNL     1      -8.607   5.329  68.270  0.00  0.00    -0.000 A 
ATOM      5  C   UNL     1      -7.597   6.437  68.214  0.00  0.00    -0.000 A 
ATOM      6  C   UNL     1      -7.388   7.198  66.938  0.00  0.00    -0.000 A 
ENDROOT
BRANCH   1  12
ATOM      7  C   UNL     1      -8.617   8.349  64.755  0.00  0.00    +0.001 C 
ATOM      8  C   UNL     1      -9.227   9.658  64.349  0.00  0.00    +0.012 C 
ATOM      9  C   UNL     1     -10.101  10.859  64.556  0.00  0.00    +0.075 C 
ATOM     10  C   UNL     1      -9.629   9.580  65.182  0.00  0.00    +0.170 C 
ATOM     11  C   UNL     1      -8.687   8.915  64.222  0.00  0.00    +0.012 C 
ATOM     12  C   UNL     1      -7.980   7.611  64.443  0.00  0.00    -0.001 C 
ATOM     13  O   UNL     1     -10.029   9.058  66.530  0.00  0.00    -0.292 OA
ATOM     14  C   UNL     1      -9.991  11.727  63.338  0.00  0.00    +0.009 C 
ATOM     15  C   UNL     1      -9.049  11.062  62.378  0.00  0.00    +0.005 C 
ATOM     16  C   UNL     1      -8.577   9.783  63.003  0.00  0.00    +0.026 C 
ATOM     17  C   UNL     1      -9.501   8.973  65.656  0.00  0.00    +0.001 C 
BRANCH   9  18
ATOM     18  C   UNL     1     -10.938  11.143  65.768  0.00  0.00    +0.133 C 
BRANCH  18  19
ATOM     19  S   UNL     1     -11.372  12.547  66.067  0.00  0.00    -0.107 S 
ATOM     20  O   UNL     1     -11.807  13.952  66.366  0.00  0.00    -0.291 OA
ATOM     21  O   UNL     1     -10.084  12.791  66.796  0.00  0.00    -0.371 OA
ATOM     22  O   UNL     1     -12.660  12.303  65.338  0.00  0.00    -0.371 OA
ENDBRANCH  18  19
ENDBRANCH   9  18
ENDBRANCH   1  12
BRANCH   4  23
ATOM     23  C   UNL     1      -8.816   4.569  69.545  0.00  0.00    -0.001 C 
ATOM     24  C   UNL     1      -9.865   5.013  70.520  0.00  0.00    +0.012 C 
ATOM     25  C   UNL     1     -10.187   4.356  71.830  0.00  0.00    +0.026 C 
ATOM     26  C   UNL     1     -10.552   5.491  70.920  0.00  0.00    +0.012 C 
ATOM     27  C   UNL     1     -11.663   6.265  71.566  0.00  0.00    +0.075 C 
ATOM     28  C   UNL     1     -11.985   5.608  72.875  0.00  0.00    +0.009 C 
ATOM     29  C   UNL     1     -10.420   6.317  69.674  0.00  0.00    +0.001 C 
ATOM     30  C   UNL     1      -9.563   5.209  69.827  0.00  0.00    +0.001 C 
ATOM     31  C   UNL     1     -11.073   4.428  73.038  0.00  0.00    +0.005 C 
ATOM     32  C   UNL     1     -10.777   6.193  70.357  0.00  0.00    +0.170 C 
ATOM     33  O   UNL     1     -10.800   7.135  69.190  0.00  0.00    -0.292 OA
BRANCH  27  34
ATOM     34  C   UNL     1     -12.334   7.482  71.001  0.00  0.00    +0.133 C 
BRANCH  34  35
ATOM     35  S   UNL     1     -13.460   8.132  71.749  0.00  0.00    -0.107 S 
ATOM     36  O   UNL     1     -14.585   8.783  72.498  0.00  0.00    -0.291 OA
ATOM     37  O   UNL     1     -14.430   7.175  71.124  0.00  0.00    -0.371 OA
ATOM     38  O   UNL     1     -12.489   9.090  72.375  0.00  0.00    -0.371 OA
ENDBRANCH  34  35
ENDBRANCH  27  34
ENDBRANCH   4  23
TORSDOF 6
ENDMDL
