MODEL 1
REMARK VINA RESULT:      -4.8      0.000      0.000
REMARK  Name = 
REMARK  12 active torsions:
REMARK  status: ('A' for Active; 'I' for Inactive)
REMARK    1  A    between atoms: C_2  and  C_3
REMARK    2  A    between atoms: C_3  and  C_4
REMARK    3  A    between atoms: C_4  and  C_5
REMARK    4  A    between atoms: C_5  and  C_6
REMARK    5  A    between atoms: C_6  and  C_7
REMARK    6  A    between atoms: C_7  and  C_8
REMARK    7  A    between atoms: C_8  and  C_9
REMARK    8  A    between atoms: C_9  and  C_10
REMARK    9  A    between atoms: C_10  and  C_11
REMARK   10  A    between atoms: C_11  and  C_12
REMARK   11  A    between atoms: C_12  and  O_13
REMARK   12  A    between atoms: O_13  and  S_14
REMARK                            x       y       z     vdW  Elec       q    Type
REMARK                         _______ _______ _______ _____ _____    ______ ____
ROOT
ATOM      1  C   UNL     1     -11.908  11.763  69.825  0.00  0.00    +0.000 C 
ENDROOT
BRANCH   1   2
ATOM      2  C   UNL     1     -11.557  11.088  68.513  0.00  0.00    +0.003 C 
BRANCH   2   3
ATOM      3  C   UNL     1     -10.689  11.963  67.648  0.00  0.00    +0.035 C 
BRANCH   3   4
ATOM      4  C   UNL     1     -11.561  12.933  66.900  0.00  0.00    +0.172 C 
BRANCH   4   5
ATOM      5  O   UNL     1     -12.317  12.251  65.954  0.00  0.00    -0.241 OA
BRANCH   5   6
ATOM      6  S   UNL     1     -12.144  12.857  64.412  0.00  0.00    -0.000 S 
ATOM      7  O   UNL     1     -10.582  12.678  63.822  0.00  0.00    -0.268 OA
ATOM      8  O   UNL     1     -13.050  12.097  63.470  0.00  0.00    -0.345 OA
ATOM      9  O   UNL     1     -12.595  14.293  64.371  0.00  0.00    -0.345 OA
ENDBRANCH   5   6
ENDBRANCH   4   5
ENDBRANCH   3   4
ENDBRANCH   2   3
ENDBRANCH   1   2
BRANCH   1  10
ATOM     10  C   UNL     1     -12.361  10.772  70.856  0.00  0.00    +0.000 C 
BRANCH  10  11
ATOM     11  C   UNL     1     -13.309  11.431  71.845  0.00  0.00    +0.000 C 
BRANCH  11  12
ATOM     12  C   UNL     1     -12.972  12.907  71.855  0.00  0.00    +0.000 C 
BRANCH  12  13
ATOM     13  C   UNL     1     -14.153  13.757  72.234  0.00  0.00    +0.000 C 
BRANCH  13  14
ATOM     14  C   UNL     1     -14.110  15.130  71.598  0.00  0.00    +0.000 C 
BRANCH  14  15
ATOM     15  C   UNL     1     -12.704  15.649  71.485  0.00  0.00    +0.000 C 
BRANCH  15  17
ATOM     16  C   UNL     1     -10.777  15.299  69.956  0.00  0.00    +0.000 C 
ATOM     17  C   UNL     1     -12.222  15.742  70.056  0.00  0.00    +0.000 C 
ENDBRANCH  15  17
ENDBRANCH  14  15
ENDBRANCH  13  14
ENDBRANCH  12  13
ENDBRANCH  11  12
ENDBRANCH  10  11
ENDBRANCH   1  10
TORSDOF 12
ENDMDL
MODEL 2
REMARK VINA RESULT:      -4.7      2.028      3.743
REMARK  Name = 
REMARK  12 active torsions:
REMARK  status: ('A' for Active; 'I' for Inactive)
REMARK    1  A    between atoms: C_2  and  C_3
REMARK    2  A    between atoms: C_3  and  C_4
REMARK    3  A    between atoms: C_4  and  C_5
REMARK    4  A    between atoms: C_5  and  C_6
REMARK    5  A    between atoms: C_6  and  C_7
REMARK    6  A    between atoms: C_7  and  C_8
REMARK    7  A    between atoms: C_8  and  C_9
REMARK    8  A    between atoms: C_9  and  C_10
REMARK    9  A    between atoms: C_10  and  C_11
REMARK   10  A    between atoms: C_11  and  C_12
REMARK   11  A    between atoms: C_12  and  O_13
REMARK   12  A    between atoms: O_13  and  S_14
REMARK                            x       y       z     vdW  Elec       q    Type
REMARK                         _______ _______ _______ _____ _____    ______ ____
ROOT
ATOM      1  C   UNL     1     -10.387  16.700  67.002  0.00  0.00    +0.000 C 
ENDROOT
BRANCH   1   2
ATOM      2  C   UNL     1      -9.187  16.084  66.309  0.00  0.00    +0.003 C 
BRANCH   2   3
ATOM      3  C   UNL     1      -9.120  14.594  66.524  0.00  0.00    +0.035 C 
BRANCH   3   4
ATOM      4  C   UNL     1     -10.457  13.992  66.193  0.00  0.00    +0.172 C 
BRANCH   4   5
ATOM      5  O   UNL     1     -10.630  13.959  64.815  0.00  0.00    -0.241 OA
BRANCH   5   6
ATOM      6  S   UNL     1     -12.142  14.459  64.328  0.00  0.00    -0.000 S 
ATOM      7  O   UNL     1     -12.162  16.063  63.830  0.00  0.00    -0.268 OA
ATOM      8  O   UNL     1     -12.585  13.634  63.141  0.00  0.00    -0.345 OA
ATOM      9  O   UNL     1     -13.145  14.203  65.423  0.00  0.00    -0.345 OA
ENDBRANCH   5   6
ENDBRANCH   4   5
ENDBRANCH   3   4
ENDBRANCH   2   3
ENDBRANCH   1   2
BRANCH   1  10
ATOM     10  C   UNL     1     -10.235  16.683  68.494  0.00  0.00    +0.000 C 
BRANCH  10  11
ATOM     11  C   UNL     1     -11.483  16.109  69.148  0.00  0.00    +0.000 C 
BRANCH  11  12
ATOM     12  C   UNL     1     -11.088  14.777  69.748  0.00  0.00    +0.000 C 
BRANCH  12  13
ATOM     13  C   UNL     1     -12.282  13.973  70.182  0.00  0.00    +0.000 C 
BRANCH  13  14
ATOM     14  C   UNL     1     -13.193  14.742  71.114  0.00  0.00    +0.000 C 
BRANCH  14  15
ATOM     15  C   UNL     1     -13.266  14.106  72.474  0.00  0.00    +0.000 C 
BRANCH  15  17
ATOM     16  C   UNL     1     -12.173  16.277  72.987  0.00  0.00    +0.000 C 
ATOM     17  C   UNL     1     -12.721  14.991  73.570  0.00  0.00    +0.000 C 
ENDBRANCH  15  17
ENDBRANCH  14  15
ENDBRANCH  13  14
ENDBRANCH  12  13
ENDBRANCH  11  12
ENDBRANCH  10  11
ENDBRANCH   1  10
TORSDOF 12
ENDMDL
MODEL 3
REMARK VINA RESULT:      -4.6      4.676      6.760
REMARK  Name = 
REMARK  12 active torsions:
REMARK  status: ('A' for Active; 'I' for Inactive)
REMARK    1  A    between atoms: C_2  and  C_3
REMARK    2  A    between atoms: C_3  and  C_4
REMARK    3  A    between atoms: C_4  and  C_5
REMARK    4  A    between atoms: C_5  and  C_6
REMARK    5  A    between atoms: C_6  and  C_7
REMARK    6  A    between atoms: C_7  and  C_8
REMARK    7  A    between atoms: C_8  and  C_9
REMARK    8  A    between atoms: C_9  and  C_10
REMARK    9  A    between atoms: C_10  and  C_11
REMARK   10  A    between atoms: C_11  and  C_12
REMARK   11  A    between atoms: C_12  and  O_13
REMARK   12  A    between atoms: O_13  and  S_14
REMARK                            x       y       z     vdW  Elec       q    Type
REMARK                         _______ _______ _______ _____ _____    ______ ____
ROOT
ATOM      1  C   UNL     1     -11.876  11.922  69.787  0.00  0.00    +0.000 C 
ENDROOT
BRANCH   1   2
ATOM      2  C   UNL     1     -12.379  10.979  70.863  0.00  0.00    +0.003 C 
BRANCH   2   3
ATOM      3  C   UNL     1     -13.221  11.696  71.885  0.00  0.00    +0.035 C 
BRANCH   3   4
ATOM      4  C   UNL     1     -13.080  13.180  71.683  0.00  0.00    +0.172 C 
BRANCH   4   5
ATOM      5  O   UNL     1     -13.416  13.847  72.854  0.00  0.00    -0.241 OA
BRANCH   5   6
ATOM      6  S   UNL     1     -13.397  15.506  72.695  0.00  0.00    -0.000 S 
ATOM      7  O   UNL     1     -12.981  16.285  74.123  0.00  0.00    -0.268 OA
ATOM      8  O   UNL     1     -12.357  15.899  71.671  0.00  0.00    -0.345 OA
ATOM      9  O   UNL     1     -14.722  15.986  72.163  0.00  0.00    -0.345 OA
ENDBRANCH   5   6
ENDBRANCH   4   5
ENDBRANCH   3   4
ENDBRANCH   2   3
ENDBRANCH   1   2
BRANCH   1  10
ATOM     10  C   UNL     1     -11.075  11.199  68.745  0.00  0.00    +0.000 C 
BRANCH  10  11
ATOM     11  C   UNL     1     -10.802  12.111  67.558  0.00  0.00    +0.000 C 
BRANCH  11  12
ATOM     12  C   UNL     1     -11.852  13.200  67.595  0.00  0.00    +0.000 C 
BRANCH  12  13
ATOM     13  C   UNL     1     -12.083  13.811  66.241  0.00  0.00    +0.000 C 
BRANCH  13  14
ATOM     14  C   UNL     1     -12.555  12.800  65.218  0.00  0.00    +0.000 C 
BRANCH  14  15
ATOM     15  C   UNL     1     -11.869  12.983  63.894  0.00  0.00    +0.000 C 
BRANCH  15  17
ATOM     16  C   UNL     1     -10.372  11.048  63.464  0.00  0.00    +0.000 C 
ATOM     17  C   UNL     1     -10.439  12.497  63.897  0.00  0.00    +0.000 C 
ENDBRANCH  15  17
ENDBRANCH  14  15
ENDBRANCH  13  14
ENDBRANCH  12  13
ENDBRANCH  11  12
ENDBRANCH  10  11
ENDBRANCH   1  10
TORSDOF 12
ENDMDL
MODEL 4
REMARK VINA RESULT:      -4.6      1.348      2.039
REMARK  Name = 
REMARK  12 active torsions:
REMARK  status: ('A' for Active; 'I' for Inactive)
REMARK    1  A    between atoms: C_2  and  C_3
REMARK    2  A    between atoms: C_3  and  C_4
REMARK    3  A    between atoms: C_4  and  C_5
REMARK    4  A    between atoms: C_5  and  C_6
REMARK    5  A    between atoms: C_6  and  C_7
REMARK    6  A    between atoms: C_7  and  C_8
REMARK    7  A    between atoms: C_8  and  C_9
REMARK    8  A    between atoms: C_9  and  C_10
REMARK    9  A    between atoms: C_10  and  C_11
REMARK   10  A    between atoms: C_11  and  C_12
REMARK   11  A    between atoms: C_12  and  O_13
REMARK   12  A    between atoms: O_13  and  S_14
REMARK                            x       y       z     vdW  Elec       q    Type
REMARK                         _______ _______ _______ _____ _____    ______ ____
ROOT
ATOM      1  C   UNL     1     -11.843  11.708  68.217  0.00  0.00    +0.000 C 
ENDROOT
BRANCH   1   2
ATOM      2  C   UNL     1     -10.945  10.627  67.648  0.00  0.00    +0.003 C 
BRANCH   2   3
ATOM      3  C   UNL     1     -10.362  11.026  66.317  0.00  0.00    +0.035 C 
BRANCH   3   4
ATOM      4  C   UNL     1     -10.310  12.527  66.236  0.00  0.00    +0.172 C 
BRANCH   4   5
ATOM      5  O   UNL     1     -10.719  12.944  64.976  0.00  0.00    -0.241 OA
BRANCH   5   6
ATOM      6  S   UNL     1     -12.249  13.602  64.964  0.00  0.00    -0.000 S 
ATOM      7  O   UNL     1     -12.490  14.651  63.675  0.00  0.00    -0.268 OA
ATOM      8  O   UNL     1     -13.269  12.496  64.816  0.00  0.00    -0.345 OA
ATOM      9  O   UNL     1     -12.532  14.268  66.285  0.00  0.00    -0.345 OA
ENDBRANCH   5   6
ENDBRANCH   4   5
ENDBRANCH   3   4
ENDBRANCH   2   3
ENDBRANCH   1   2
BRANCH   1  10
ATOM     10  C   UNL     1     -11.568  11.949  69.671  0.00  0.00    +0.000 C 
BRANCH  10  11
ATOM     11  C   UNL     1     -12.118  10.807  70.512  0.00  0.00    +0.000 C 
BRANCH  11  12
ATOM     12  C   UNL     1     -13.010  11.430  71.563  0.00  0.00    +0.000 C 
BRANCH  12  13
ATOM     13  C   UNL     1     -12.846  12.923  71.635  0.00  0.00    +0.000 C 
BRANCH  13  14
ATOM     14  C   UNL     1     -14.055  13.614  72.227  0.00  0.00    +0.000 C 
BRANCH  14  15
ATOM     15  C   UNL     1     -13.929  15.111  72.168  0.00  0.00    +0.000 C 
BRANCH  15  17
ATOM     16  C   UNL     1     -12.438  15.517  74.112  0.00  0.00    +0.000 C 
ATOM     17  C   UNL     1     -12.572  15.607  72.607  0.00  0.00    +0.000 C 
ENDBRANCH  15  17
ENDBRANCH  14  15
ENDBRANCH  13  14
ENDBRANCH  12  13
ENDBRANCH  11  12
ENDBRANCH  10  11
ENDBRANCH   1  10
TORSDOF 12
ENDMDL
MODEL 5
REMARK VINA RESULT:      -4.6      1.179      2.496
REMARK  Name = 
REMARK  12 active torsions:
REMARK  status: ('A' for Active; 'I' for Inactive)
REMARK    1  A    between atoms: C_2  and  C_3
REMARK    2  A    between atoms: C_3  and  C_4
REMARK    3  A    between atoms: C_4  and  C_5
REMARK    4  A    between atoms: C_5  and  C_6
REMARK    5  A    between atoms: C_6  and  C_7
REMARK    6  A    between atoms: C_7  and  C_8
REMARK    7  A    between atoms: C_8  and  C_9
REMARK    8  A    between atoms: C_9  and  C_10
REMARK    9  A    between atoms: C_10  and  C_11
REMARK   10  A    between atoms: C_11  and  C_12
REMARK   11  A    between atoms: C_12  and  O_13
REMARK   12  A    between atoms: O_13  and  S_14
REMARK                            x       y       z     vdW  Elec       q    Type
REMARK                         _______ _______ _______ _____ _____    ______ ____
ROOT
ATOM      1  C   UNL     1     -11.316  12.401  69.120  0.00  0.00    +0.000 C 
ENDROOT
BRANCH   1   2
ATOM      2  C   UNL     1     -11.158  11.903  67.697  0.00  0.00    +0.003 C 
BRANCH   2   3
ATOM      3  C   UNL     1      -9.810  12.259  67.125  0.00  0.00    +0.035 C 
BRANCH   3   4
ATOM      4  C   UNL     1     -10.006  13.121  65.909  0.00  0.00    +0.172 C 
BRANCH   4   5
ATOM      5  O   UNL     1     -11.325  13.554  65.848  0.00  0.00    -0.241 OA
BRANCH   5   6
ATOM      6  S   UNL     1     -12.055  13.238  64.384  0.00  0.00    -0.000 S 
ATOM      7  O   UNL     1     -11.050  12.404  63.329  0.00  0.00    -0.268 OA
ATOM      8  O   UNL     1     -13.267  12.363  64.608  0.00  0.00    -0.345 OA
ATOM      9  O   UNL     1     -12.562  14.519  63.776  0.00  0.00    -0.345 OA
ENDBRANCH   5   6
ENDBRANCH   4   5
ENDBRANCH   3   4
ENDBRANCH   2   3
ENDBRANCH   1   2
BRANCH   1  10
ATOM     10  C   UNL     1     -12.031  13.718  69.172  0.00  0.00    +0.000 C 
BRANCH  10  11
ATOM     11  C   UNL     1     -11.101  14.807  69.684  0.00  0.00    +0.000 C 
BRANCH  11  12
ATOM     12  C   UNL     1     -11.974  15.846  70.353  0.00  0.00    +0.000 C 
BRANCH  12  13
ATOM     13  C   UNL     1     -11.592  16.068  71.791  0.00  0.00    +0.000 C 
BRANCH  13  14
ATOM     14  C   UNL     1     -12.535  15.381  72.755  0.00  0.00    +0.000 C 
BRANCH  14  15
ATOM     15  C   UNL     1     -13.969  15.512  72.324  0.00  0.00    +0.000 C 
BRANCH  15  17
ATOM     16  C   UNL     1     -13.657  13.048  72.292  0.00  0.00    +0.000 C 
ATOM     17  C   UNL     1     -14.604  14.187  71.976  0.00  0.00    +0.000 C 
ENDBRANCH  15  17
ENDBRANCH  14  15
ENDBRANCH  13  14
ENDBRANCH  12  13
ENDBRANCH  11  12
ENDBRANCH  10  11
ENDBRANCH   1  10
TORSDOF 12
ENDMDL
MODEL 6
REMARK VINA RESULT:      -4.6      4.788      7.295
REMARK  Name = 
REMARK  12 active torsions:
REMARK  status: ('A' for Active; 'I' for Inactive)
REMARK    1  A    between atoms: C_2  and  C_3
REMARK    2  A    between atoms: C_3  and  C_4
REMARK    3  A    between atoms: C_4  and  C_5
REMARK    4  A    between atoms: C_5  and  C_6
REMARK    5  A    between atoms: C_6  and  C_7
REMARK    6  A    between atoms: C_7  and  C_8
REMARK    7  A    between atoms: C_8  and  C_9
REMARK    8  A    between atoms: C_9  and  C_10
REMARK    9  A    between atoms: C_10  and  C_11
REMARK   10  A    between atoms: C_11  and  C_12
REMARK   11  A    between atoms: C_12  and  O_13
REMARK   12  A    between atoms: O_13  and  S_14
REMARK                            x       y       z     vdW  Elec       q    Type
REMARK                         _______ _______ _______ _____ _____    ______ ____
ROOT
ATOM      1  C   UNL     1     -10.173  16.846  68.579  0.00  0.00    +0.000 C 
ENDROOT
BRANCH   1   2
ATOM      2  C   UNL     1     -11.500  16.218  68.960  0.00  0.00    +0.003 C 
BRANCH   2   3
ATOM      3  C   UNL     1     -11.353  14.754  69.287  0.00  0.00    +0.035 C 
BRANCH   3   4
ATOM      4  C   UNL     1     -12.361  14.384  70.340  0.00  0.00    +0.172 C 
BRANCH   4   5
ATOM      5  O   UNL     1     -11.922  14.821  71.584  0.00  0.00    -0.241 OA
BRANCH   5   6
ATOM      6  S   UNL     1     -13.120  14.819  72.742  0.00  0.00    -0.000 S 
ATOM      7  O   UNL     1     -14.313  15.960  72.437  0.00  0.00    -0.268 OA
ATOM      8  O   UNL     1     -13.805  13.471  72.753  0.00  0.00    -0.345 OA
ATOM      9  O   UNL     1     -12.513  14.999  74.109  0.00  0.00    -0.345 OA
ENDBRANCH   5   6
ENDBRANCH   4   5
ENDBRANCH   3   4
ENDBRANCH   2   3
ENDBRANCH   1   2
BRANCH   1  10
ATOM     10  C   UNL     1     -10.332  17.858  67.484  0.00  0.00    +0.000 C 
BRANCH  10  11
ATOM     11  C   UNL     1     -10.239  17.186  66.123  0.00  0.00    +0.000 C 
BRANCH  11  12
ATOM     12  C   UNL     1      -9.257  16.044  66.267  0.00  0.00    +0.000 C 
BRANCH  12  13
ATOM     13  C   UNL     1      -9.807  14.751  65.730  0.00  0.00    +0.000 C 
BRANCH  13  14
ATOM     14  C   UNL     1     -11.172  14.918  65.098  0.00  0.00    +0.000 C 
BRANCH  14  15
ATOM     15  C   UNL     1     -12.207  14.057  65.767  0.00  0.00    +0.000 C 
BRANCH  15  17
ATOM     16  C   UNL     1     -12.081  12.897  63.574  0.00  0.00    +0.000 C 
ATOM     17  C   UNL     1     -12.459  12.761  65.033  0.00  0.00    +0.000 C 
ENDBRANCH  15  17
ENDBRANCH  14  15
ENDBRANCH  13  14
ENDBRANCH  12  13
ENDBRANCH  11  12
ENDBRANCH  10  11
ENDBRANCH   1  10
TORSDOF 12
ENDMDL
MODEL 7
REMARK VINA RESULT:      -4.5      4.236      6.739
REMARK  Name = 
REMARK  12 active torsions:
REMARK  status: ('A' for Active; 'I' for Inactive)
REMARK    1  A    between atoms: C_2  and  C_3
REMARK    2  A    between atoms: C_3  and  C_4
REMARK    3  A    between atoms: C_4  and  C_5
REMARK    4  A    between atoms: C_5  and  C_6
REMARK    5  A    between atoms: C_6  and  C_7
REMARK    6  A    between atoms: C_7  and  C_8
REMARK    7  A    between atoms: C_8  and  C_9
REMARK    8  A    between atoms: C_9  and  C_10
REMARK    9  A    between atoms: C_10  and  C_11
REMARK   10  A    between atoms: C_11  and  C_12
REMARK   11  A    between atoms: C_12  and  O_13
REMARK   12  A    between atoms: O_13  and  S_14
REMARK                            x       y       z     vdW  Elec       q    Type
REMARK                         _______ _______ _______ _____ _____    ______ ____
ROOT
ATOM      1  C   UNL     1      -9.630  16.370  68.250  0.00  0.00    +0.000 C 
ENDROOT
BRANCH   1   2
ATOM      2  C   UNL     1      -9.931  15.625  69.536  0.00  0.00    +0.003 C 
BRANCH   2   3
ATOM      3  C   UNL     1     -11.210  16.102  70.173  0.00  0.00    +0.035 C 
BRANCH   3   4
ATOM      4  C   UNL     1     -11.805  14.980  70.978  0.00  0.00    +0.172 C 
BRANCH   4   5
ATOM      5  O   UNL     1     -13.119  14.763  70.583  0.00  0.00    -0.241 OA
BRANCH   5   6
ATOM      6  S   UNL     1     -14.216  14.932  71.825  0.00  0.00    -0.000 S 
ATOM      7  O   UNL     1     -13.779  16.134  72.912  0.00  0.00    -0.268 OA
ATOM      8  O   UNL     1     -15.559  15.332  71.256  0.00  0.00    -0.345 OA
ATOM      9  O   UNL     1     -14.423  13.607  72.511  0.00  0.00    -0.345 OA
ENDBRANCH   5   6
ENDBRANCH   4   5
ENDBRANCH   3   4
ENDBRANCH   2   3
ENDBRANCH   1   2
BRANCH   1  10
ATOM     10  C   UNL     1     -10.551  15.957  67.140  0.00  0.00    +0.000 C 
BRANCH  10  11
ATOM     11  C   UNL     1      -9.756  15.633  65.885  0.00  0.00    +0.000 C 
BRANCH  11  12
ATOM     12  C   UNL     1     -10.682  14.857  64.972  0.00  0.00    +0.000 C 
BRANCH  12  13
ATOM     13  C   UNL     1     -11.907  14.364  65.692  0.00  0.00    +0.000 C 
BRANCH  13  14
ATOM     14  C   UNL     1     -12.223  12.917  65.379  0.00  0.00    +0.000 C 
BRANCH  14  15
ATOM     15  C   UNL     1     -11.603  11.982  66.379  0.00  0.00    +0.000 C 
BRANCH  15  17
ATOM     16  C   UNL     1     -10.386  12.190  68.534  0.00  0.00    +0.000 C 
ATOM     17  C   UNL     1     -11.670  12.502  67.795  0.00  0.00    +0.000 C 
ENDBRANCH  15  17
ENDBRANCH  14  15
ENDBRANCH  13  14
ENDBRANCH  12  13
ENDBRANCH  11  12
ENDBRANCH  10  11
ENDBRANCH   1  10
TORSDOF 12
ENDMDL
MODEL 8
REMARK VINA RESULT:      -4.5      4.977      7.385
REMARK  Name = 
REMARK  12 active torsions:
REMARK  status: ('A' for Active; 'I' for Inactive)
REMARK    1  A    between atoms: C_2  and  C_3
REMARK    2  A    between atoms: C_3  and  C_4
REMARK    3  A    between atoms: C_4  and  C_5
REMARK    4  A    between atoms: C_5  and  C_6
REMARK    5  A    between atoms: C_6  and  C_7
REMARK    6  A    between atoms: C_7  and  C_8
REMARK    7  A    between atoms: C_8  and  C_9
REMARK    8  A    between atoms: C_9  and  C_10
REMARK    9  A    between atoms: C_10  and  C_11
REMARK   10  A    between atoms: C_11  and  C_12
REMARK   11  A    between atoms: C_12  and  O_13
REMARK   12  A    between atoms: O_13  and  S_14
REMARK                            x       y       z     vdW  Elec       q    Type
REMARK                         _______ _______ _______ _____ _____    ______ ____
ROOT
ATOM      1  C   UNL     1     -11.366  13.775  68.801  0.00  0.00    +0.000 C 
ENDROOT
BRANCH   1   2
ATOM      2  C   UNL     1     -11.176  15.200  68.321  0.00  0.00    +0.003 C 
BRANCH   2   3
ATOM      3  C   UNL     1     -11.335  16.194  69.442  0.00  0.00    +0.035 C 
BRANCH   3   4
ATOM      4  C   UNL     1     -12.293  15.636  70.458  0.00  0.00    +0.172 C 
BRANCH   4   5
ATOM      5  O   UNL     1     -11.996  16.147  71.715  0.00  0.00    -0.241 OA
BRANCH   5   6
ATOM      6  S   UNL     1     -13.067  15.661  72.895  0.00  0.00    -0.000 S 
ATOM      7  O   UNL     1     -12.762  16.384  74.380  0.00  0.00    -0.268 OA
ATOM      8  O   UNL     1     -14.468  16.067  72.498  0.00  0.00    -0.345 OA
ATOM      9  O   UNL     1     -13.072  14.158  72.996  0.00  0.00    -0.345 OA
ENDBRANCH   5   6
ENDBRANCH   4   5
ENDBRANCH   3   4
ENDBRANCH   2   3
ENDBRANCH   1   2
BRANCH   1  10
ATOM     10  C   UNL     1     -11.793  12.866  67.687  0.00  0.00    +0.000 C 
BRANCH  10  11
ATOM     11  C   UNL     1     -12.024  13.663  66.412  0.00  0.00    +0.000 C 
BRANCH  11  12
ATOM     12  C   UNL     1     -12.349  12.661  65.325  0.00  0.00    +0.000 C 
BRANCH  12  13
ATOM     13  C   UNL     1     -11.780  13.065  63.992  0.00  0.00    +0.000 C 
BRANCH  13  14
ATOM     14  C   UNL     1     -10.762  12.074  63.470  0.00  0.00    +0.000 C 
BRANCH  14  15
ATOM     15  C   UNL     1     -10.573  10.918  64.412  0.00  0.00    +0.000 C 
BRANCH  15  17
ATOM     16  C   UNL     1      -8.896  11.068  66.237  0.00  0.00    +0.000 C 
ATOM     17  C   UNL     1      -9.128  10.693  64.789  0.00  0.00    +0.000 C 
ENDBRANCH  15  17
ENDBRANCH  14  15
ENDBRANCH  13  14
ENDBRANCH  12  13
ENDBRANCH  11  12
ENDBRANCH  10  11
ENDBRANCH   1  10
TORSDOF 12
ENDMDL
MODEL 9
REMARK VINA RESULT:      -4.5      3.601      5.562
REMARK  Name = 
REMARK  12 active torsions:
REMARK  status: ('A' for Active; 'I' for Inactive)
REMARK    1  A    between atoms: C_2  and  C_3
REMARK    2  A    between atoms: C_3  and  C_4
REMARK    3  A    between atoms: C_4  and  C_5
REMARK    4  A    between atoms: C_5  and  C_6
REMARK    5  A    between atoms: C_6  and  C_7
REMARK    6  A    between atoms: C_7  and  C_8
REMARK    7  A    between atoms: C_8  and  C_9
REMARK    8  A    between atoms: C_9  and  C_10
REMARK    9  A    between atoms: C_10  and  C_11
REMARK   10  A    between atoms: C_11  and  C_12
REMARK   11  A    between atoms: C_12  and  O_13
REMARK   12  A    between atoms: O_13  and  S_14
REMARK                            x       y       z     vdW  Elec       q    Type
REMARK                         _______ _______ _______ _____ _____    ______ ____
ROOT
ATOM      1  C   UNL     1     -10.144  15.935  67.058  0.00  0.00    +0.000 C 
ENDROOT
BRANCH   1   2
ATOM      2  C   UNL     1     -10.832  14.909  67.937  0.00  0.00    +0.003 C 
BRANCH   2   3
ATOM      3  C   UNL     1     -11.978  14.240  67.223  0.00  0.00    +0.035 C 
BRANCH   3   4
ATOM      4  C   UNL     1     -11.472  12.997  66.544  0.00  0.00    +0.172 C 
BRANCH   4   5
ATOM      5  O   UNL     1     -12.444  12.503  65.683  0.00  0.00    -0.241 OA
BRANCH   5   6
ATOM      6  S   UNL     1     -12.125  12.816  64.079  0.00  0.00    -0.000 S 
ATOM      7  O   UNL     1     -10.515  12.557  63.680  0.00  0.00    -0.268 OA
ATOM      8  O   UNL     1     -12.939  11.882  63.214  0.00  0.00    -0.345 OA
ATOM      9  O   UNL     1     -12.568  14.213  63.730  0.00  0.00    -0.345 OA
ENDBRANCH   5   6
ENDBRANCH   4   5
ENDBRANCH   3   4
ENDBRANCH   2   3
ENDBRANCH   1   2
BRANCH   1  10
ATOM     10  C   UNL     1      -8.688  15.622  66.876  0.00  0.00    +0.000 C 
BRANCH  10  11
ATOM     11  C   UNL     1      -7.976  16.786  66.202  0.00  0.00    +0.000 C 
BRANCH  11  12
ATOM     12  C   UNL     1      -7.046  17.384  67.236  0.00  0.00    +0.000 C 
BRANCH  12  13
ATOM     13  C   UNL     1      -7.309  18.849  67.455  0.00  0.00    +0.000 C 
BRANCH  13  14
ATOM     14  C   UNL     1      -8.131  19.112  68.699  0.00  0.00    +0.000 C 
BRANCH  14  15
ATOM     15  C   UNL     1      -9.582  19.332  68.374  0.00  0.00    +0.000 C 
BRANCH  15  17
ATOM     16  C   UNL     1     -10.575  19.558  66.109  0.00  0.00    +0.000 C 
ATOM     17  C   UNL     1      -9.790  20.257  67.198  0.00  0.00    +0.000 C 
ENDBRANCH  15  17
ENDBRANCH  14  15
ENDBRANCH  13  14
ENDBRANCH  12  13
ENDBRANCH  11  12
ENDBRANCH  10  11
ENDBRANCH   1  10
TORSDOF 12
ENDMDL
