MODEL 1
REMARK VINA RESULT:      -7.5      0.000      0.000
REMARK  Name = 
REMARK  5 active torsions:
REMARK  status: ('A' for Active; 'I' for Inactive)
REMARK    1  A    between atoms: C_7  and  O_8
REMARK    2  A    between atoms: O_8  and  C_9
REMARK    3  A    between atoms: C_9  and  C_11
REMARK    4  A    between atoms: C_11  and  C_13
REMARK    5  A    between atoms: C_11  and  C_19
REMARK                            x       y       z     vdW  Elec       q    Type
REMARK                         _______ _______ _______ _____ _____    ______ ____
ROOT
ATOM      1  C   UNL     1     -11.591  15.083  69.379  0.00  0.00    +0.252 C 
ATOM      2  O   UNL     1     -12.183  16.262  68.896  0.00  0.00    -0.205 OA
ENDROOT
BRANCH   1   3
ATOM      3  C   UNL     1     -11.983  13.925  68.557  0.00  0.00    +0.019 A 
ATOM      4  C   UNL     1     -11.989  14.116  67.179  0.00  0.00    -0.001 A 
ATOM      5  C   UNL     1     -11.879  13.087  66.285  0.00  0.00    -0.000 A 
ATOM      6  C   UNL     1     -11.357  11.883  66.731  0.00  0.00    -0.000 A 
ATOM      7  C   UNL     1     -11.419  11.611  68.076  0.00  0.00    -0.000 A 
ATOM      8  C   UNL     1     -11.749  12.613  68.950  0.00  0.00    -0.001 A 
ENDBRANCH   1   3
BRANCH   1   9
ATOM      9  C   UNL     1     -12.110  14.877  70.769  0.00  0.00    +0.019 A 
ATOM     10  C   UNL     1     -13.490  14.989  70.888  0.00  0.00    -0.001 A 
ATOM     11  C   UNL     1     -14.125  15.331  72.049  0.00  0.00    -0.000 A 
ATOM     12  C   UNL     1     -13.372  15.656  73.154  0.00  0.00    -0.000 A 
ATOM     13  C   UNL     1     -12.030  15.946  72.938  0.00  0.00    -0.000 A 
ATOM     14  C   UNL     1     -11.387  15.379  71.845  0.00  0.00    -0.001 A 
ENDBRANCH   1   9
BRANCH   1  15
ATOM     15  C   UNL     1     -10.132  15.316  69.358  0.00  0.00    +0.353 C 
ATOM     16  O   UNL     1      -9.390  14.440  68.814  0.00  0.00    -0.247 OA
BRANCH  15  17
ATOM     17  O   UNL     1      -9.511  16.525  69.366  0.00  0.00    -0.444 OA
BRANCH  17  21
ATOM     18  C   UNL     1      -9.633  20.093  67.154  0.00  0.00    +0.171 C 
ATOM     19  N   UNL     1      -9.521  19.375  67.110  0.00  0.00    +0.309 N 
ATOM     20  C   UNL     1      -9.651  18.693  68.400  0.00  0.00    +0.153 C 
ATOM     21  C   UNL     1      -9.117  17.177  68.031  0.00  0.00    +0.224 C 
ATOM     22  C   UNL     1      -7.605  17.522  68.591  0.00  0.00    +0.056 C 
ATOM     23  C   UNL     1      -7.277  18.819  67.860  0.00  0.00    +0.065 C 
ATOM     24  C   UNL     1      -8.185  18.994  66.647  0.00  0.00    +0.109 C 
ATOM     25  C   UNL     1     -10.452  18.806  66.136  0.00  0.00    +0.171 C 
ENDBRANCH  17  21
ENDBRANCH  15  17
ENDBRANCH   1  15
TORSDOF 5
ENDMDL
MODEL 2
REMARK VINA RESULT:      -7.1      1.450      4.266
REMARK  Name = 
REMARK  5 active torsions:
REMARK  status: ('A' for Active; 'I' for Inactive)
REMARK    1  A    between atoms: C_7  and  O_8
REMARK    2  A    between atoms: O_8  and  C_9
REMARK    3  A    between atoms: C_9  and  C_11
REMARK    4  A    between atoms: C_11  and  C_13
REMARK    5  A    between atoms: C_11  and  C_19
REMARK                            x       y       z     vdW  Elec       q    Type
REMARK                         _______ _______ _______ _____ _____    ______ ____
ROOT
ATOM      1  C   UNL     1     -10.348  14.171  68.334  0.00  0.00    +0.252 C 
ATOM      2  O   UNL     1      -9.597  13.060  68.751  0.00  0.00    -0.205 OA
ENDROOT
BRANCH   1   3
ATOM      3  C   UNL     1     -11.560  14.324  69.159  0.00  0.00    +0.019 A 
ATOM      4  C   UNL     1     -11.926  13.228  69.933  0.00  0.00    -0.001 A 
ATOM      5  C   UNL     1     -12.707  13.335  71.051  0.00  0.00    -0.000 A 
ATOM      6  C   UNL     1     -12.816  14.575  71.660  0.00  0.00    -0.000 A 
ATOM      7  C   UNL     1     -12.557  15.692  70.902  0.00  0.00    -0.000 A 
ATOM      8  C   UNL     1     -11.967  15.549  69.674  0.00  0.00    -0.001 A 
ENDBRANCH   1   3
BRANCH   1   9
ATOM      9  C   UNL     1     -10.765  13.906  66.921  0.00  0.00    +0.019 A 
ATOM     10  C   UNL     1     -12.024  14.395  66.593  0.00  0.00    -0.001 A 
ATOM     11  C   UNL     1     -12.802  13.879  65.594  0.00  0.00    -0.000 A 
ATOM     12  C   UNL     1     -12.364  12.767  64.911  0.00  0.00    -0.000 A 
ATOM     13  C   UNL     1     -11.332  12.038  65.491  0.00  0.00    -0.000 A 
ATOM     14  C   UNL     1     -10.439  12.689  66.332  0.00  0.00    -0.001 A 
ENDBRANCH   1   9
BRANCH   1  15
ATOM     15  C   UNL     1      -9.450  15.339  68.440  0.00  0.00    +0.353 C 
ATOM     16  O   UNL     1      -8.454  15.265  69.227  0.00  0.00    -0.247 OA
BRANCH  15  17
ATOM     17  O   UNL     1      -9.223  16.268  67.475  0.00  0.00    -0.444 OA
BRANCH  17  21
ATOM     18  C   UNL     1      -7.562  20.012  66.543  0.00  0.00    +0.171 C 
ATOM     19  N   UNL     1      -7.934  19.640  67.048  0.00  0.00    +0.309 N 
ATOM     20  C   UNL     1      -8.186  18.249  66.664  0.00  0.00    +0.153 C 
ATOM     21  C   UNL     1      -9.221  17.759  67.852  0.00  0.00    +0.224 C 
ATOM     22  C   UNL     1     -10.532  18.051  66.895  0.00  0.00    +0.056 C 
ATOM     23  C   UNL     1     -10.277  19.478  66.424  0.00  0.00    +0.065 C 
ATOM     24  C   UNL     1      -9.269  20.171  67.334  0.00  0.00    +0.109 C 
ATOM     25  C   UNL     1      -7.207  19.697  68.316  0.00  0.00    +0.171 C 
ENDBRANCH  17  21
ENDBRANCH  15  17
ENDBRANCH   1  15
TORSDOF 5
ENDMDL
MODEL 3
REMARK VINA RESULT:      -7.0      3.922      7.149
REMARK  Name = 
REMARK  5 active torsions:
REMARK  status: ('A' for Active; 'I' for Inactive)
REMARK    1  A    between atoms: C_7  and  O_8
REMARK    2  A    between atoms: O_8  and  C_9
REMARK    3  A    between atoms: C_9  and  C_11
REMARK    4  A    between atoms: C_11  and  C_13
REMARK    5  A    between atoms: C_11  and  C_19
REMARK                            x       y       z     vdW  Elec       q    Type
REMARK                         _______ _______ _______ _____ _____    ______ ____
ROOT
ATOM      1  C   UNL     1     -10.986  12.842  68.322  0.00  0.00    +0.252 C 
ATOM      2  O   UNL     1      -9.618  12.869  68.636  0.00  0.00    -0.205 OA
ENDROOT
BRANCH   1   3
ATOM      3  C   UNL     1     -11.198  13.049  66.878  0.00  0.00    +0.019 A 
ATOM      4  C   UNL     1     -12.438  13.549  66.498  0.00  0.00    -0.001 A 
ATOM      5  C   UNL     1     -12.644  14.208  65.318  0.00  0.00    -0.000 A 
ATOM      6  C   UNL     1     -11.546  14.742  64.663  0.00  0.00    -0.000 A 
ATOM      7  C   UNL     1     -10.309  14.210  64.938  0.00  0.00    -0.000 A 
ATOM      8  C   UNL     1     -10.162  13.367  66.007  0.00  0.00    -0.001 A 
ENDBRANCH   1   3
BRANCH   1   9
ATOM      9  C   UNL     1     -11.624  13.975  69.064  0.00  0.00    +0.019 A 
ATOM     10  C   UNL     1     -10.856  15.132  69.113  0.00  0.00    -0.001 A 
ATOM     11  C   UNL     1     -10.970  16.077  70.094  0.00  0.00    -0.000 A 
ATOM     12  C   UNL     1     -11.837  15.855  71.140  0.00  0.00    -0.000 A 
ATOM     13  C   UNL     1     -12.289  14.553  71.317  0.00  0.00    -0.000 A 
ATOM     14  C   UNL     1     -12.352  13.708  70.217  0.00  0.00    -0.001 A 
ENDBRANCH   1   9
BRANCH   1  15
ATOM     15  C   UNL     1     -11.486  11.527  68.776  0.00  0.00    +0.353 C 
ATOM     16  O   UNL     1     -11.936  10.719  67.904  0.00  0.00    -0.247 OA
BRANCH  15  17
ATOM     17  O   UNL     1     -11.080  10.852  69.883  0.00  0.00    -0.444 OA
BRANCH  17  21
ATOM     18  C   UNL     1     -11.014   7.610  72.552  0.00  0.00    +0.171 C 
ATOM     19  N   UNL     1     -11.271   7.841  71.911  0.00  0.00    +0.309 N 
ATOM     20  C   UNL     1     -10.852   9.207  71.585  0.00  0.00    +0.153 C 
ATOM     21  C   UNL     1     -11.762   9.523  70.246  0.00  0.00    +0.224 C 
ATOM     22  C   UNL     1     -12.904  10.301  71.148  0.00  0.00    +0.056 C 
ATOM     23  C   UNL     1     -13.198   9.284  72.244  0.00  0.00    +0.065 C 
ATOM     24  C   UNL     1     -12.732   7.894  71.825  0.00  0.00    +0.109 C 
ATOM     25  C   UNL     1     -10.847   6.914  70.863  0.00  0.00    +0.171 C 
ENDBRANCH  17  21
ENDBRANCH  15  17
ENDBRANCH   1  15
TORSDOF 5
ENDMDL
MODEL 4
REMARK VINA RESULT:      -7.0      1.929      3.069
REMARK  Name = 
REMARK  5 active torsions:
REMARK  status: ('A' for Active; 'I' for Inactive)
REMARK    1  A    between atoms: C_7  and  O_8
REMARK    2  A    between atoms: O_8  and  C_9
REMARK    3  A    between atoms: C_9  and  C_11
REMARK    4  A    between atoms: C_11  and  C_13
REMARK    5  A    between atoms: C_11  and  C_19
REMARK                            x       y       z     vdW  Elec       q    Type
REMARK                         _______ _______ _______ _____ _____    ______ ____
ROOT
ATOM      1  C   UNL     1     -11.331  14.093  66.388  0.00  0.00    +0.252 C 
ATOM      2  O   UNL     1     -12.565  14.748  66.244  0.00  0.00    -0.205 OA
ENDROOT
BRANCH   1   3
ATOM      3  C   UNL     1     -11.303  12.848  65.600  0.00  0.00    +0.019 A 
ATOM      4  C   UNL     1     -12.364  12.644  64.724  0.00  0.00    -0.001 A 
ATOM      5  C   UNL     1     -12.280  11.822  63.634  0.00  0.00    -0.000 A 
ATOM      6  C   UNL     1     -11.023  11.492  63.155  0.00  0.00    -0.000 A 
ATOM      7  C   UNL     1      -9.957  11.586  64.018  0.00  0.00    -0.000 A 
ATOM      8  C   UNL     1     -10.118  12.230  65.217  0.00  0.00    -0.001 A 
ENDBRANCH   1   3
BRANCH   1   9
ATOM      9  C   UNL     1     -11.192  13.743  67.836  0.00  0.00    +0.019 A 
ATOM     10  C   UNL     1     -11.367  12.394  68.119  0.00  0.00    -0.001 A 
ATOM     11  C   UNL     1     -11.774  11.920  69.336  0.00  0.00    -0.000 A 
ATOM     12  C   UNL     1     -12.102  12.816  70.327  0.00  0.00    -0.000 A 
ATOM     13  C   UNL     1     -12.326  14.132  69.938  0.00  0.00    -0.000 A 
ATOM     14  C   UNL     1     -11.697  14.612  68.797  0.00  0.00    -0.001 A 
ENDBRANCH   1   9
BRANCH   1  15
ATOM     15  C   UNL     1     -10.301  15.056  65.946  0.00  0.00    +0.353 C 
ATOM     16  O   UNL     1     -10.539  15.767  64.920  0.00  0.00    -0.247 OA
BRANCH  15  17
ATOM     17  O   UNL     1      -9.375  15.661  66.736  0.00  0.00    -0.444 OA
BRANCH  17  21
ATOM     18  C   UNL     1     -10.271  19.609  67.855  0.00  0.00    +0.171 C 
ATOM     19  N   UNL     1      -9.943  19.198  67.350  0.00  0.00    +0.309 N 
ATOM     20  C   UNL     1     -10.032  17.764  67.632  0.00  0.00    +0.153 C 
ATOM     21  C   UNL     1      -9.023  17.137  66.488  0.00  0.00    +0.224 C 
ATOM     22  C   UNL     1      -7.772  17.068  67.561  0.00  0.00    +0.056 C 
ATOM     23  C   UNL     1      -7.756  18.482  68.131  0.00  0.00    +0.065 C 
ATOM     24  C   UNL     1      -8.505  19.439  67.209  0.00  0.00    +0.109 C 
ATOM     25  C   UNL     1     -10.523  19.498  66.041  0.00  0.00    +0.171 C 
ENDBRANCH  17  21
ENDBRANCH  15  17
ENDBRANCH   1  15
TORSDOF 5
ENDMDL
MODEL 5
REMARK VINA RESULT:      -6.9      0.613      4.036
REMARK  Name = 
REMARK  5 active torsions:
REMARK  status: ('A' for Active; 'I' for Inactive)
REMARK    1  A    between atoms: C_7  and  O_8
REMARK    2  A    between atoms: O_8  and  C_9
REMARK    3  A    between atoms: C_9  and  C_11
REMARK    4  A    between atoms: C_11  and  C_13
REMARK    5  A    between atoms: C_11  and  C_19
REMARK                            x       y       z     vdW  Elec       q    Type
REMARK                         _______ _______ _______ _____ _____    ______ ____
ROOT
ATOM      1  C   UNL     1     -11.060  14.613  69.408  0.00  0.00    +0.252 C 
ATOM      2  O   UNL     1      -9.731  14.198  69.586  0.00  0.00    -0.205 OA
ENDROOT
BRANCH   1   3
ATOM      3  C   UNL     1     -11.813  14.519  70.671  0.00  0.00    +0.019 A 
ATOM      4  C   UNL     1     -11.372  15.321  71.718  0.00  0.00    -0.001 A 
ATOM      5  C   UNL     1     -12.177  15.697  72.757  0.00  0.00    -0.000 A 
ATOM      6  C   UNL     1     -13.550  15.621  72.585  0.00  0.00    -0.000 A 
ATOM      7  C   UNL     1     -14.034  14.765  71.625  0.00  0.00    -0.000 A 
ATOM      8  C   UNL     1     -13.170  14.218  70.715  0.00  0.00    -0.001 A 
ENDBRANCH   1   3
BRANCH   1   9
ATOM      9  C   UNL     1     -11.676  13.676  68.416  0.00  0.00    +0.019 A 
ATOM     10  C   UNL     1     -11.193  12.375  68.479  0.00  0.00    -0.001 A 
ATOM     11  C   UNL     1     -11.211  11.507  67.423  0.00  0.00    -0.000 A 
ATOM     12  C   UNL     1     -11.663  11.949  66.201  0.00  0.00    -0.000 A 
ATOM     13  C   UNL     1     -11.755  13.324  66.023  0.00  0.00    -0.000 A 
ATOM     14  C   UNL     1     -11.958  14.133  67.133  0.00  0.00    -0.001 A 
ENDBRANCH   1   9
BRANCH   1  15
ATOM     15  C   UNL     1     -10.994  15.999  68.899  0.00  0.00    +0.353 C 
ATOM     16  O   UNL     1     -12.081  16.644  68.762  0.00  0.00    -0.247 OA
BRANCH  15  17
ATOM     17  O   UNL     1      -9.949  16.856  69.036  0.00  0.00    -0.444 OA
BRANCH  17  21
ATOM     18  C   UNL     1      -9.682  20.647  67.248  0.00  0.00    +0.171 C 
ATOM     19  N   UNL     1      -9.622  19.931  67.126  0.00  0.00    +0.309 N 
ATOM     20  C   UNL     1      -9.873  19.123  68.322  0.00  0.00    +0.153 C 
ATOM     21  C   UNL     1      -9.435  17.619  67.804  0.00  0.00    +0.224 C 
ATOM     22  C   UNL     1      -7.934  17.776  68.469  0.00  0.00    +0.056 C 
ATOM     23  C   UNL     1      -7.470  19.116  67.908  0.00  0.00    +0.065 C 
ATOM     24  C   UNL     1      -8.295  19.498  66.683  0.00  0.00    +0.109 C 
ATOM     25  C   UNL     1     -10.539  19.552  66.052  0.00  0.00    +0.171 C 
ENDBRANCH  17  21
ENDBRANCH  15  17
ENDBRANCH   1  15
TORSDOF 5
ENDMDL
MODEL 6
REMARK VINA RESULT:      -6.8      3.335      6.135
REMARK  Name = 
REMARK  5 active torsions:
REMARK  status: ('A' for Active; 'I' for Inactive)
REMARK    1  A    between atoms: C_7  and  O_8
REMARK    2  A    between atoms: O_8  and  C_9
REMARK    3  A    between atoms: C_9  and  C_11
REMARK    4  A    between atoms: C_11  and  C_13
REMARK    5  A    between atoms: C_11  and  C_19
REMARK                            x       y       z     vdW  Elec       q    Type
REMARK                         _______ _______ _______ _____ _____    ______ ____
ROOT
ATOM      1  C   UNL     1     -10.395  13.122  67.457  0.00  0.00    +0.252 C 
ATOM      2  O   UNL     1      -9.239  13.717  66.925  0.00  0.00    -0.205 OA
ENDROOT
BRANCH   1   3
ATOM      3  C   UNL     1     -10.129  11.732  67.867  0.00  0.00    +0.019 A 
ATOM      4  C   UNL     1      -8.834  11.446  68.288  0.00  0.00    -0.001 A 
ATOM      5  C   UNL     1      -8.534  10.388  69.101  0.00  0.00    -0.000 A 
ATOM      6  C   UNL     1      -9.555   9.818  69.843  0.00  0.00    -0.000 A 
ATOM      7  C   UNL     1     -10.846   9.995  69.406  0.00  0.00    -0.000 A 
ATOM      8  C   UNL     1     -11.105  10.914  68.425  0.00  0.00    -0.001 A 
ENDBRANCH   1   3
BRANCH   1   9
ATOM      9  C   UNL     1     -11.417  13.108  66.363  0.00  0.00    +0.019 A 
ATOM     10  C   UNL     1     -11.246  12.090  65.432  0.00  0.00    -0.001 A 
ATOM     11  C   UNL     1     -11.700  12.156  64.144  0.00  0.00    -0.000 A 
ATOM     12  C   UNL     1     -12.299  13.314  63.704  0.00  0.00    -0.000 A 
ATOM     13  C   UNL     1     -12.107  14.455  64.475  0.00  0.00    -0.000 A 
ATOM     14  C   UNL     1     -11.864  14.313  65.835  0.00  0.00    -0.001 A 
ENDBRANCH   1   9
BRANCH   1  15
ATOM     15  C   UNL     1     -10.809  13.970  68.594  0.00  0.00    +0.353 C 
ATOM     16  O   UNL     1     -10.358  15.156  68.658  0.00  0.00    -0.247 OA
BRANCH  15  17
ATOM     17  O   UNL     1     -11.969  13.866  69.293  0.00  0.00    -0.444 OA
BRANCH  17  21
ATOM     18  C   UNL     1     -13.846  15.848  72.486  0.00  0.00    +0.171 C 
ATOM     19  N   UNL     1     -13.246  15.483  72.288  0.00  0.00    +0.309 N 
ATOM     20  C   UNL     1     -13.280  15.043  70.891  0.00  0.00    +0.153 C 
ATOM     21  C   UNL     1     -11.951  14.070  70.817  0.00  0.00    +0.224 C 
ATOM     22  C   UNL     1     -12.868  12.720  71.056  0.00  0.00    +0.056 C 
ATOM     23  C   UNL     1     -13.672  13.090  72.297  0.00  0.00    +0.065 C 
ATOM     24  C   UNL     1     -13.010  14.248  73.038  0.00  0.00    +0.109 C 
ATOM     25  C   UNL     1     -12.074  16.322  72.530  0.00  0.00    +0.171 C 
ENDBRANCH  17  21
ENDBRANCH  15  17
ENDBRANCH   1  15
TORSDOF 5
ENDMDL
MODEL 7
REMARK VINA RESULT:      -6.7      1.829      4.820
REMARK  Name = 
REMARK  5 active torsions:
REMARK  status: ('A' for Active; 'I' for Inactive)
REMARK    1  A    between atoms: C_7  and  O_8
REMARK    2  A    between atoms: O_8  and  C_9
REMARK    3  A    between atoms: C_9  and  C_11
REMARK    4  A    between atoms: C_11  and  C_13
REMARK    5  A    between atoms: C_11  and  C_19
REMARK                            x       y       z     vdW  Elec       q    Type
REMARK                         _______ _______ _______ _____ _____    ______ ____
ROOT
ATOM      1  C   UNL     1     -10.359  13.762  66.838  0.00  0.00    +0.252 C 
ATOM      2  O   UNL     1      -9.219  13.175  67.412  0.00  0.00    -0.205 OA
ENDROOT
BRANCH   1   3
ATOM      3  C   UNL     1     -11.353  14.097  67.873  0.00  0.00    +0.019 A 
ATOM      4  C   UNL     1     -11.573  13.139  68.856  0.00  0.00    -0.001 A 
ATOM      5  C   UNL     1     -12.084  13.442  70.088  0.00  0.00    -0.000 A 
ATOM      6  C   UNL     1     -12.017  14.756  70.523  0.00  0.00    -0.000 A 
ATOM      7  C   UNL     1     -11.897  15.744  69.575  0.00  0.00    -0.000 A 
ATOM      8  C   UNL     1     -11.597  15.403  68.283  0.00  0.00    -0.001 A 
ENDBRANCH   1   3
BRANCH   1   9
ATOM      9  C   UNL     1     -10.955  12.741  65.919  0.00  0.00    +0.019 A 
ATOM     10  C   UNL     1     -10.085  12.271  64.943  0.00  0.00    -0.001 A 
ATOM     11  C   UNL     1     -10.496  11.754  63.746  0.00  0.00    -0.000 A 
ATOM     12  C   UNL     1     -11.837  11.756  63.441  0.00  0.00    -0.000 A 
ATOM     13  C   UNL     1     -12.656  12.579  64.206  0.00  0.00    -0.000 A 
ATOM     14  C   UNL     1     -12.274  12.886  65.505  0.00  0.00    -0.001 A 
ENDBRANCH   1   9
BRANCH   1  15
ATOM     15  C   UNL     1      -9.886  14.957  66.110  0.00  0.00    +0.353 C 
ATOM     16  O   UNL     1     -10.737  15.651  65.470  0.00  0.00    -0.247 OA
BRANCH  15  17
ATOM     17  O   UNL     1      -8.801  15.712  66.426  0.00  0.00    -0.444 OA
BRANCH  17  21
ATOM     18  C   UNL     1      -8.971  19.298  68.606  0.00  0.00    +0.171 C 
ATOM     19  N   UNL     1      -9.080  19.001  67.950  0.00  0.00    +0.309 N 
ATOM     20  C   UNL     1      -8.794  17.564  67.918  0.00  0.00    +0.153 C 
ATOM     21  C   UNL     1      -8.888  17.242  66.303  0.00  0.00    +0.224 C 
ATOM     22  C   UNL     1      -7.252  17.369  66.134  0.00  0.00    +0.056 C 
ATOM     23  C   UNL     1      -6.962  18.714  66.792  0.00  0.00    +0.065 C 
ATOM     24  C   UNL     1      -8.235  19.549  66.886  0.00  0.00    +0.109 C 
ATOM     25  C   UNL     1     -10.457  19.256  67.531  0.00  0.00    +0.171 C 
ENDBRANCH  17  21
ENDBRANCH  15  17
ENDBRANCH   1  15
TORSDOF 5
ENDMDL
MODEL 8
REMARK VINA RESULT:      -6.7      3.820      7.101
REMARK  Name = 
REMARK  5 active torsions:
REMARK  status: ('A' for Active; 'I' for Inactive)
REMARK    1  A    between atoms: C_7  and  O_8
REMARK    2  A    between atoms: O_8  and  C_9
REMARK    3  A    between atoms: C_9  and  C_11
REMARK    4  A    between atoms: C_11  and  C_13
REMARK    5  A    between atoms: C_11  and  C_19
REMARK                            x       y       z     vdW  Elec       q    Type
REMARK                         _______ _______ _______ _____ _____    ______ ____
ROOT
ATOM      1  C   UNL     1     -10.659  12.774  67.955  0.00  0.00    +0.252 C 
ATOM      2  O   UNL     1      -9.302  12.722  68.311  0.00  0.00    -0.205 OA
ENDROOT
BRANCH   1   3
ATOM      3  C   UNL     1     -10.814  12.881  66.493  0.00  0.00    +0.019 A 
ATOM      4  C   UNL     1      -9.960  12.103  65.720  0.00  0.00    -0.001 A 
ATOM      5  C   UNL     1     -10.248  11.736  64.434  0.00  0.00    -0.000 A 
ATOM      6  C   UNL     1     -11.567  11.794  64.014  0.00  0.00    -0.000 A 
ATOM      7  C   UNL     1     -12.424  12.628  64.692  0.00  0.00    -0.000 A 
ATOM      8  C   UNL     1     -12.032  13.169  65.887  0.00  0.00    -0.001 A 
ENDBRANCH   1   3
BRANCH   1   9
ATOM      9  C   UNL     1     -11.225  14.008  68.585  0.00  0.00    +0.019 A 
ATOM     10  C   UNL     1     -10.301  15.028  68.781  0.00  0.00    -0.001 A 
ATOM     11  C   UNL     1     -10.431  15.996  69.736  0.00  0.00    -0.000 A 
ATOM     12  C   UNL     1     -11.491  15.936  70.611  0.00  0.00    -0.000 A 
ATOM     13  C   UNL     1     -12.172  14.727  70.693  0.00  0.00    -0.000 A 
ATOM     14  C   UNL     1     -12.178  13.883  69.590  0.00  0.00    -0.001 A 
ENDBRANCH   1   9
BRANCH   1  15
ATOM     15  C   UNL     1     -11.274  11.542  68.492  0.00  0.00    +0.353 C 
ATOM     16  O   UNL     1     -11.896  10.778  67.689  0.00  0.00    -0.247 OA
BRANCH  15  17
ATOM     17  O   UNL     1     -10.855  10.844  69.581  0.00  0.00    -0.444 OA
BRANCH  17  21
ATOM     18  C   UNL     1     -11.091   7.834  72.500  0.00  0.00    +0.171 C 
ATOM     19  N   UNL     1     -11.337   8.043  71.846  0.00  0.00    +0.309 N 
ATOM     20  C   UNL     1     -10.773   9.321  71.405  0.00  0.00    +0.153 C 
ATOM     21  C   UNL     1     -11.676   9.637  70.061  0.00  0.00    +0.224 C 
ATOM     22  C   UNL     1     -12.696  10.610  70.917  0.00  0.00    +0.056 C 
ATOM     23  C   UNL     1     -13.077   9.722  72.096  0.00  0.00    +0.065 C 
ATOM     24  C   UNL     1     -12.784   8.259  71.782  0.00  0.00    +0.109 C 
ATOM     25  C   UNL     1     -11.050   6.994  70.869  0.00  0.00    +0.171 C 
ENDBRANCH  17  21
ENDBRANCH  15  17
ENDBRANCH   1  15
TORSDOF 5
ENDMDL
MODEL 9
REMARK VINA RESULT:      -6.7      2.478      5.917
REMARK  Name = 
REMARK  5 active torsions:
REMARK  status: ('A' for Active; 'I' for Inactive)
REMARK    1  A    between atoms: C_7  and  O_8
REMARK    2  A    between atoms: O_8  and  C_9
REMARK    3  A    between atoms: C_9  and  C_11
REMARK    4  A    between atoms: C_11  and  C_13
REMARK    5  A    between atoms: C_11  and  C_19
REMARK                            x       y       z     vdW  Elec       q    Type
REMARK                         _______ _______ _______ _____ _____    ______ ____
ROOT
ATOM      1  C   UNL     1     -10.041  16.028  67.996  0.00  0.00    +0.252 C 
ATOM      2  O   UNL     1      -8.919  15.430  68.593  0.00  0.00    -0.205 OA
ENDROOT
BRANCH   1   3
ATOM      3  C   UNL     1      -9.959  17.497  68.077  0.00  0.00    +0.019 A 
ATOM      4  C   UNL     1      -8.737  18.029  68.472  0.00  0.00    -0.001 A 
ATOM      5  C   UNL     1      -8.351  19.307  68.173  0.00  0.00    -0.000 A 
ATOM      6  C   UNL     1      -8.994  19.961  67.135  0.00  0.00    -0.000 A 
ATOM      7  C   UNL     1     -10.248  19.528  66.777  0.00  0.00    -0.000 A 
ATOM      8  C   UNL     1     -10.713  18.336  67.265  0.00  0.00    -0.001 A 
ENDBRANCH   1   3
BRANCH   1   9
ATOM      9  C   UNL     1     -11.238  15.573  68.772  0.00  0.00    +0.019 A 
ATOM     10  C   UNL     1     -11.420  16.232  69.982  0.00  0.00    -0.001 A 
ATOM     11  C   UNL     1     -12.091  15.694  71.045  0.00  0.00    -0.000 A 
ATOM     12  C   UNL     1     -12.557  14.402  70.957  0.00  0.00    -0.000 A 
ATOM     13  C   UNL     1     -12.034  13.611  69.941  0.00  0.00    -0.000 A 
ATOM     14  C   UNL     1     -11.567  14.223  68.786  0.00  0.00    -0.001 A 
ENDBRANCH   1   9
BRANCH   1  15
ATOM     15  C   UNL     1     -10.068  15.547  66.598  0.00  0.00    +0.353 C 
ATOM     16  O   UNL     1      -8.968  15.473  65.965  0.00  0.00    -0.247 OA
BRANCH  15  17
ATOM     17  O   UNL     1     -10.984  14.703  66.057  0.00  0.00    -0.444 OA
BRANCH  17  21
ATOM     18  C   UNL     1     -10.736  10.618  65.112  0.00  0.00    +0.171 C 
ATOM     19  N   UNL     1     -10.496  11.282  64.930  0.00  0.00    +0.309 N 
ATOM     20  C   UNL     1     -11.058  12.343  65.768  0.00  0.00    +0.153 C 
ATOM     21  C   UNL     1     -10.539  13.698  64.982  0.00  0.00    +0.224 C 
ATOM     22  C   UNL     1     -11.975  13.842  64.184  0.00  0.00    +0.056 C 
ATOM     23  C   UNL     1     -12.160  12.447  63.596  0.00  0.00    +0.065 C 
ATOM     24  C   UNL     1     -10.832  11.698  63.567  0.00  0.00    +0.109 C 
ATOM     25  C   UNL     1      -9.035  11.297  64.998  0.00  0.00    +0.171 C 
ENDBRANCH  17  21
ENDBRANCH  15  17
ENDBRANCH   1  15
TORSDOF 5
ENDMDL
