MODEL 1
REMARK VINA RESULT:      -4.5      0.000      0.000
REMARK  Name = 
REMARK  3 active torsions:
REMARK  status: ('A' for Active; 'I' for Inactive)
REMARK    1  A    between atoms: CA_2  and  CB_3
REMARK    2  A    between atoms: CA_2  and  C_7
REMARK    3  A    between atoms: CB_3  and  CG_4
REMARK                            x       y       z     vdW  Elec       q    Type
REMARK                         _______ _______ _______ _____ _____    ______ ____
ROOT
ATOM      1  N   ASP A   1     -13.126  13.931  65.385  0.00  0.00    -0.120 NA
ATOM      2  CA  ASP A   1     -12.262  14.210  64.093  0.00  0.00    +0.206 C 
ENDROOT
BRANCH   2   3
ATOM      3  C   ASP A   1     -11.944  12.652  63.833  0.00  0.00    +0.382 C 
ATOM      4  OXT ASP A   1     -10.750  12.296  63.284  0.00  0.00    -0.244 OA
ATOM      5  O   ASP A   1     -12.922  11.995  63.359  0.00  0.00    -0.244 OA
ENDBRANCH   2   3
BRANCH   2   6
ATOM      6  CB  ASP A   1     -10.896  14.416  64.994  0.00  0.00    +0.145 C 
BRANCH   6   7
ATOM      7  CG  ASP A   1     -10.872  15.916  64.984  0.00  0.00    +0.367 C 
ATOM      8  OD2 ASP A   1     -11.538  16.583  63.957  0.00  0.00    -0.246 OA
ATOM      9  OD1 ASP A   1      -9.856  16.476  65.439  0.00  0.00    -0.246 OA
ENDBRANCH   6   7
ENDBRANCH   2   6
TORSDOF 3
ENDMDL
MODEL 2
REMARK VINA RESULT:      -4.5      1.452      1.676
REMARK  Name = 
REMARK  3 active torsions:
REMARK  status: ('A' for Active; 'I' for Inactive)
REMARK    1  A    between atoms: CA_2  and  CB_3
REMARK    2  A    between atoms: CA_2  and  C_7
REMARK    3  A    between atoms: CB_3  and  CG_4
REMARK                            x       y       z     vdW  Elec       q    Type
REMARK                         _______ _______ _______ _____ _____    ______ ____
ROOT
ATOM      1  N   ASP A   1     -11.842  14.096  67.057  0.00  0.00    -0.120 NA
ATOM      2  CA  ASP A   1     -12.371  14.307  65.585  0.00  0.00    +0.206 C 
ENDROOT
BRANCH   2   3
ATOM      3  C   ASP A   1     -12.337  12.736  65.227  0.00  0.00    +0.382 C 
ATOM      4  OXT ASP A   1     -13.265  12.224  64.374  0.00  0.00    -0.244 OA
ATOM      5  O   ASP A   1     -12.112  11.982  66.225  0.00  0.00    -0.244 OA
ENDBRANCH   2   3
BRANCH   2   6
ATOM      6  CB  ASP A   1     -10.842  14.547  65.017  0.00  0.00    +0.145 C 
BRANCH   6   7
ATOM      7  CG  ASP A   1     -10.877  16.046  64.970  0.00  0.00    +0.367 C 
ATOM      8  OD2 ASP A   1     -11.575  16.660  63.932  0.00  0.00    -0.246 OA
ATOM      9  OD1 ASP A   1      -9.880  16.656  65.403  0.00  0.00    -0.246 OA
ENDBRANCH   6   7
ENDBRANCH   2   6
TORSDOF 3
ENDMDL
MODEL 3
REMARK VINA RESULT:      -4.4      1.911      4.042
REMARK  Name = 
REMARK  3 active torsions:
REMARK  status: ('A' for Active; 'I' for Inactive)
REMARK    1  A    between atoms: CA_2  and  CB_3
REMARK    2  A    between atoms: CA_2  and  C_7
REMARK    3  A    between atoms: CB_3  and  CG_4
REMARK                            x       y       z     vdW  Elec       q    Type
REMARK                         _______ _______ _______ _____ _____    ______ ____
ROOT
ATOM      1  N   ASP A   1      -9.560  14.554  66.129  0.00  0.00    -0.120 NA
ATOM      2  CA  ASP A   1     -10.648  14.464  64.988  0.00  0.00    +0.206 C 
ENDROOT
BRANCH   2   3
ATOM      3  C   ASP A   1     -10.931  16.051  64.980  0.00  0.00    +0.382 C 
ATOM      4  OXT ASP A   1     -11.570  16.610  63.916  0.00  0.00    -0.244 OA
ATOM      5  O   ASP A   1      -9.958  16.754  65.398  0.00  0.00    -0.244 OA
ENDBRANCH   2   3
BRANCH   2   6
ATOM      6  CB  ASP A   1     -11.845  14.181  66.086  0.00  0.00    +0.145 C 
BRANCH   6   7
ATOM      7  CG  ASP A   1     -12.149  12.766  65.691  0.00  0.00    +0.367 C 
ATOM      8  OD2 ASP A   1     -13.149  12.542  64.747  0.00  0.00    -0.246 OA
ATOM      9  OD1 ASP A   1     -12.001  11.884  66.560  0.00  0.00    -0.246 OA
ENDBRANCH   6   7
ENDBRANCH   2   6
TORSDOF 3
ENDMDL
MODEL 4
REMARK VINA RESULT:      -4.1      1.492      3.839
REMARK  Name = 
REMARK  3 active torsions:
REMARK  status: ('A' for Active; 'I' for Inactive)
REMARK    1  A    between atoms: CA_2  and  CB_3
REMARK    2  A    between atoms: CA_2  and  C_7
REMARK    3  A    between atoms: CB_3  and  CG_4
REMARK                            x       y       z     vdW  Elec       q    Type
REMARK                         _______ _______ _______ _____ _____    ______ ____
ROOT
ATOM      1  N   ASP A   1     -12.528  14.238  63.835  0.00  0.00    -0.120 NA
ATOM      2  CA  ASP A   1     -11.836  14.545  65.220  0.00  0.00    +0.206 C 
ENDROOT
BRANCH   2   3
ATOM      3  C   ASP A   1     -11.003  15.803  64.652  0.00  0.00    +0.382 C 
ATOM      4  OXT ASP A   1     -10.113  16.437  65.464  0.00  0.00    -0.244 OA
ATOM      5  O   ASP A   1     -11.691  16.607  63.949  0.00  0.00    -0.244 OA
ENDBRANCH   2   3
BRANCH   2   6
ATOM      6  CB  ASP A   1     -10.610  13.491  64.895  0.00  0.00    +0.145 C 
BRANCH   6   7
ATOM      7  CG  ASP A   1     -11.369  12.220  65.136  0.00  0.00    +0.367 C 
ATOM      8  OD2 ASP A   1     -12.014  12.055  66.360  0.00  0.00    -0.246 OA
ATOM      9  OD1 ASP A   1     -10.938  11.183  64.595  0.00  0.00    -0.246 OA
ENDBRANCH   6   7
ENDBRANCH   2   6
TORSDOF 3
ENDMDL
MODEL 5
REMARK VINA RESULT:      -4.0      7.209      8.194
REMARK  Name = 
REMARK  3 active torsions:
REMARK  status: ('A' for Active; 'I' for Inactive)
REMARK    1  A    between atoms: CA_2  and  CB_3
REMARK    2  A    between atoms: CA_2  and  C_7
REMARK    3  A    between atoms: CB_3  and  CG_4
REMARK                            x       y       z     vdW  Elec       q    Type
REMARK                         _______ _______ _______ _____ _____    ______ ____
ROOT
ATOM      1  N   ASP A   1     -13.956  13.829  72.573  0.00  0.00    -0.120 NA
ATOM      2  CA  ASP A   1     -12.588  14.558  72.278  0.00  0.00    +0.206 C 
ENDROOT
BRANCH   2   3
ATOM      3  C   ASP A   1     -12.868  15.750  73.327  0.00  0.00    +0.382 C 
ATOM      4  OXT ASP A   1     -12.493  15.598  74.626  0.00  0.00    -0.244 OA
ATOM      5  O   ASP A   1     -14.009  16.294  73.201  0.00  0.00    -0.244 OA
ENDBRANCH   2   3
BRANCH   2   6
ATOM      6  CB  ASP A   1     -13.252  15.402  71.027  0.00  0.00    +0.145 C 
BRANCH   6   7
ATOM      7  CG  ASP A   1     -12.048  15.417  70.132  0.00  0.00    +0.367 C 
ATOM      8  OD2 ASP A   1     -12.033  16.303  69.057  0.00  0.00    -0.246 OA
ATOM      9  OD1 ASP A   1     -11.441  14.340  69.970  0.00  0.00    -0.246 OA
ENDBRANCH   6   7
ENDBRANCH   2   6
TORSDOF 3
ENDMDL
MODEL 6
REMARK VINA RESULT:      -4.0      7.051      7.690
REMARK  Name = 
REMARK  3 active torsions:
REMARK  status: ('A' for Active; 'I' for Inactive)
REMARK    1  A    between atoms: CA_2  and  CB_3
REMARK    2  A    between atoms: CA_2  and  C_7
REMARK    3  A    between atoms: CB_3  and  CG_4
REMARK                            x       y       z     vdW  Elec       q    Type
REMARK                         _______ _______ _______ _____ _____    ______ ____
ROOT
ATOM      1  N   ASP A   1     -12.146  15.257  73.680  0.00  0.00    -0.120 NA
ATOM      2  CA  ASP A   1     -12.658  15.939  72.352  0.00  0.00    +0.206 C 
ENDROOT
BRANCH   2   3
ATOM      3  C   ASP A   1     -14.069  15.161  72.363  0.00  0.00    +0.382 C 
ATOM      4  OXT ASP A   1     -14.090  13.818  72.583  0.00  0.00    -0.244 OA
ATOM      5  O   ASP A   1     -14.869  15.524  71.445  0.00  0.00    -0.244 OA
ENDBRANCH   2   3
BRANCH   2   6
ATOM      6  CB  ASP A   1     -11.941  14.780  71.424  0.00  0.00    +0.145 C 
BRANCH   6   7
ATOM      7  CG  ASP A   1     -11.368  15.688  70.375  0.00  0.00    +0.367 C 
ATOM      8  OD2 ASP A   1     -12.207  16.138  69.358  0.00  0.00    -0.246 OA
ATOM      9  OD1 ASP A   1     -10.169  15.529  70.073  0.00  0.00    -0.246 OA
ENDBRANCH   6   7
ENDBRANCH   2   6
TORSDOF 3
ENDMDL
MODEL 7
REMARK VINA RESULT:      -4.0      3.120      5.262
REMARK  Name = 
REMARK  3 active torsions:
REMARK  status: ('A' for Active; 'I' for Inactive)
REMARK    1  A    between atoms: CA_2  and  CB_3
REMARK    2  A    between atoms: CA_2  and  C_7
REMARK    3  A    between atoms: CB_3  and  CG_4
REMARK                            x       y       z     vdW  Elec       q    Type
REMARK                         _______ _______ _______ _____ _____    ______ ____
ROOT
ATOM      1  N   ASP A   1      -8.660  17.984  66.103  0.00  0.00    -0.120 NA
ATOM      2  CA  ASP A   1     -10.230  17.887  65.970  0.00  0.00    +0.206 C 
ENDROOT
BRANCH   2   3
ATOM      3  C   ASP A   1     -10.497  18.273  67.513  0.00  0.00    +0.382 C 
ATOM      4  OXT ASP A   1     -11.073  17.359  68.340  0.00  0.00    -0.244 OA
ATOM      5  O   ASP A   1     -10.948  19.448  67.683  0.00  0.00    -0.244 OA
ENDBRANCH   2   3
BRANCH   2   6
ATOM      6  CB  ASP A   1     -10.207  16.272  66.300  0.00  0.00    +0.145 C 
BRANCH   6   7
ATOM      7  CG  ASP A   1     -10.941  15.806  65.077  0.00  0.00    +0.367 C 
ATOM      8  OD2 ASP A   1     -10.655  14.538  64.575  0.00  0.00    -0.246 OA
ATOM      9  OD1 ASP A   1     -11.268  16.671  64.241  0.00  0.00    -0.246 OA
ENDBRANCH   6   7
ENDBRANCH   2   6
TORSDOF 3
ENDMDL
MODEL 8
REMARK VINA RESULT:      -3.9      2.667      3.779
REMARK  Name = 
REMARK  3 active torsions:
REMARK  status: ('A' for Active; 'I' for Inactive)
REMARK    1  A    between atoms: CA_2  and  CB_3
REMARK    2  A    between atoms: CA_2  and  C_7
REMARK    3  A    between atoms: CB_3  and  CG_4
REMARK                            x       y       z     vdW  Elec       q    Type
REMARK                         _______ _______ _______ _____ _____    ______ ____
ROOT
ATOM      1  N   ASP A   1      -9.098  15.240  66.231  0.00  0.00    -0.120 NA
ATOM      2  CA  ASP A   1     -10.539  15.844  66.453  0.00  0.00    +0.206 C 
ENDROOT
BRANCH   2   3
ATOM      3  C   ASP A   1     -10.953  15.721  64.900  0.00  0.00    +0.382 C 
ATOM      4  OXT ASP A   1     -11.378  16.827  64.232  0.00  0.00    -0.244 OA
ATOM      5  O   ASP A   1     -11.635  14.684  64.625  0.00  0.00    -0.244 OA
ENDBRANCH   2   3
BRANCH   2   6
ATOM      6  CB  ASP A   1      -9.977  17.381  66.259  0.00  0.00    +0.145 C 
BRANCH   6   7
ATOM      7  CG  ASP A   1     -10.533  17.960  67.527  0.00  0.00    +0.367 C 
ATOM      8  OD2 ASP A   1     -11.160  17.103  68.428  0.00  0.00    -0.246 OA
ATOM      9  OD1 ASP A   1     -10.966  19.128  67.482  0.00  0.00    -0.246 OA
ENDBRANCH   6   7
ENDBRANCH   2   6
TORSDOF 3
ENDMDL
MODEL 9
REMARK VINA RESULT:      -3.9      1.585      1.967
REMARK  Name = 
REMARK  3 active torsions:
REMARK  status: ('A' for Active; 'I' for Inactive)
REMARK    1  A    between atoms: CA_2  and  CB_3
REMARK    2  A    between atoms: CA_2  and  C_7
REMARK    3  A    between atoms: CB_3  and  CG_4
REMARK                            x       y       z     vdW  Elec       q    Type
REMARK                         _______ _______ _______ _____ _____    ______ ____
ROOT
ATOM      1  N   ASP A   1     -11.207  12.837  66.618  0.00  0.00    -0.120 NA
ATOM      2  CA  ASP A   1     -11.795  14.173  66.017  0.00  0.00    +0.206 C 
ENDROOT
BRANCH   2   3
ATOM      3  C   ASP A   1     -12.290  13.473  64.652  0.00  0.00    +0.382 C 
ATOM      4  OXT ASP A   1     -12.611  14.249  63.582  0.00  0.00    -0.244 OA
ATOM      5  O   ASP A   1     -13.102  12.512  64.828  0.00  0.00    -0.244 OA
ENDBRANCH   2   3
BRANCH   2   6
ATOM      6  CB  ASP A   1     -10.335  14.579  65.367  0.00  0.00    +0.145 C 
BRANCH   6   7
ATOM      7  CG  ASP A   1     -10.362  16.040  65.708  0.00  0.00    +0.367 C 
ATOM      8  OD2 ASP A   1     -10.540  16.407  67.040  0.00  0.00    -0.246 OA
ATOM      9  OD1 ASP A   1     -10.827  16.819  64.853  0.00  0.00    -0.246 OA
ENDBRANCH   6   7
ENDBRANCH   2   6
TORSDOF 3
ENDMDL
