MODEL 1
REMARK VINA RESULT:      -7.0      0.000      0.000
REMARK  Name = 
REMARK  10 active torsions:
REMARK  status: ('A' for Active; 'I' for Inactive)
REMARK    1  A    between atoms: O_2  and  C_3
REMARK    2  A    between atoms: C_8  and  O_9
REMARK    3  A    between atoms: C_11  and  C_12
REMARK    4  A    between atoms: C_12  and  N_13
REMARK    5  A    between atoms: N_13  and  C_15
REMARK    6  A    between atoms: C_15  and  C_16
REMARK    7  A    between atoms: C_16  and  C_17
REMARK    8  A    between atoms: C_17  and  N_18
REMARK    9  A    between atoms: C_23  and  O_24
REMARK   10  A    between atoms: C_26  and  O_27
REMARK                            x       y       z     vdW  Elec       q    Type
REMARK                         _______ _______ _______ _____ _____    ______ ____
ROOT
ATOM      1  C   UNL     1      -9.895  15.504  65.368  0.00  0.00    +0.039 C 
ENDROOT
BRANCH   1   2
ATOM      2  C   UNL     1     -10.849  14.328  65.485  0.00  0.00    +0.095 C 
BRANCH   2   3
ATOM      3  N   UNL     1     -10.549  13.551  66.684  0.00  0.00    -0.279 N 
ATOM      4  C   UNL     1     -11.165  12.263  66.805  0.00  0.00    +0.230 C 
ATOM      5  O   UNL     1     -12.044  12.004  65.928  0.00  0.00    -0.275 OA
ATOM      6  C   UNL     1     -11.083  11.393  68.004  0.00  0.00    +0.111 C 
ATOM      7  C   UNL     1     -11.553  12.091  69.213  0.00  0.00    -0.014 A 
ATOM      8  C   UNL     1     -11.535  13.447  69.418  0.00  0.00    -0.021 A 
ATOM      9  C   UNL     1     -12.277  13.898  70.506  0.00  0.00    +0.036 A 
ATOM     10  C   UNL     1     -12.885  13.026  71.393  0.00  0.00    +0.172 A 
ATOM     11  C   UNL     1     -12.882  11.665  71.134  0.00  0.00    +0.172 A 
ATOM     12  C   UNL     1     -10.824  14.586  68.845  0.00  0.00    +0.048 C 
ATOM     13  C   UNL     1     -12.473  11.282  69.870  0.00  0.00    +0.036 A 
ATOM     14  C   UNL     1      -9.870  14.288  67.744  0.00  0.00    +0.098 C 
BRANCH  11  15
ATOM     15  O   UNL     1     -13.200  10.745  72.137  0.00  0.00    -0.468 OA
ATOM     16  C   UNL     1     -13.115   9.364  71.791  0.00  0.00    +0.253 C 
ENDBRANCH  11  15
BRANCH  10  17
ATOM     17  O   UNL     1     -13.234  13.403  72.692  0.00  0.00    -0.468 OA
ATOM     18  C   UNL     1     -13.230  14.782  72.983  0.00  0.00    +0.253 C 
ENDBRANCH  10  17
ENDBRANCH   2   3
ENDBRANCH   1   2
BRANCH   1  19
ATOM     19  C   UNL     1     -10.720  16.758  65.364  0.00  0.00    +0.074 C 
BRANCH  19  20
ATOM     20  N   UNL     1     -10.199  17.797  66.204  0.00  0.00    -0.271 NA
ATOM     21  C   UNL     1     -10.604  19.120  65.841  0.00  0.00    +0.090 C 
BRANCH  20  22
ATOM     22  C   UNL     1      -8.782  17.660  66.483  0.00  0.00    +0.077 C 
BRANCH  22  27
ATOM     23  C   UNL     1      -5.562  20.434  69.272  0.00  0.00    +0.172 A 
ATOM     24  C   UNL     1      -5.892  20.969  68.035  0.00  0.00    +0.172 A 
ATOM     25  C   UNL     1      -6.977  20.432  67.355  0.00  0.00    +0.036 A 
ATOM     26  C   UNL     1      -7.411  19.193  67.660  0.00  0.00    -0.022 A 
ATOM     27  C   UNL     1      -8.766  18.363  67.998  0.00  0.00    +0.042 C 
ATOM     28  C   UNL     1      -7.709  17.237  68.592  0.00  0.00    +0.032 C 
ATOM     29  C   UNL     1      -6.981  18.525  68.801  0.00  0.00    -0.023 A 
ATOM     30  C   UNL     1      -6.140  19.239  69.643  0.00  0.00    +0.035 A 
BRANCH  24  31
ATOM     31  O   UNL     1      -4.933  21.763  67.397  0.00  0.00    -0.468 OA
ATOM     32  C   UNL     1      -3.772  21.196  66.794  0.00  0.00    +0.253 C 
ENDBRANCH  24  31
BRANCH  23  34
ATOM     33  C   UNL     1      -4.521  21.344  70.815  0.00  0.00    +0.253 C 
ATOM     34  O   UNL     1      -5.021  21.334  70.194  0.00  0.00    -0.468 OA
ENDBRANCH  23  34
ENDBRANCH  22  27
ENDBRANCH  20  22
ENDBRANCH  19  20
ENDBRANCH   1  19
TORSDOF 10
ENDMDL
MODEL 2
REMARK VINA RESULT:      -7.0      1.792      9.168
REMARK  Name = 
REMARK  10 active torsions:
REMARK  status: ('A' for Active; 'I' for Inactive)
REMARK    1  A    between atoms: O_2  and  C_3
REMARK    2  A    between atoms: C_8  and  O_9
REMARK    3  A    between atoms: C_11  and  C_12
REMARK    4  A    between atoms: C_12  and  N_13
REMARK    5  A    between atoms: N_13  and  C_15
REMARK    6  A    between atoms: C_15  and  C_16
REMARK    7  A    between atoms: C_16  and  C_17
REMARK    8  A    between atoms: C_17  and  N_18
REMARK    9  A    between atoms: C_23  and  O_24
REMARK   10  A    between atoms: C_26  and  O_27
REMARK                            x       y       z     vdW  Elec       q    Type
REMARK                         _______ _______ _______ _____ _____    ______ ____
ROOT
ATOM      1  C   UNL     1     -11.994  13.840  66.762  0.00  0.00    +0.039 C 
ENDROOT
BRANCH   1   2
ATOM      2  C   UNL     1     -11.139  14.937  66.152  0.00  0.00    +0.095 C 
BRANCH   2   3
ATOM      3  N   UNL     1     -10.853  15.967  67.146  0.00  0.00    -0.279 N 
ATOM      4  C   UNL     1     -10.584  17.289  66.664  0.00  0.00    +0.230 C 
ATOM      5  O   UNL     1     -10.457  17.388  65.406  0.00  0.00    -0.275 OA
ATOM      6  C   UNL     1     -10.147  18.427  67.510  0.00  0.00    +0.111 C 
ATOM      7  C   UNL     1      -8.925  18.103  68.265  0.00  0.00    -0.014 A 
ATOM      8  C   UNL     1      -8.521  16.848  68.643  0.00  0.00    -0.021 A 
ATOM      9  C   UNL     1      -7.209  16.753  69.099  0.00  0.00    +0.036 A 
ATOM     10  C   UNL     1      -6.411  17.870  69.280  0.00  0.00    +0.172 A 
ATOM     11  C   UNL     1      -6.864  19.114  68.873  0.00  0.00    +0.172 A 
ATOM     12  C   UNL     1      -9.158  15.545  68.810  0.00  0.00    +0.048 C 
ATOM     13  C   UNL     1      -8.001  19.127  68.086  0.00  0.00    +0.036 A 
ATOM     14  C   UNL     1     -10.610  15.472  68.497  0.00  0.00    +0.098 C 
BRANCH  11  15
ATOM     15  O   UNL     1      -6.237  20.284  69.314  0.00  0.00    -0.468 OA
ATOM     16  C   UNL     1      -5.347  20.918  68.399  0.00  0.00    +0.253 C 
ENDBRANCH  11  15
BRANCH  10  17
ATOM     17  O   UNL     1      -5.302  17.868  70.129  0.00  0.00    -0.468 OA
ATOM     18  C   UNL     1      -4.867  16.618  70.614  0.00  0.00    +0.253 C 
ENDBRANCH  10  17
ENDBRANCH   2   3
ENDBRANCH   1   2
BRANCH   1  19
ATOM     19  C   UNL     1     -11.560  12.537  66.154  0.00  0.00    +0.074 C 
BRANCH  19  20
ATOM     20  N   UNL     1     -10.178  12.224  66.380  0.00  0.00    -0.271 NA
ATOM     21  C   UNL     1      -9.611  11.309  65.439  0.00  0.00    +0.090 C 
BRANCH  20  22
ATOM     22  C   UNL     1      -9.872  11.925  67.766  0.00  0.00    +0.077 C 
BRANCH  22  27
ATOM     23  C   UNL     1     -12.597   9.980  71.590  0.00  0.00    +0.172 A 
ATOM     24  C   UNL     1     -12.819  11.324  71.325  0.00  0.00    +0.172 A 
ATOM     25  C   UNL     1     -12.346  11.843  70.127  0.00  0.00    +0.036 A 
ATOM     26  C   UNL     1     -11.359  11.206  69.465  0.00  0.00    -0.022 A 
ATOM     27  C   UNL     1     -10.953  10.671  67.985  0.00  0.00    +0.042 C 
ATOM     28  C   UNL     1      -9.849   9.763  68.817  0.00  0.00    +0.032 C 
ATOM     29  C   UNL     1     -10.966   9.915  69.799  0.00  0.00    -0.023 A 
ATOM     30  C   UNL     1     -11.700   9.296  70.800  0.00  0.00    +0.035 A 
BRANCH  24  31
ATOM     31  O   UNL     1     -13.186  12.144  72.397  0.00  0.00    -0.468 OA
ATOM     32  C   UNL     1     -13.800  13.415  72.192  0.00  0.00    +0.253 C 
ENDBRANCH  24  31
BRANCH  23  34
ATOM     33  C   UNL     1     -14.175   8.809  72.249  0.00  0.00    +0.253 C 
ATOM     34  O   UNL     1     -13.589   9.342  72.340  0.00  0.00    -0.468 OA
ENDBRANCH  23  34
ENDBRANCH  22  27
ENDBRANCH  20  22
ENDBRANCH  19  20
ENDBRANCH   1  19
TORSDOF 10
ENDMDL
MODEL 3
REMARK VINA RESULT:      -6.9      1.824      8.581
REMARK  Name = 
REMARK  10 active torsions:
REMARK  status: ('A' for Active; 'I' for Inactive)
REMARK    1  A    between atoms: O_2  and  C_3
REMARK    2  A    between atoms: C_8  and  O_9
REMARK    3  A    between atoms: C_11  and  C_12
REMARK    4  A    between atoms: C_12  and  N_13
REMARK    5  A    between atoms: N_13  and  C_15
REMARK    6  A    between atoms: C_15  and  C_16
REMARK    7  A    between atoms: C_16  and  C_17
REMARK    8  A    between atoms: C_17  and  N_18
REMARK    9  A    between atoms: C_23  and  O_24
REMARK   10  A    between atoms: C_26  and  O_27
REMARK                            x       y       z     vdW  Elec       q    Type
REMARK                         _______ _______ _______ _____ _____    ______ ____
ROOT
ATOM      1  C   UNL     1     -10.275  15.775  65.684  0.00  0.00    +0.039 C 
ENDROOT
BRANCH   1   2
ATOM      2  C   UNL     1     -10.553  17.268  65.710  0.00  0.00    +0.095 C 
BRANCH   2   3
ATOM      3  N   UNL     1     -10.120  17.840  66.983  0.00  0.00    -0.279 N 
ATOM      4  C   UNL     1      -9.444  19.103  66.940  0.00  0.00    +0.230 C 
ATOM      5  O   UNL     1      -9.143  19.512  65.778  0.00  0.00    -0.275 OA
ATOM      6  C   UNL     1      -8.819  19.769  68.109  0.00  0.00    +0.111 C 
ATOM      7  C   UNL     1      -7.834  18.896  68.768  0.00  0.00    -0.014 A 
ATOM      8  C   UNL     1      -7.837  17.524  68.755  0.00  0.00    -0.021 A 
ATOM      9  C   UNL     1      -6.666  16.919  69.204  0.00  0.00    +0.036 A 
ATOM     10  C   UNL     1      -5.622  17.649  69.746  0.00  0.00    +0.172 A 
ATOM     11  C   UNL     1      -5.666  19.033  69.727  0.00  0.00    +0.172 A 
ATOM     12  C   UNL     1      -8.821  16.479  68.492  0.00  0.00    +0.048 C 
ATOM     13  C   UNL     1      -6.651  19.606  68.944  0.00  0.00    +0.036 A 
ATOM     14  C   UNL     1     -10.188  16.933  68.123  0.00  0.00    +0.098 C 
BRANCH  11  15
ATOM     15  O   UNL     1      -4.802  19.787  70.527  0.00  0.00    -0.468 OA
ATOM     16  C   UNL     1      -4.609  21.150  70.154  0.00  0.00    +0.253 C 
ENDBRANCH  11  15
BRANCH  10  17
ATOM     17  O   UNL     1      -4.668  17.075  70.591  0.00  0.00    -0.468 OA
ATOM     18  C   UNL     1      -3.632  16.339  69.983  0.00  0.00    +0.253 C 
ENDBRANCH  10  17
ENDBRANCH   2   3
ENDBRANCH   1   2
BRANCH   1  19
ATOM     19  C   UNL     1     -11.313  15.138  64.805  0.00  0.00    +0.074 C 
BRANCH  19  20
ATOM     20  N   UNL     1     -11.140  13.724  64.636  0.00  0.00    -0.271 NA
ATOM     21  C   UNL     1     -12.339  13.007  64.331  0.00  0.00    +0.090 C 
BRANCH  20  22
ATOM     22  C   UNL     1     -10.325  13.114  65.669  0.00  0.00    +0.077 C 
BRANCH  22  27
ATOM     23  C   UNL     1     -12.047  11.926  70.302  0.00  0.00    +0.172 A 
ATOM     24  C   UNL     1     -12.111  13.272  69.970  0.00  0.00    +0.172 A 
ATOM     25  C   UNL     1     -11.944  13.629  68.639  0.00  0.00    +0.036 A 
ATOM     26  C   UNL     1     -11.326  12.781  67.792  0.00  0.00    -0.022 A 
ATOM     27  C   UNL     1     -11.483  12.103  66.324  0.00  0.00    +0.042 C 
ATOM     28  C   UNL     1     -10.346  11.044  66.893  0.00  0.00    +0.032 C 
ATOM     29  C   UNL     1     -11.072  11.458  68.133  0.00  0.00    -0.023 A 
ATOM     30  C   UNL     1     -11.560  11.043  69.364  0.00  0.00    +0.035 A 
BRANCH  24  31
ATOM     31  O   UNL     1     -11.993  14.201  71.009  0.00  0.00    -0.468 OA
ATOM     32  C   UNL     1     -12.424  15.552  70.859  0.00  0.00    +0.253 C 
ENDBRANCH  24  31
BRANCH  23  34
ATOM     33  C   UNL     1     -13.188  10.870  71.672  0.00  0.00    +0.253 C 
ATOM     34  O   UNL     1     -12.858  11.529  71.369  0.00  0.00    -0.468 OA
ENDBRANCH  23  34
ENDBRANCH  22  27
ENDBRANCH  20  22
ENDBRANCH  19  20
ENDBRANCH   1  19
TORSDOF 10
ENDMDL
MODEL 4
REMARK VINA RESULT:      -6.7      3.041      5.325
REMARK  Name = 
REMARK  10 active torsions:
REMARK  status: ('A' for Active; 'I' for Inactive)
REMARK    1  A    between atoms: O_2  and  C_3
REMARK    2  A    between atoms: C_8  and  O_9
REMARK    3  A    between atoms: C_11  and  C_12
REMARK    4  A    between atoms: C_12  and  N_13
REMARK    5  A    between atoms: N_13  and  C_15
REMARK    6  A    between atoms: C_15  and  C_16
REMARK    7  A    between atoms: C_16  and  C_17
REMARK    8  A    between atoms: C_17  and  N_18
REMARK    9  A    between atoms: C_23  and  O_24
REMARK   10  A    between atoms: C_26  and  O_27
REMARK                            x       y       z     vdW  Elec       q    Type
REMARK                         _______ _______ _______ _____ _____    ______ ____
ROOT
ATOM      1  C   UNL     1     -10.183  10.652  65.715  0.00  0.00    +0.039 C 
ENDROOT
BRANCH   1   2
ATOM      2  C   UNL     1      -8.755  10.760  66.220  0.00  0.00    +0.095 C 
BRANCH   2   3
ATOM      3  N   UNL     1      -8.733  10.747  67.680  0.00  0.00    -0.279 N 
ATOM      4  C   UNL     1      -8.286   9.545  68.320  0.00  0.00    +0.230 C 
ATOM      5  O   UNL     1      -8.114   8.555  67.546  0.00  0.00    -0.275 OA
ATOM      6  C   UNL     1      -8.320   9.301  69.783  0.00  0.00    +0.111 C 
ATOM      7  C   UNL     1      -9.677   9.474  70.330  0.00  0.00    -0.014 A 
ATOM      8  C   UNL     1     -10.663  10.268  69.802  0.00  0.00    -0.021 A 
ATOM      9  C   UNL     1     -11.938  10.063  70.320  0.00  0.00    +0.036 A 
ATOM     10  C   UNL     1     -12.171   9.208  71.384  0.00  0.00    +0.172 A 
ATOM     11  C   UNL     1     -11.142   8.421  71.873  0.00  0.00    +0.172 A 
ATOM     12  C   UNL     1     -10.719  11.401  68.882  0.00  0.00    +0.048 C 
ATOM     13  C   UNL     1      -9.993   8.365  71.106  0.00  0.00    +0.036 A 
ATOM     14  C   UNL     1      -9.423  11.862  68.318  0.00  0.00    +0.098 C 
BRANCH  11  15
ATOM     15  O   UNL     1     -11.251   7.793  73.118  0.00  0.00    -0.468 OA
ATOM     16  C   UNL     1     -10.081   7.148  73.616  0.00  0.00    +0.253 C 
ENDBRANCH  11  15
BRANCH  10  17
ATOM     17  O   UNL     1     -13.303   9.315  72.195  0.00  0.00    -0.468 OA
ATOM     18  C   UNL     1     -14.386   8.462  71.903  0.00  0.00    +0.253 C 
ENDBRANCH  10  17
ENDBRANCH   2   3
ENDBRANCH   1   2
BRANCH   1  19
ATOM     19  C   UNL     1     -10.477  11.892  64.921  0.00  0.00    +0.074 C 
BRANCH  19  20
ATOM     20  N   UNL     1     -11.875  12.195  64.815  0.00  0.00    -0.271 NA
ATOM     21  C   UNL     1     -12.434  11.995  63.514  0.00  0.00    +0.090 C 
BRANCH  20  22
ATOM     22  C   UNL     1     -12.243  13.452  65.437  0.00  0.00    +0.077 C 
BRANCH  22  27
ATOM     23  C   UNL     1     -10.018  17.283  67.930  0.00  0.00    +0.172 A 
ATOM     24  C   UNL     1     -10.640  16.334  68.729  0.00  0.00    +0.172 A 
ATOM     25  C   UNL     1     -11.002  15.124  68.151  0.00  0.00    +0.036 A 
ATOM     26  C   UNL     1     -11.145  15.038  66.814  0.00  0.00    -0.022 A 
ATOM     27  C   UNL     1     -10.718  14.125  65.540  0.00  0.00    +0.042 C 
ATOM     28  C   UNL     1     -11.163  15.457  64.667  0.00  0.00    +0.032 C 
ATOM     29  C   UNL     1     -10.700  16.043  65.962  0.00  0.00    -0.023 A 
ATOM     30  C   UNL     1     -10.033  17.100  66.565  0.00  0.00    +0.035 A 
BRANCH  24  31
ATOM     31  O   UNL     1     -11.170  16.763  69.950  0.00  0.00    -0.468 OA
ATOM     32  C   UNL     1     -11.815  15.860  70.846  0.00  0.00    +0.253 C 
ENDBRANCH  24  31
BRANCH  23  34
ATOM     33  C   UNL     1      -8.569  18.684  68.413  0.00  0.00    +0.253 C 
ATOM     34  O   UNL     1      -9.086  18.099  68.576  0.00  0.00    -0.468 OA
ENDBRANCH  23  34
ENDBRANCH  22  27
ENDBRANCH  20  22
ENDBRANCH  19  20
ENDBRANCH   1  19
TORSDOF 10
ENDMDL
MODEL 5
REMARK VINA RESULT:      -6.6      3.526      6.592
REMARK  Name = 
REMARK  10 active torsions:
REMARK  status: ('A' for Active; 'I' for Inactive)
REMARK    1  A    between atoms: O_2  and  C_3
REMARK    2  A    between atoms: C_8  and  O_9
REMARK    3  A    between atoms: C_11  and  C_12
REMARK    4  A    between atoms: C_12  and  N_13
REMARK    5  A    between atoms: N_13  and  C_15
REMARK    6  A    between atoms: C_15  and  C_16
REMARK    7  A    between atoms: C_16  and  C_17
REMARK    8  A    between atoms: C_17  and  N_18
REMARK    9  A    between atoms: C_23  and  O_24
REMARK   10  A    between atoms: C_26  and  O_27
REMARK                            x       y       z     vdW  Elec       q    Type
REMARK                         _______ _______ _______ _____ _____    ______ ____
ROOT
ATOM      1  C   UNL     1     -11.250  16.563  69.069  0.00  0.00    +0.039 C 
ENDROOT
BRANCH   1   2
ATOM      2  C   UNL     1     -11.240  15.793  70.378  0.00  0.00    +0.095 C 
BRANCH   2   3
ATOM      3  N   UNL     1     -12.166  14.666  70.308  0.00  0.00    -0.279 N 
ATOM      4  C   UNL     1     -12.700  14.176  71.544  0.00  0.00    +0.230 C 
ATOM      5  O   UNL     1     -12.178  14.670  72.589  0.00  0.00    -0.275 OA
ATOM      6  C   UNL     1     -13.545  12.964  71.682  0.00  0.00    +0.111 C 
ATOM      7  C   UNL     1     -12.882  11.775  71.121  0.00  0.00    -0.014 A 
ATOM      8  C   UNL     1     -11.937  11.773  70.127  0.00  0.00    -0.021 A 
ATOM      9  C   UNL     1     -11.253  10.573  69.953  0.00  0.00    +0.036 A 
ATOM     10  C   UNL     1     -11.593   9.426  70.650  0.00  0.00    +0.172 A 
ATOM     11  C   UNL     1     -12.548   9.484  71.651  0.00  0.00    +0.172 A 
ATOM     12  C   UNL     1     -11.515  12.696  69.078  0.00  0.00    +0.048 C 
ATOM     13  C   UNL     1     -12.935  10.748  72.058  0.00  0.00    +0.036 A 
ATOM     14  C   UNL     1     -12.230  13.998  69.013  0.00  0.00    +0.098 C 
BRANCH  11  15
ATOM     15  O   UNL     1     -13.134   8.317  72.151  0.00  0.00    -0.468 OA
ATOM     16  C   UNL     1     -14.465   8.035  71.724  0.00  0.00    +0.253 C 
ENDBRANCH  11  15
BRANCH  10  17
ATOM     17  O   UNL     1     -11.255   8.148  70.197  0.00  0.00    -0.468 OA
ATOM     18  C   UNL     1      -9.974   7.984  69.633  0.00  0.00    +0.253 C 
ENDBRANCH  10  17
ENDBRANCH   2   3
ENDBRANCH   1   2
BRANCH   1  19
ATOM     19  C   UNL     1      -9.977  17.357  69.002  0.00  0.00    +0.074 C 
BRANCH  19  20
ATOM     20  N   UNL     1      -9.165  17.055  67.858  0.00  0.00    -0.271 NA
ATOM     21  C   UNL     1      -8.345  18.135  67.405  0.00  0.00    +0.090 C 
BRANCH  20  22
ATOM     22  C   UNL     1      -9.886  16.368  66.803  0.00  0.00    +0.077 C 
BRANCH  22  27
ATOM     23  C   UNL     1      -9.459  11.457  65.562  0.00  0.00    +0.172 A 
ATOM     24  C   UNL     1     -10.371  12.183  64.811  0.00  0.00    +0.172 A 
ATOM     25  C   UNL     1     -10.328  13.569  64.886  0.00  0.00    +0.036 A 
ATOM     26  C   UNL     1      -9.740  14.164  65.943  0.00  0.00    -0.022 A 
ATOM     27  C   UNL     1      -8.671  15.327  66.322  0.00  0.00    +0.042 C 
ATOM     28  C   UNL     1      -8.639  14.564  67.791  0.00  0.00    +0.032 C 
ATOM     29  C   UNL     1      -8.952  13.452  66.841  0.00  0.00    -0.023 A 
ATOM     30  C   UNL     1      -8.744  12.114  66.539  0.00  0.00    +0.035 A 
BRANCH  24  31
ATOM     31  O   UNL     1     -11.482  11.501  64.304  0.00  0.00    -0.468 OA
ATOM     32  C   UNL     1     -12.448  12.149  63.479  0.00  0.00    +0.253 C 
ENDBRANCH  24  31
BRANCH  23  34
ATOM     33  C   UNL     1      -8.407   9.935  64.628  0.00  0.00    +0.253 C 
ATOM     34  O   UNL     1      -9.040  10.249  64.998  0.00  0.00    -0.468 OA
ENDBRANCH  23  34
ENDBRANCH  22  27
ENDBRANCH  20  22
ENDBRANCH  19  20
ENDBRANCH   1  19
TORSDOF 10
ENDMDL
MODEL 6
REMARK VINA RESULT:      -6.6      3.753      6.688
REMARK  Name = 
REMARK  10 active torsions:
REMARK  status: ('A' for Active; 'I' for Inactive)
REMARK    1  A    between atoms: O_2  and  C_3
REMARK    2  A    between atoms: C_8  and  O_9
REMARK    3  A    between atoms: C_11  and  C_12
REMARK    4  A    between atoms: C_12  and  N_13
REMARK    5  A    between atoms: N_13  and  C_15
REMARK    6  A    between atoms: C_15  and  C_16
REMARK    7  A    between atoms: C_16  and  C_17
REMARK    8  A    between atoms: C_17  and  N_18
REMARK    9  A    between atoms: C_23  and  O_24
REMARK   10  A    between atoms: C_26  and  O_27
REMARK                            x       y       z     vdW  Elec       q    Type
REMARK                         _______ _______ _______ _____ _____    ______ ____
ROOT
ATOM      1  C   UNL     1     -10.456  15.574  70.253  0.00  0.00    +0.039 C 
ENDROOT
BRANCH   1   2
ATOM      2  C   UNL     1     -11.623  15.529  71.223  0.00  0.00    +0.095 C 
BRANCH   2   3
ATOM      3  N   UNL     1     -12.460  14.363  70.953  0.00  0.00    -0.279 N 
ATOM      4  C   UNL     1     -13.015  13.676  72.082  0.00  0.00    +0.230 C 
ATOM      5  O   UNL     1     -12.580  14.057  73.210  0.00  0.00    -0.275 OA
ATOM      6  C   UNL     1     -13.775  12.404  72.010  0.00  0.00    +0.111 C 
ATOM      7  C   UNL     1     -13.001  11.347  71.336  0.00  0.00    -0.014 A 
ATOM      8  C   UNL     1     -12.012  11.542  70.405  0.00  0.00    -0.021 A 
ATOM      9  C   UNL     1     -11.235  10.425  70.114  0.00  0.00    +0.036 A 
ATOM     10  C   UNL     1     -11.523   9.174  70.633  0.00  0.00    +0.172 A 
ATOM     11  C   UNL     1     -12.526   9.033  71.577  0.00  0.00    +0.172 A 
ATOM     12  C   UNL     1     -11.609  12.625  69.513  0.00  0.00    +0.048 C 
ATOM     13  C   UNL     1     -13.023  10.202  72.124  0.00  0.00    +0.036 A 
ATOM     14  C   UNL     1     -12.414  13.874  69.580  0.00  0.00    +0.098 C 
BRANCH  11  15
ATOM     15  O   UNL     1     -13.048   7.773  71.885  0.00  0.00    -0.468 OA
ATOM     16  C   UNL     1     -14.437   7.575  71.630  0.00  0.00    +0.253 C 
ENDBRANCH  11  15
BRANCH  10  17
ATOM     17  O   UNL     1     -11.072   7.995  70.035  0.00  0.00    -0.468 OA
ATOM     18  C   UNL     1     -10.102   8.119  69.020  0.00  0.00    +0.253 C 
ENDBRANCH  10  17
ENDBRANCH   2   3
ENDBRANCH   1   2
BRANCH   1  19
ATOM     19  C   UNL     1     -10.723  16.683  69.276  0.00  0.00    +0.074 C 
BRANCH  19  20
ATOM     20  N   UNL     1      -9.537  17.237  68.689  0.00  0.00    -0.271 NA
ATOM     21  C   UNL     1      -9.508  18.665  68.632  0.00  0.00    +0.090 C 
BRANCH  20  22
ATOM     22  C   UNL     1      -9.140  16.580  67.458  0.00  0.00    +0.077 C 
BRANCH  22  27
ATOM     23  C   UNL     1     -10.995  12.919  64.459  0.00  0.00    +0.172 A 
ATOM     24  C   UNL     1     -10.157  12.487  65.477  0.00  0.00    +0.172 A 
ATOM     25  C   UNL     1      -9.857  13.375  66.502  0.00  0.00    +0.036 A 
ATOM     26  C   UNL     1     -10.005  14.700  66.303  0.00  0.00    -0.022 A 
ATOM     27  C   UNL     1     -10.645  16.029  66.985  0.00  0.00    +0.042 C 
ATOM     28  C   UNL     1     -10.483  16.663  65.465  0.00  0.00    +0.032 C 
ATOM     29  C   UNL     1     -10.686  15.205  65.201  0.00  0.00    -0.023 A 
ATOM     30  C   UNL     1     -11.268  14.266  64.363  0.00  0.00    +0.035 A 
BRANCH  24  31
ATOM     31  O   UNL     1      -9.400  11.334  65.247  0.00  0.00    -0.468 OA
ATOM     32  C   UNL     1      -8.971  10.493  66.316  0.00  0.00    +0.253 C 
ENDBRANCH  24  31
BRANCH  23  34
ATOM     33  C   UNL     1     -12.440  11.871  63.405  0.00  0.00    +0.253 C 
ATOM     34  O   UNL     1     -11.811  11.937  63.892  0.00  0.00    -0.468 OA
ENDBRANCH  23  34
ENDBRANCH  22  27
ENDBRANCH  20  22
ENDBRANCH  19  20
ENDBRANCH   1  19
TORSDOF 10
ENDMDL
MODEL 7
REMARK VINA RESULT:      -6.5      3.916      6.764
REMARK  Name = 
REMARK  10 active torsions:
REMARK  status: ('A' for Active; 'I' for Inactive)
REMARK    1  A    between atoms: O_2  and  C_3
REMARK    2  A    between atoms: C_8  and  O_9
REMARK    3  A    between atoms: C_11  and  C_12
REMARK    4  A    between atoms: C_12  and  N_13
REMARK    5  A    between atoms: N_13  and  C_15
REMARK    6  A    between atoms: C_15  and  C_16
REMARK    7  A    between atoms: C_16  and  C_17
REMARK    8  A    between atoms: C_17  and  N_18
REMARK    9  A    between atoms: C_23  and  O_24
REMARK   10  A    between atoms: C_26  and  O_27
REMARK                            x       y       z     vdW  Elec       q    Type
REMARK                         _______ _______ _______ _____ _____    ______ ____
ROOT
ATOM      1  C   UNL     1     -12.423  11.872  70.907  0.00  0.00    +0.039 C 
ENDROOT
BRANCH   1   2
ATOM      2  C   UNL     1     -13.115  10.791  71.719  0.00  0.00    +0.095 C 
BRANCH   2   3
ATOM      3  N   UNL     1     -12.634   9.471  71.317  0.00  0.00    -0.279 N 
ATOM      4  C   UNL     1     -13.431   8.340  71.689  0.00  0.00    +0.230 C 
ATOM      5  O   UNL     1     -14.391   8.594  72.478  0.00  0.00    -0.275 OA
ATOM      6  C   UNL     1     -13.039   6.924  71.485  0.00  0.00    +0.111 C 
ATOM      7  C   UNL     1     -11.740   6.625  72.111  0.00  0.00    -0.014 A 
ATOM      8  C   UNL     1     -10.735   7.527  72.350  0.00  0.00    -0.021 A 
ATOM      9  C   UNL     1      -9.722   7.084  73.195  0.00  0.00    +0.036 A 
ATOM     10  C   UNL     1      -9.668   5.780  73.659  0.00  0.00    +0.172 A 
ATOM     11  C   UNL     1     -10.715   4.912  73.397  0.00  0.00    +0.172 A 
ATOM     12  C   UNL     1     -10.365   8.845  71.844  0.00  0.00    +0.048 C 
ATOM     13  C   UNL     1     -11.869   5.477  72.886  0.00  0.00    +0.036 A 
ATOM     14  C   UNL     1     -11.264   9.438  70.818  0.00  0.00    +0.098 C 
BRANCH  11  15
ATOM     15  O   UNL     1     -10.562   3.533  73.570  0.00  0.00    -0.468 OA
ATOM     16  C   UNL     1     -10.148   2.786  72.429  0.00  0.00    +0.253 C 
ENDBRANCH  11  15
BRANCH  10  17
ATOM     17  O   UNL     1      -8.483   5.196  74.111  0.00  0.00    -0.468 OA
ATOM     18  C   UNL     1      -8.191   5.315  75.485  0.00  0.00    +0.253 C 
ENDBRANCH  10  17
ENDBRANCH   2   3
ENDBRANCH   1   2
BRANCH   1  19
ATOM     19  C   UNL     1     -12.986  13.194  71.342  0.00  0.00    +0.074 C 
BRANCH  19  20
ATOM     20  N   UNL     1     -12.308  14.326  70.779  0.00  0.00    -0.271 NA
ATOM     21  C   UNL     1     -12.835  15.595  71.173  0.00  0.00    +0.090 C 
BRANCH  20  22
ATOM     22  C   UNL     1     -12.053  14.199  69.357  0.00  0.00    +0.077 C 
BRANCH  22  27
ATOM     23  C   UNL     1      -8.826  16.615  66.261  0.00  0.00    +0.172 A 
ATOM     24  C   UNL     1      -9.951  17.339  66.630  0.00  0.00    +0.172 A 
ATOM     25  C   UNL     1     -10.713  16.871  67.692  0.00  0.00    +0.036 A 
ATOM     26  C   UNL     1     -10.627  15.576  68.057  0.00  0.00    -0.022 A 
ATOM     27  C   UNL     1     -10.439  14.628  69.363  0.00  0.00    +0.042 C 
ATOM     28  C   UNL     1     -10.050  13.474  68.242  0.00  0.00    +0.032 C 
ATOM     29  C   UNL     1      -9.620  14.744  67.581  0.00  0.00    -0.023 A 
ATOM     30  C   UNL     1      -8.668  15.345  66.770  0.00  0.00    +0.035 A 
BRANCH  24  31
ATOM     31  O   UNL     1     -10.442  18.282  65.721  0.00  0.00    -0.468 OA
ATOM     32  C   UNL     1     -10.391  19.681  65.991  0.00  0.00    +0.253 C 
ENDBRANCH  24  31
BRANCH  23  34
ATOM     33  C   UNL     1      -7.067  17.679  65.997  0.00  0.00    +0.253 C 
ATOM     34  O   UNL     1      -7.762  17.370  65.759  0.00  0.00    -0.468 OA
ENDBRANCH  23  34
ENDBRANCH  22  27
ENDBRANCH  20  22
ENDBRANCH  19  20
ENDBRANCH   1  19
TORSDOF 10
ENDMDL
MODEL 8
REMARK VINA RESULT:      -6.5      4.804      7.872
REMARK  Name = 
REMARK  10 active torsions:
REMARK  status: ('A' for Active; 'I' for Inactive)
REMARK    1  A    between atoms: O_2  and  C_3
REMARK    2  A    between atoms: C_8  and  O_9
REMARK    3  A    between atoms: C_11  and  C_12
REMARK    4  A    between atoms: C_12  and  N_13
REMARK    5  A    between atoms: N_13  and  C_15
REMARK    6  A    between atoms: C_15  and  C_16
REMARK    7  A    between atoms: C_16  and  C_17
REMARK    8  A    between atoms: C_17  and  N_18
REMARK    9  A    between atoms: C_23  and  O_24
REMARK   10  A    between atoms: C_26  and  O_27
REMARK                            x       y       z     vdW  Elec       q    Type
REMARK                         _______ _______ _______ _____ _____    ______ ____
ROOT
ATOM      1  C   UNL     1     -12.815  12.182  71.613  0.00  0.00    +0.039 C 
ENDROOT
BRANCH   1   2
ATOM      2  C   UNL     1     -13.603  10.962  72.056  0.00  0.00    +0.095 C 
BRANCH   2   3
ATOM      3  N   UNL     1     -13.069   9.759  71.425  0.00  0.00    -0.279 N 
ATOM      4  C   UNL     1     -13.683   8.510  71.765  0.00  0.00    +0.230 C 
ATOM      5  O   UNL     1     -14.523   8.565  72.713  0.00  0.00    -0.275 OA
ATOM      6  C   UNL     1     -13.195   7.179  71.329  0.00  0.00    +0.111 C 
ATOM      7  C   UNL     1     -11.789   6.964  71.714  0.00  0.00    -0.014 A 
ATOM      8  C   UNL     1     -10.850   7.944  71.913  0.00  0.00    -0.021 A 
ATOM      9  C   UNL     1      -9.676   7.530  72.537  0.00  0.00    +0.036 A 
ATOM     10  C   UNL     1      -9.424   6.199  72.820  0.00  0.00    +0.172 A 
ATOM     11  C   UNL     1     -10.411   5.250  72.609  0.00  0.00    +0.172 A 
ATOM     12  C   UNL     1     -10.695   9.343  71.528  0.00  0.00    +0.048 C 
ATOM     13  C   UNL     1     -11.681   5.732  72.349  0.00  0.00    +0.036 A 
ATOM     14  C   UNL     1     -11.800   9.938  70.729  0.00  0.00    +0.098 C 
BRANCH  11  15
ATOM     15  O   UNL     1     -10.100   3.887  72.583  0.00  0.00    -0.468 OA
ATOM     16  C   UNL     1      -9.781   3.326  71.311  0.00  0.00    +0.253 C 
ENDBRANCH  11  15
BRANCH  10  17
ATOM     17  O   UNL     1      -8.131   5.708  73.015  0.00  0.00    -0.468 OA
ATOM     18  C   UNL     1      -7.173   6.009  72.026  0.00  0.00    +0.253 C 
ENDBRANCH  10  17
ENDBRANCH   2   3
ENDBRANCH   1   2
BRANCH   1  19
ATOM     19  C   UNL     1     -13.641  13.395  71.931  0.00  0.00    +0.074 C 
BRANCH  19  20
ATOM     20  N   UNL     1     -12.865  14.551  72.279  0.00  0.00    -0.271 NA
ATOM     21  C   UNL     1     -13.622  15.751  72.449  0.00  0.00    +0.090 C 
BRANCH  20  22
ATOM     22  C   UNL     1     -11.669  14.707  71.474  0.00  0.00    +0.077 C 
BRANCH  22  27
ATOM     23  C   UNL     1     -11.234  14.548  66.412  0.00  0.00    +0.172 A 
ATOM     24  C   UNL     1     -11.550  13.342  67.020  0.00  0.00    +0.172 A 
ATOM     25  C   UNL     1     -11.974  13.364  68.342  0.00  0.00    +0.036 A 
ATOM     26  C   UNL     1     -11.681  14.425  69.121  0.00  0.00    -0.022 A 
ATOM     27  C   UNL     1     -12.361  15.472  70.160  0.00  0.00    +0.042 C 
ATOM     28  C   UNL     1     -11.000  16.366  69.866  0.00  0.00    +0.032 C 
ATOM     29  C   UNL     1     -11.190  15.612  68.589  0.00  0.00    -0.023 A 
ATOM     30  C   UNL     1     -11.094  15.665  67.206  0.00  0.00    +0.035 A 
BRANCH  24  31
ATOM     31  O   UNL     1     -11.104  12.169  66.402  0.00  0.00    -0.468 OA
ATOM     32  C   UNL     1     -10.982  10.943  67.120  0.00  0.00    +0.253 C 
ENDBRANCH  24  31
BRANCH  23  34
ATOM     33  C   UNL     1     -12.118  14.640  64.539  0.00  0.00    +0.253 C 
ATOM     34  O   UNL     1     -11.499  14.620  65.041  0.00  0.00    -0.468 OA
ENDBRANCH  23  34
ENDBRANCH  22  27
ENDBRANCH  20  22
ENDBRANCH  19  20
ENDBRANCH   1  19
TORSDOF 10
ENDMDL
MODEL 9
REMARK VINA RESULT:      -6.5      2.618      9.388
REMARK  Name = 
REMARK  10 active torsions:
REMARK  status: ('A' for Active; 'I' for Inactive)
REMARK    1  A    between atoms: O_2  and  C_3
REMARK    2  A    between atoms: C_8  and  O_9
REMARK    3  A    between atoms: C_11  and  C_12
REMARK    4  A    between atoms: C_12  and  N_13
REMARK    5  A    between atoms: N_13  and  C_15
REMARK    6  A    between atoms: C_15  and  C_16
REMARK    7  A    between atoms: C_16  and  C_17
REMARK    8  A    between atoms: C_17  and  N_18
REMARK    9  A    between atoms: C_23  and  O_24
REMARK   10  A    between atoms: C_26  and  O_27
REMARK                            x       y       z     vdW  Elec       q    Type
REMARK                         _______ _______ _______ _____ _____    ______ ____
ROOT
ATOM      1  C   UNL     1     -11.332  14.456  66.267  0.00  0.00    +0.039 C 
ENDROOT
BRANCH   1   2
ATOM      2  C   UNL     1     -10.730  15.799  65.891  0.00  0.00    +0.095 C 
BRANCH   2   3
ATOM      3  N   UNL     1     -10.463  16.586  67.092  0.00  0.00    -0.279 N 
ATOM      4  C   UNL     1     -10.260  17.995  66.923  0.00  0.00    +0.230 C 
ATOM      5  O   UNL     1     -10.168  18.384  65.719  0.00  0.00    -0.275 OA
ATOM      6  C   UNL     1      -9.850  18.927  68.001  0.00  0.00    +0.111 C 
ATOM      7  C   UNL     1      -8.598  18.494  68.645  0.00  0.00    -0.014 A 
ATOM      8  C   UNL     1      -8.134  17.206  68.719  0.00  0.00    -0.021 A 
ATOM      9  C   UNL     1      -6.809  17.069  69.124  0.00  0.00    +0.036 A 
ATOM     10  C   UNL     1      -6.054  18.150  69.545  0.00  0.00    +0.172 A 
ATOM     11  C   UNL     1      -6.567  19.432  69.441  0.00  0.00    +0.172 A 
ATOM     12  C   UNL     1      -8.713  15.872  68.591  0.00  0.00    +0.048 C 
ATOM     13  C   UNL     1      -7.722  19.573  68.694  0.00  0.00    +0.036 A 
ATOM     14  C   UNL     1     -10.169  15.807  68.289  0.00  0.00    +0.098 C 
BRANCH  11  15
ATOM     15  O   UNL     1      -5.979  20.497  70.130  0.00  0.00    -0.468 OA
ATOM     16  C   UNL     1      -4.861  21.125  69.507  0.00  0.00    +0.253 C 
ENDBRANCH  11  15
BRANCH  10  17
ATOM     17  O   UNL     1      -4.926  18.003  70.356  0.00  0.00    -0.468 OA
ATOM     18  C   UNL     1      -3.798  17.384  69.782  0.00  0.00    +0.253 C 
ENDBRANCH  10  17
ENDBRANCH   2   3
ENDBRANCH   1   2
BRANCH   1  19
ATOM     19  C   UNL     1     -12.170  13.997  65.108  0.00  0.00    +0.074 C 
BRANCH  19  20
ATOM     20  N   UNL     1     -11.444  13.235  64.133  0.00  0.00    -0.271 NA
ATOM     21  C   UNL     1     -12.255  12.415  63.289  0.00  0.00    +0.090 C 
BRANCH  20  22
ATOM     22  C   UNL     1     -10.277  12.565  64.675  0.00  0.00    +0.077 C 
BRANCH  22  27
ATOM     23  C   UNL     1     -10.280   8.462  67.676  0.00  0.00    +0.172 A 
ATOM     24  C   UNL     1     -10.849   9.602  68.226  0.00  0.00    +0.172 A 
ATOM     25  C   UNL     1     -11.152  10.659  67.377  0.00  0.00    +0.036 A 
ATOM     26  C   UNL     1     -10.538  10.754  66.181  0.00  0.00    -0.022 A 
ATOM     27  C   UNL     1     -10.846  10.996  64.604  0.00  0.00    +0.042 C 
ATOM     28  C   UNL     1      -9.326  10.374  64.400  0.00  0.00    +0.032 C 
ATOM     29  C   UNL     1      -9.800   9.703  65.650  0.00  0.00    -0.023 A 
ATOM     30  C   UNL     1      -9.797   8.528  66.387  0.00  0.00    +0.035 A 
BRANCH  24  31
ATOM     31  O   UNL     1     -10.768   9.762  69.613  0.00  0.00    -0.468 OA
ATOM     32  C   UNL     1     -11.655  10.625  70.321  0.00  0.00    +0.253 C 
ENDBRANCH  24  31
BRANCH  23  34
ATOM     33  C   UNL     1     -10.787   6.501  68.114  0.00  0.00    +0.253 C 
ATOM     34  O   UNL     1     -10.619   7.259  68.299  0.00  0.00    -0.468 OA
ENDBRANCH  23  34
ENDBRANCH  22  27
ENDBRANCH  20  22
ENDBRANCH  19  20
ENDBRANCH   1  19
TORSDOF 10
ENDMDL
