MODEL 1
REMARK VINA RESULT:      -6.9      0.000      0.000
REMARK  Name = 
REMARK  11 active torsions:
REMARK  status: ('A' for Active; 'I' for Inactive)
REMARK    1  A    between atoms: C_2  and  C_3
REMARK    2  A    between atoms: C_3  and  C_4
REMARK    3  A    between atoms: C_4  and  C_5
REMARK    4  A    between atoms: C_5  and  C_6
REMARK    5  A    between atoms: C_6  and  C_7
REMARK    6  A    between atoms: C_7  and  C_8
REMARK    7  A    between atoms: N_10  and  C_11
REMARK    8  A    between atoms: C_11  and  C_12
REMARK    9  A    between atoms: C_11  and  C_18
REMARK   10  A    between atoms: C_12  and  N_13
REMARK   11  A    between atoms: C_18  and  C_20
REMARK                            x       y       z     vdW  Elec       q    Type
REMARK                         _______ _______ _______ _____ _____    ______ ____
ROOT
ATOM      1  C   UNL     1     -10.937  16.151  68.820  0.00  0.00    +0.146 C 
ENDROOT
BRANCH   1   3
ATOM      2  C   UNL     1     -10.107  18.527  68.534  0.00  0.00    +0.241 C 
ATOM      3  N   UNL     1      -9.769  17.205  68.892  0.00  0.00    -0.203 NA
ATOM      4  O   UNL     1     -10.915  18.651  67.587  0.00  0.00    -0.273 OA
BRANCH   2   5
ATOM      5  C   UNL     1      -9.083  19.591  68.741  0.00  0.00    +0.087 C 
BRANCH   5   6
ATOM      6  C   UNL     1      -8.514  20.053  67.405  0.00  0.00    +0.010 C 
BRANCH   6   7
ATOM      7  C   UNL     1      -7.073  20.460  67.684  0.00  0.00    +0.001 C 
BRANCH   7   8
ATOM      8  C   UNL     1      -6.598  19.650  68.887  0.00  0.00    +0.000 C 
BRANCH   8   9
ATOM      9  C   UNL     1      -5.460  20.450  69.505  0.00  0.00    +0.000 C 
BRANCH   9  11
ATOM     10  C   UNL     1      -5.614  19.965  71.478  0.00  0.00    +0.000 C 
ATOM     11  C   UNL     1      -5.596  20.347  71.017  0.00  0.00    +0.000 C 
ENDBRANCH   9  11
ENDBRANCH   8   9
ENDBRANCH   7   8
ENDBRANCH   6   7
ENDBRANCH   5   6
ENDBRANCH   2   5
ENDBRANCH   1   3
BRANCH   1  12
ATOM     12  C   UNL     1      -9.825  14.878  68.369  0.00  0.00    +0.195 C 
ATOM     13  O   UNL     1      -9.454  15.569  67.047  0.00  0.00    -0.216 OA
BRANCH  12  14
ATOM     14  C   UNL     1     -11.008  13.980  67.688  0.00  0.00    +0.013 A 
ATOM     15  C   UNL     1     -11.535  14.400  66.523  0.00  0.00    +0.038 A 
ATOM     16  C   UNL     1     -12.180  13.462  65.711  0.00  0.00    +0.172 A 
ATOM     17  O   UNL     1     -12.607  13.819  64.428  0.00  0.00    -0.468 OA
ATOM     18  C   UNL     1     -12.246  13.157  63.249  0.00  0.00    +0.253 C 
ATOM     19  C   UNL     1     -11.926  11.707  63.415  0.00  0.00    +0.253 C 
ATOM     20  O   UNL     1     -11.505  11.345  64.699  0.00  0.00    -0.468 OA
ATOM     21  C   UNL     1     -11.715  12.156  65.814  0.00  0.00    +0.172 A 
ATOM     22  C   UNL     1     -11.180  11.717  67.018  0.00  0.00    +0.040 A 
ATOM     23  C   UNL     1     -10.849  12.635  67.998  0.00  0.00    +0.002 A 
ENDBRANCH  12  14
ENDBRANCH   1  12
BRANCH   1  24
ATOM     24  C   UNL     1     -10.763  15.771  70.407  0.00  0.00    +0.097 C 
BRANCH  24  25
ATOM     25  N   UNL     1     -11.982  15.929  71.062  0.00  0.00    -0.271 NA
ATOM     26  C   UNL     1     -13.074  15.103  70.670  0.00  0.00    +0.072 C 
ATOM     27  C   UNL     1     -14.131  15.291  71.741  0.00  0.00    +0.019 C 
ATOM     28  C   UNL     1     -13.273  15.546  72.957  0.00  0.00    +0.019 C 
ATOM     29  C   UNL     1     -12.025  16.217  72.433  0.00  0.00    +0.072 C 
ENDBRANCH  24  25
ENDBRANCH   1  24
TORSDOF 11
ENDMDL
MODEL 2
REMARK VINA RESULT:      -6.8      0.829      1.774
REMARK  Name = 
REMARK  11 active torsions:
REMARK  status: ('A' for Active; 'I' for Inactive)
REMARK    1  A    between atoms: C_2  and  C_3
REMARK    2  A    between atoms: C_3  and  C_4
REMARK    3  A    between atoms: C_4  and  C_5
REMARK    4  A    between atoms: C_5  and  C_6
REMARK    5  A    between atoms: C_6  and  C_7
REMARK    6  A    between atoms: C_7  and  C_8
REMARK    7  A    between atoms: N_10  and  C_11
REMARK    8  A    between atoms: C_11  and  C_12
REMARK    9  A    between atoms: C_11  and  C_18
REMARK   10  A    between atoms: C_12  and  N_13
REMARK   11  A    between atoms: C_18  and  C_20
REMARK                            x       y       z     vdW  Elec       q    Type
REMARK                         _______ _______ _______ _____ _____    ______ ____
ROOT
ATOM      1  C   UNL     1     -10.964  16.154  68.853  0.00  0.00    +0.146 C 
ENDROOT
BRANCH   1   3
ATOM      2  C   UNL     1     -10.078  18.505  68.531  0.00  0.00    +0.241 C 
ATOM      3  N   UNL     1      -9.762  17.172  68.872  0.00  0.00    -0.203 NA
ATOM      4  O   UNL     1     -10.925  18.655  67.623  0.00  0.00    -0.273 OA
BRANCH   2   5
ATOM      5  C   UNL     1      -9.014  19.537  68.689  0.00  0.00    +0.087 C 
BRANCH   5   6
ATOM      6  C   UNL     1      -7.649  18.880  68.850  0.00  0.00    +0.010 C 
BRANCH   6   7
ATOM      7  C   UNL     1      -6.638  20.019  68.875  0.00  0.00    +0.001 C 
BRANCH   7   8
ATOM      8  C   UNL     1      -5.746  19.862  67.648  0.00  0.00    +0.000 C 
BRANCH   8   9
ATOM      9  C   UNL     1      -6.048  21.058  66.756  0.00  0.00    +0.000 C 
BRANCH   9  11
ATOM     10  C   UNL     1      -6.575  20.038  65.072  0.00  0.00    +0.000 C 
ATOM     11  C   UNL     1      -6.394  20.523  65.374  0.00  0.00    +0.000 C 
ENDBRANCH   9  11
ENDBRANCH   8   9
ENDBRANCH   7   8
ENDBRANCH   6   7
ENDBRANCH   5   6
ENDBRANCH   2   5
ENDBRANCH   1   3
BRANCH   1  12
ATOM     12  C   UNL     1      -9.899  14.832  68.428  0.00  0.00    +0.195 C 
ATOM     13  O   UNL     1      -9.461  15.510  67.119  0.00  0.00    -0.216 OA
BRANCH  12  14
ATOM     14  C   UNL     1     -11.103  13.991  67.711  0.00  0.00    +0.013 A 
ATOM     15  C   UNL     1     -11.582  14.441  66.537  0.00  0.00    +0.038 A 
ATOM     16  C   UNL     1     -12.246  13.537  65.703  0.00  0.00    +0.172 A 
ATOM     17  O   UNL     1     -12.624  13.920  64.412  0.00  0.00    -0.468 OA
ATOM     18  C   UNL     1     -12.263  13.250  63.238  0.00  0.00    +0.253 C 
ATOM     19  C   UNL     1     -12.011  11.786  63.402  0.00  0.00    +0.253 C 
ATOM     20  O   UNL     1     -11.639  11.398  64.693  0.00  0.00    -0.468 OA
ATOM     21  C   UNL     1     -11.841  12.211  65.808  0.00  0.00    +0.172 A 
ATOM     22  C   UNL     1     -11.357  11.743  67.022  0.00  0.00    +0.040 A 
ATOM     23  C   UNL     1     -11.011  12.639  68.017  0.00  0.00    +0.002 A 
ENDBRANCH  12  14
ENDBRANCH   1  12
BRANCH   1  24
ATOM     24  C   UNL     1     -10.774  15.822  70.449  0.00  0.00    +0.097 C 
BRANCH  24  25
ATOM     25  N   UNL     1     -11.992  15.985  71.109  0.00  0.00    -0.271 NA
ATOM     26  C   UNL     1     -13.090  15.169  70.713  0.00  0.00    +0.072 C 
ATOM     27  C   UNL     1     -14.144  15.358  71.787  0.00  0.00    +0.019 C 
ATOM     28  C   UNL     1     -13.281  15.598  73.003  0.00  0.00    +0.019 C 
ATOM     29  C   UNL     1     -12.029  16.263  72.481  0.00  0.00    +0.072 C 
ENDBRANCH  24  25
ENDBRANCH   1  24
TORSDOF 11
ENDMDL
MODEL 3
REMARK VINA RESULT:      -6.7      2.794      7.696
REMARK  Name = 
REMARK  11 active torsions:
REMARK  status: ('A' for Active; 'I' for Inactive)
REMARK    1  A    between atoms: C_2  and  C_3
REMARK    2  A    between atoms: C_3  and  C_4
REMARK    3  A    between atoms: C_4  and  C_5
REMARK    4  A    between atoms: C_5  and  C_6
REMARK    5  A    between atoms: C_6  and  C_7
REMARK    6  A    between atoms: C_7  and  C_8
REMARK    7  A    between atoms: N_10  and  C_11
REMARK    8  A    between atoms: C_11  and  C_12
REMARK    9  A    between atoms: C_11  and  C_18
REMARK   10  A    between atoms: C_12  and  N_13
REMARK   11  A    between atoms: C_18  and  C_20
REMARK                            x       y       z     vdW  Elec       q    Type
REMARK                         _______ _______ _______ _____ _____    ______ ____
ROOT
ATOM      1  C   UNL     1     -10.962  15.111  66.259  0.00  0.00    +0.146 C 
ENDROOT
BRANCH   1   3
ATOM      2  C   UNL     1     -11.792  13.597  64.406  0.00  0.00    +0.241 C 
ATOM      3  N   UNL     1     -10.806  13.804  65.395  0.00  0.00    -0.203 NA
ATOM      4  O   UNL     1     -12.958  13.930  64.713  0.00  0.00    -0.273 OA
BRANCH   2   5
ATOM      5  C   UNL     1     -11.601  12.463  63.457  0.00  0.00    +0.087 C 
BRANCH   5   6
ATOM      6  C   UNL     1     -10.151  11.996  63.465  0.00  0.00    +0.010 C 
BRANCH   6   7
ATOM      7  C   UNL     1     -10.190  10.526  63.864  0.00  0.00    +0.001 C 
BRANCH   7   8
ATOM      8  C   UNL     1      -9.203  10.342  65.013  0.00  0.00    +0.000 C 
BRANCH   8   9
ATOM      9  C   UNL     1      -9.720   9.160  65.820  0.00  0.00    +0.000 C 
BRANCH   9  11
ATOM     10  C   UNL     1     -10.730   9.584  67.539  0.00  0.00    +0.000 C 
ATOM     11  C   UNL     1     -10.501   9.718  67.002  0.00  0.00    +0.000 C 
ENDBRANCH   9  11
ENDBRANCH   8   9
ENDBRANCH   7   8
ENDBRANCH   6   7
ENDBRANCH   5   6
ENDBRANCH   2   5
ENDBRANCH   1   3
BRANCH   1  12
ATOM     12  C   UNL     1     -10.342  14.303  67.682  0.00  0.00    +0.195 C 
ATOM     13  O   UNL     1     -11.321  13.127  67.529  0.00  0.00    -0.216 OA
BRANCH  12  14
ATOM     14  C   UNL     1     -11.334  15.133  68.681  0.00  0.00    +0.013 A 
ATOM     15  C   UNL     1     -12.271  14.448  69.361  0.00  0.00    +0.038 A 
ATOM     16  C   UNL     1     -12.798  15.021  70.522  0.00  0.00    +0.172 A 
ATOM     17  O   UNL     1     -13.658  14.283  71.342  0.00  0.00    -0.468 OA
ATOM     18  C   UNL     1     -13.459  14.047  72.707  0.00  0.00    +0.253 C 
ATOM     19  C   UNL     1     -12.676  15.102  73.420  0.00  0.00    +0.253 C 
ATOM     20  O   UNL     1     -11.820  15.847  72.602  0.00  0.00    -0.468 OA
ATOM     21  C   UNL     1     -11.945  15.874  71.213  0.00  0.00    +0.172 A 
ATOM     22  C   UNL     1     -10.985  16.590  70.511  0.00  0.00    +0.040 A 
ATOM     23  C   UNL     1     -10.689  16.247  69.205  0.00  0.00    +0.002 A 
ENDBRANCH  12  14
ENDBRANCH   1  12
BRANCH   1  24
ATOM     24  C   UNL     1      -9.452  15.616  65.862  0.00  0.00    +0.097 C 
BRANCH  24  25
ATOM     25  N   UNL     1      -9.409  17.010  65.861  0.00  0.00    -0.271 NA
ATOM     26  C   UNL     1     -10.640  17.725  65.832  0.00  0.00    +0.072 C 
ATOM     27  C   UNL     1     -10.280  19.165  66.143  0.00  0.00    +0.019 C 
ATOM     28  C   UNL     1      -9.091  18.978  67.054  0.00  0.00    +0.019 C 
ATOM     29  C   UNL     1      -8.436  17.694  66.601  0.00  0.00    +0.072 C 
ENDBRANCH  24  25
ENDBRANCH   1  24
TORSDOF 11
ENDMDL
MODEL 4
REMARK VINA RESULT:      -6.7      3.509      8.694
REMARK  Name = 
REMARK  11 active torsions:
REMARK  status: ('A' for Active; 'I' for Inactive)
REMARK    1  A    between atoms: C_2  and  C_3
REMARK    2  A    between atoms: C_3  and  C_4
REMARK    3  A    between atoms: C_4  and  C_5
REMARK    4  A    between atoms: C_5  and  C_6
REMARK    5  A    between atoms: C_6  and  C_7
REMARK    6  A    between atoms: C_7  and  C_8
REMARK    7  A    between atoms: N_10  and  C_11
REMARK    8  A    between atoms: C_11  and  C_12
REMARK    9  A    between atoms: C_11  and  C_18
REMARK   10  A    between atoms: C_12  and  N_13
REMARK   11  A    between atoms: C_18  and  C_20
REMARK                            x       y       z     vdW  Elec       q    Type
REMARK                         _______ _______ _______ _____ _____    ______ ____
ROOT
ATOM      1  C   UNL     1     -10.511  13.280  67.578  0.00  0.00    +0.146 C 
ENDROOT
BRANCH   1   3
ATOM      2  C   UNL     1     -11.054  10.960  68.436  0.00  0.00    +0.241 C 
ATOM      3  N   UNL     1     -10.389  12.177  68.695  0.00  0.00    -0.203 NA
ATOM      4  O   UNL     1     -12.160  11.050  67.857  0.00  0.00    -0.273 OA
BRANCH   2   5
ATOM      5  C   UNL     1     -10.837   9.830  69.384  0.00  0.00    +0.087 C 
BRANCH   5   6
ATOM      6  C   UNL     1     -11.614  10.055  70.675  0.00  0.00    +0.010 C 
BRANCH   6   7
ATOM      7  C   UNL     1     -11.033   9.076  71.686  0.00  0.00    +0.001 C 
BRANCH   7   8
ATOM      8  C   UNL     1     -12.178   8.193  72.174  0.00  0.00    +0.000 C 
BRANCH   8   9
ATOM      9  C   UNL     1     -13.415   9.080  72.176  0.00  0.00    +0.000 C 
BRANCH   9  11
ATOM     10  C   UNL     1     -14.794   7.629  71.791  0.00  0.00    +0.000 C 
ATOM     11  C   UNL     1     -14.613   8.196  71.855  0.00  0.00    +0.000 C 
ENDBRANCH   9  11
ENDBRANCH   8   9
ENDBRANCH   7   8
ENDBRANCH   6   7
ENDBRANCH   5   6
ENDBRANCH   2   5
ENDBRANCH   1   3
BRANCH   1  12
ATOM     12  C   UNL     1      -9.210  14.211  68.287  0.00  0.00    +0.195 C 
ATOM     13  O   UNL     1     -10.122  14.792  69.379  0.00  0.00    -0.216 OA
BRANCH  12  14
ATOM     14  C   UNL     1      -9.451  15.467  67.270  0.00  0.00    +0.013 A 
ATOM     15  C   UNL     1     -10.272  16.457  67.665  0.00  0.00    +0.038 A 
ATOM     16  C   UNL     1     -10.140  17.710  67.059  0.00  0.00    +0.172 A 
ATOM     17  O   UNL     1     -10.863  18.804  67.543  0.00  0.00    -0.468 OA
ATOM     18  C   UNL     1     -10.303  20.018  67.956  0.00  0.00    +0.253 C 
ATOM     19  C   UNL     1      -9.013  20.373  67.291  0.00  0.00    +0.253 C 
ATOM     20  O   UNL     1      -8.288  19.282  66.800  0.00  0.00    -0.468 OA
ATOM     21  C   UNL     1      -8.864  18.026  66.605  0.00  0.00    +0.172 A 
ATOM     22  C   UNL     1      -8.019  17.007  66.186  0.00  0.00    +0.040 A 
ATOM     23  C   UNL     1      -8.326  15.693  66.487  0.00  0.00    +0.002 A 
ENDBRANCH  12  14
ENDBRANCH   1  12
BRANCH   1  24
ATOM     24  C   UNL     1      -9.448  12.490  66.609  0.00  0.00    +0.097 C 
BRANCH  24  25
ATOM     25  N   UNL     1      -9.979  12.378  65.325  0.00  0.00    -0.271 NA
ATOM     26  C   UNL     1     -10.137  11.077  64.769  0.00  0.00    +0.072 C 
ATOM     27  C   UNL     1     -10.996  11.265  63.533  0.00  0.00    +0.019 C 
ATOM     28  C   UNL     1     -11.849  12.440  63.947  0.00  0.00    +0.019 C 
ATOM     29  C   UNL     1     -10.990  13.246  64.892  0.00  0.00    +0.072 C 
ENDBRANCH  24  25
ENDBRANCH   1  24
TORSDOF 11
ENDMDL
MODEL 5
REMARK VINA RESULT:      -6.7      2.095      7.650
REMARK  Name = 
REMARK  11 active torsions:
REMARK  status: ('A' for Active; 'I' for Inactive)
REMARK    1  A    between atoms: C_2  and  C_3
REMARK    2  A    between atoms: C_3  and  C_4
REMARK    3  A    between atoms: C_4  and  C_5
REMARK    4  A    between atoms: C_5  and  C_6
REMARK    5  A    between atoms: C_6  and  C_7
REMARK    6  A    between atoms: C_7  and  C_8
REMARK    7  A    between atoms: N_10  and  C_11
REMARK    8  A    between atoms: C_11  and  C_12
REMARK    9  A    between atoms: C_11  and  C_18
REMARK   10  A    between atoms: C_12  and  N_13
REMARK   11  A    between atoms: C_18  and  C_20
REMARK                            x       y       z     vdW  Elec       q    Type
REMARK                         _______ _______ _______ _____ _____    ______ ____
ROOT
ATOM      1  C   UNL     1     -10.289  15.521  67.655  0.00  0.00    +0.146 C 
ENDROOT
BRANCH   1   3
ATOM      2  C   UNL     1     -10.846  13.160  66.930  0.00  0.00    +0.241 C 
ATOM      3  N   UNL     1     -11.067  14.536  66.705  0.00  0.00    -0.203 NA
ATOM      4  O   UNL     1      -9.679  12.833  67.242  0.00  0.00    -0.273 OA
BRANCH   2   5
ATOM      5  C   UNL     1     -11.679  12.185  66.168  0.00  0.00    +0.087 C 
BRANCH   5   6
ATOM      6  C   UNL     1     -12.330  12.860  64.967  0.00  0.00    +0.010 C 
BRANCH   6   7
ATOM      7  C   UNL     1     -12.000  11.982  63.767  0.00  0.00    +0.001 C 
BRANCH   7   8
ATOM      8  C   UNL     1     -10.507  12.129  63.494  0.00  0.00    +0.000 C 
BRANCH   8   9
ATOM      9  C   UNL     1     -10.010  10.736  63.133  0.00  0.00    +0.000 C 
BRANCH   9  11
ATOM     10  C   UNL     1      -9.341   9.585  64.676  0.00  0.00    +0.000 C 
ATOM     11  C   UNL     1      -9.453  10.105  64.401  0.00  0.00    +0.000 C 
ENDBRANCH   9  11
ENDBRANCH   8   9
ENDBRANCH   7   8
ENDBRANCH   6   7
ENDBRANCH   5   6
ENDBRANCH   2   5
ENDBRANCH   1   3
BRANCH   1  12
ATOM     12  C   UNL     1     -10.554  16.861  66.561  0.00  0.00    +0.195 C 
ATOM     13  O   UNL     1      -9.310  16.519  65.725  0.00  0.00    -0.216 OA
BRANCH  12  14
ATOM     14  C   UNL     1      -9.747  17.907  67.523  0.00  0.00    +0.013 A 
ATOM     15  C   UNL     1      -8.416  17.760  67.649  0.00  0.00    +0.038 A 
ATOM     16  C   UNL     1      -7.662  18.862  68.061  0.00  0.00    +0.172 A 
ATOM     17  O   UNL     1      -6.265  18.800  68.058  0.00  0.00    -0.468 OA
ATOM     18  C   UNL     1      -5.424  19.695  67.388  0.00  0.00    +0.253 C 
ATOM     19  C   UNL     1      -5.983  21.068  67.206  0.00  0.00    +0.253 C 
ATOM     20  O   UNL     1      -7.380  21.136  67.214  0.00  0.00    -0.468 OA
ATOM     21  C   UNL     1      -8.178  20.107  67.714  0.00  0.00    +0.172 A 
ATOM     22  C   UNL     1      -9.552  20.264  67.595  0.00  0.00    +0.040 A 
ATOM     23  C   UNL     1     -10.369  19.150  67.534  0.00  0.00    +0.002 A 
ENDBRANCH  12  14
ENDBRANCH   1  12
BRANCH   1  24
ATOM     24  C   UNL     1     -11.659  15.893  68.477  0.00  0.00    +0.097 C 
BRANCH  24  25
ATOM     25  N   UNL     1     -11.609  15.327  69.750  0.00  0.00    -0.271 NA
ATOM     26  C   UNL     1     -11.497  16.196  70.873  0.00  0.00    +0.072 C 
ATOM     27  C   UNL     1     -11.771  15.328  72.086  0.00  0.00    +0.019 C 
ATOM     28  C   UNL     1     -12.743  14.324  71.514  0.00  0.00    +0.019 C 
ATOM     29  C   UNL     1     -12.368  14.190  70.057  0.00  0.00    +0.072 C 
ENDBRANCH  24  25
ENDBRANCH   1  24
TORSDOF 11
ENDMDL
MODEL 6
REMARK VINA RESULT:      -6.6      2.572      7.763
REMARK  Name = 
REMARK  11 active torsions:
REMARK  status: ('A' for Active; 'I' for Inactive)
REMARK    1  A    between atoms: C_2  and  C_3
REMARK    2  A    between atoms: C_3  and  C_4
REMARK    3  A    between atoms: C_4  and  C_5
REMARK    4  A    between atoms: C_5  and  C_6
REMARK    5  A    between atoms: C_6  and  C_7
REMARK    6  A    between atoms: C_7  and  C_8
REMARK    7  A    between atoms: N_10  and  C_11
REMARK    8  A    between atoms: C_11  and  C_12
REMARK    9  A    between atoms: C_11  and  C_18
REMARK   10  A    between atoms: C_12  and  N_13
REMARK   11  A    between atoms: C_18  and  C_20
REMARK                            x       y       z     vdW  Elec       q    Type
REMARK                         _______ _______ _______ _____ _____    ______ ____
ROOT
ATOM      1  C   UNL     1     -10.220  15.348  68.292  0.00  0.00    +0.146 C 
ENDROOT
BRANCH   1   3
ATOM      2  C   UNL     1     -10.275  12.881  67.719  0.00  0.00    +0.241 C 
ATOM      3  N   UNL     1     -10.792  14.162  67.428  0.00  0.00    -0.203 NA
ATOM      4  O   UNL     1      -9.058  12.831  68.003  0.00  0.00    -0.273 OA
BRANCH   2   5
ATOM      5  C   UNL     1     -10.898  11.707  67.044  0.00  0.00    +0.087 C 
BRANCH   5   6
ATOM      6  C   UNL     1     -11.098  10.564  68.032  0.00  0.00    +0.010 C 
BRANCH   6   7
ATOM      7  C   UNL     1     -12.017  11.109  69.118  0.00  0.00    +0.001 C 
BRANCH   7   8
ATOM      8  C   UNL     1     -11.765  10.289  70.380  0.00  0.00    +0.000 C 
BRANCH   8   9
ATOM      9  C   UNL     1     -12.822  10.732  71.382  0.00  0.00    +0.000 C 
BRANCH   9  11
ATOM     10  C   UNL     1     -13.530   8.931  72.022  0.00  0.00    +0.000 C 
ATOM     11  C   UNL     1     -13.321   9.487  72.101  0.00  0.00    +0.000 C 
ENDBRANCH   9  11
ENDBRANCH   8   9
ENDBRANCH   7   8
ENDBRANCH   6   7
ENDBRANCH   5   6
ENDBRANCH   2   5
ENDBRANCH   1   3
BRANCH   1  12
ATOM     12  C   UNL     1     -10.425  16.474  66.968  0.00  0.00    +0.195 C 
ATOM     13  O   UNL     1      -9.075  16.093  66.339  0.00  0.00    -0.216 OA
BRANCH  12  14
ATOM     14  C   UNL     1      -9.793  17.714  67.824  0.00  0.00    +0.013 A 
ATOM     15  C   UNL     1      -8.480  17.683  68.116  0.00  0.00    +0.038 A 
ATOM     16  C   UNL     1      -7.838  18.888  68.417  0.00  0.00    +0.172 A 
ATOM     17  O   UNL     1      -6.449  18.924  68.576  0.00  0.00    -0.468 OA
ATOM     18  C   UNL     1      -5.582  19.757  67.861  0.00  0.00    +0.253 C 
ATOM     19  C   UNL     1      -6.186  21.041  67.393  0.00  0.00    +0.253 C 
ATOM     20  O   UNL     1      -7.576  21.011  67.239  0.00  0.00    -0.468 OA
ATOM     21  C   UNL     1      -8.373  20.021  67.815  0.00  0.00    +0.172 A 
ATOM     22  C   UNL     1      -9.730  20.060  67.523  0.00  0.00    +0.040 A 
ATOM     23  C   UNL     1     -10.475  18.896  67.560  0.00  0.00    +0.002 A 
ENDBRANCH  12  14
ENDBRANCH   1  12
BRANCH   1  24
ATOM     24  C   UNL     1     -11.712  15.718  68.866  0.00  0.00    +0.097 C 
BRANCH  24  25
ATOM     25  N   UNL     1     -11.824  15.290  70.188  0.00  0.00    -0.271 NA
ATOM     26  C   UNL     1     -11.611  16.240  71.227  0.00  0.00    +0.072 C 
ATOM     27  C   UNL     1     -12.093  15.566  72.498  0.00  0.00    +0.019 C 
ATOM     28  C   UNL     1     -13.200  14.691  71.962  0.00  0.00    +0.019 C 
ATOM     29  C   UNL     1     -12.787  14.339  70.552  0.00  0.00    +0.072 C 
ENDBRANCH  24  25
ENDBRANCH   1  24
TORSDOF 11
ENDMDL
MODEL 7
REMARK VINA RESULT:      -6.4      2.978      8.424
REMARK  Name = 
REMARK  11 active torsions:
REMARK  status: ('A' for Active; 'I' for Inactive)
REMARK    1  A    between atoms: C_2  and  C_3
REMARK    2  A    between atoms: C_3  and  C_4
REMARK    3  A    between atoms: C_4  and  C_5
REMARK    4  A    between atoms: C_5  and  C_6
REMARK    5  A    between atoms: C_6  and  C_7
REMARK    6  A    between atoms: C_7  and  C_8
REMARK    7  A    between atoms: N_10  and  C_11
REMARK    8  A    between atoms: C_11  and  C_12
REMARK    9  A    between atoms: C_11  and  C_18
REMARK   10  A    between atoms: C_12  and  N_13
REMARK   11  A    between atoms: C_18  and  C_20
REMARK                            x       y       z     vdW  Elec       q    Type
REMARK                         _______ _______ _______ _____ _____    ______ ____
ROOT
ATOM      1  C   UNL     1     -11.027  14.725  66.221  0.00  0.00    +0.146 C 
ENDROOT
BRANCH   1   3
ATOM      2  C   UNL     1     -11.802  13.235  64.326  0.00  0.00    +0.241 C 
ATOM      3  N   UNL     1     -10.876  13.404  65.377  0.00  0.00    -0.203 NA
ATOM      4  O   UNL     1     -12.969  13.624  64.552  0.00  0.00    -0.273 OA
BRANCH   2   5
ATOM      5  C   UNL     1     -11.603  12.084  63.399  0.00  0.00    +0.087 C 
BRANCH   5   6
ATOM      6  C   UNL     1     -10.583  11.106  63.969  0.00  0.00    +0.010 C 
BRANCH   6   7
ATOM      7  C   UNL     1      -9.413  11.109  62.993  0.00  0.00    +0.001 C 
BRANCH   7   8
ATOM      8  C   UNL     1      -9.172   9.663  62.569  0.00  0.00    +0.000 C 
BRANCH   8   9
ATOM      9  C   UNL     1      -8.876   9.710  61.077  0.00  0.00    +0.000 C 
BRANCH   9  11
ATOM     10  C   UNL     1      -9.877   8.379  59.902  0.00  0.00    +0.000 C 
ATOM     11  C   UNL     1      -9.651   8.576  60.420  0.00  0.00    +0.000 C 
ENDBRANCH   9  11
ENDBRANCH   8   9
ENDBRANCH   7   8
ENDBRANCH   6   7
ENDBRANCH   5   6
ENDBRANCH   2   5
ENDBRANCH   1   3
BRANCH   1  12
ATOM     12  C   UNL     1     -10.435  13.929  67.662  0.00  0.00    +0.195 C 
ATOM     13  O   UNL     1     -11.495  12.819  67.573  0.00  0.00    -0.216 OA
BRANCH  12  14
ATOM     14  C   UNL     1     -11.346  14.864  68.646  0.00  0.00    +0.013 A 
ATOM     15  C   UNL     1     -12.333  14.276  69.347  0.00  0.00    +0.038 A 
ATOM     16  C   UNL     1     -12.802  14.918  70.497  0.00  0.00    +0.172 A 
ATOM     17  O   UNL     1     -13.715  14.274  71.338  0.00  0.00    -0.468 OA
ATOM     18  C   UNL     1     -13.528  14.054  72.707  0.00  0.00    +0.253 C 
ATOM     19  C   UNL     1     -12.654  15.055  73.391  0.00  0.00    +0.253 C 
ATOM     20  O   UNL     1     -11.743  15.706  72.552  0.00  0.00    -0.468 OA
ATOM     21  C   UNL     1     -11.875  15.712  71.163  0.00  0.00    +0.172 A 
ATOM     22  C   UNL     1     -10.863  16.328  70.440  0.00  0.00    +0.040 A 
ATOM     23  C   UNL     1     -10.606  15.930  69.141  0.00  0.00    +0.002 A 
ENDBRANCH  12  14
ENDBRANCH   1  12
BRANCH   1  24
ATOM     24  C   UNL     1      -9.506  15.206  65.835  0.00  0.00    +0.097 C 
BRANCH  24  25
ATOM     25  N   UNL     1      -9.450  16.599  65.801  0.00  0.00    -0.271 NA
ATOM     26  C   UNL     1     -10.672  17.327  65.870  0.00  0.00    +0.072 C 
ATOM     27  C   UNL     1     -10.271  18.769  66.115  0.00  0.00    +0.019 C 
ATOM     28  C   UNL     1      -9.005  18.588  66.916  0.00  0.00    +0.019 C 
ATOM     29  C   UNL     1      -8.406  17.288  66.433  0.00  0.00    +0.072 C 
ENDBRANCH  24  25
ENDBRANCH   1  24
TORSDOF 11
ENDMDL
MODEL 8
REMARK VINA RESULT:      -6.4      3.077      5.335
REMARK  Name = 
REMARK  11 active torsions:
REMARK  status: ('A' for Active; 'I' for Inactive)
REMARK    1  A    between atoms: C_2  and  C_3
REMARK    2  A    between atoms: C_3  and  C_4
REMARK    3  A    between atoms: C_4  and  C_5
REMARK    4  A    between atoms: C_5  and  C_6
REMARK    5  A    between atoms: C_6  and  C_7
REMARK    6  A    between atoms: C_7  and  C_8
REMARK    7  A    between atoms: N_10  and  C_11
REMARK    8  A    between atoms: C_11  and  C_12
REMARK    9  A    between atoms: C_11  and  C_18
REMARK   10  A    between atoms: C_12  and  N_13
REMARK   11  A    between atoms: C_18  and  C_20
REMARK                            x       y       z     vdW  Elec       q    Type
REMARK                         _______ _______ _______ _____ _____    ______ ____
ROOT
ATOM      1  C   UNL     1      -9.434  14.788  66.677  0.00  0.00    +0.146 C 
ENDROOT
BRANCH   1   3
ATOM      2  C   UNL     1      -7.605  16.534  66.550  0.00  0.00    +0.241 C 
ATOM      3  N   UNL     1      -8.928  16.253  66.953  0.00  0.00    -0.203 NA
ATOM      4  O   UNL     1      -6.772  15.614  66.711  0.00  0.00    -0.273 OA
BRANCH   2   5
ATOM      5  C   UNL     1      -7.132  17.946  66.640  0.00  0.00    +0.087 C 
BRANCH   5   6
ATOM      6  C   UNL     1      -6.913  18.345  68.094  0.00  0.00    +0.010 C 
BRANCH   6   7
ATOM      7  C   UNL     1      -7.586  19.701  68.259  0.00  0.00    +0.001 C 
BRANCH   7   8
ATOM      8  C   UNL     1      -9.068  19.445  68.513  0.00  0.00    +0.000 C 
BRANCH   8   9
ATOM      9  C   UNL     1      -9.819  20.369  67.564  0.00  0.00    +0.000 C 
BRANCH   9  11
ATOM     10  C   UNL     1     -10.563  19.411  65.926  0.00  0.00    +0.000 C 
ATOM     11  C   UNL     1     -10.495  19.497  66.515  0.00  0.00    +0.000 C 
ENDBRANCH   9  11
ENDBRANCH   8   9
ENDBRANCH   7   8
ENDBRANCH   6   7
ENDBRANCH   5   6
ENDBRANCH   2   5
ENDBRANCH   1   3
BRANCH   1  12
ATOM     12  C   UNL     1     -10.178  14.695  68.258  0.00  0.00    +0.195 C 
ATOM     13  O   UNL     1      -8.822  14.553  68.968  0.00  0.00    -0.216 OA
BRANCH  12  14
ATOM     14  C   UNL     1     -10.404  13.081  68.143  0.00  0.00    +0.013 A 
ATOM     15  C   UNL     1      -9.347  12.274  68.345  0.00  0.00    +0.038 A 
ATOM     16  C   UNL     1      -9.586  10.945  68.706  0.00  0.00    +0.172 A 
ATOM     17  O   UNL     1      -8.524  10.114  69.073  0.00  0.00    -0.468 OA
ATOM     18  C   UNL     1      -8.433   9.414  70.282  0.00  0.00    +0.253 C 
ATOM     19  C   UNL     1      -9.745   9.051  70.898  0.00  0.00    +0.253 C 
ATOM     20  O   UNL     1     -10.813   9.876  70.528  0.00  0.00    -0.468 OA
ATOM     21  C   UNL     1     -10.760  10.717  69.415  0.00  0.00    +0.172 A 
ATOM     22  C   UNL     1     -11.856  11.542  69.200  0.00  0.00    +0.040 A 
ATOM     23  C   UNL     1     -11.696  12.734  68.520  0.00  0.00    +0.002 A 
ENDBRANCH  12  14
ENDBRANCH   1  12
BRANCH   1  24
ATOM     24  C   UNL     1     -10.836  15.340  66.026  0.00  0.00    +0.097 C 
BRANCH  24  25
ATOM     25  N   UNL     1     -11.293  14.440  65.065  0.00  0.00    -0.271 NA
ATOM     26  C   UNL     1     -10.372  13.492  64.533  0.00  0.00    +0.072 C 
ATOM     27  C   UNL     1     -11.216  12.491  63.769  0.00  0.00    +0.019 C 
ATOM     28  C   UNL     1     -12.494  12.512  64.574  0.00  0.00    +0.019 C 
ATOM     29  C   UNL     1     -12.587  13.909  65.141  0.00  0.00    +0.072 C 
ENDBRANCH  24  25
ENDBRANCH   1  24
TORSDOF 11
ENDMDL
MODEL 9
REMARK VINA RESULT:      -6.3      2.863      5.212
REMARK  Name = 
REMARK  11 active torsions:
REMARK  status: ('A' for Active; 'I' for Inactive)
REMARK    1  A    between atoms: C_2  and  C_3
REMARK    2  A    between atoms: C_3  and  C_4
REMARK    3  A    between atoms: C_4  and  C_5
REMARK    4  A    between atoms: C_5  and  C_6
REMARK    5  A    between atoms: C_6  and  C_7
REMARK    6  A    between atoms: C_7  and  C_8
REMARK    7  A    between atoms: N_10  and  C_11
REMARK    8  A    between atoms: C_11  and  C_12
REMARK    9  A    between atoms: C_11  and  C_18
REMARK   10  A    between atoms: C_12  and  N_13
REMARK   11  A    between atoms: C_18  and  C_20
REMARK                            x       y       z     vdW  Elec       q    Type
REMARK                         _______ _______ _______ _____ _____    ______ ____
ROOT
ATOM      1  C   UNL     1     -10.393  14.686  66.782  0.00  0.00    +0.146 C 
ENDROOT
BRANCH   1   3
ATOM      2  C   UNL     1     -10.137  17.110  66.095  0.00  0.00    +0.241 C 
ATOM      3  N   UNL     1     -10.690  16.211  67.033  0.00  0.00    -0.203 NA
ATOM      4  O   UNL     1      -8.997  16.825  65.666  0.00  0.00    -0.273 OA
BRANCH   2   5
ATOM      5  C   UNL     1     -10.521  18.547  66.195  0.00  0.00    +0.087 C 
BRANCH   5   6
ATOM      6  C   UNL     1      -9.282  19.430  66.260  0.00  0.00    +0.010 C 
BRANCH   6   7
ATOM      7  C   UNL     1      -9.412  20.235  67.547  0.00  0.00    +0.001 C 
BRANCH   7   8
ATOM      8  C   UNL     1      -8.908  19.355  68.686  0.00  0.00    +0.000 C 
BRANCH   8   9
ATOM      9  C   UNL     1      -7.455  19.041  68.360  0.00  0.00    +0.000 C 
BRANCH   9  11
ATOM     10  C   UNL     1      -7.411  17.045  68.768  0.00  0.00    +0.000 C 
ATOM     11  C   UNL     1      -7.191  17.602  68.779  0.00  0.00    +0.000 C 
ENDBRANCH   9  11
ENDBRANCH   8   9
ENDBRANCH   7   8
ENDBRANCH   6   7
ENDBRANCH   5   6
ENDBRANCH   2   5
ENDBRANCH   1   3
BRANCH   1  12
ATOM     12  C   UNL     1     -11.111  14.245  68.316  0.00  0.00    +0.195 C 
ATOM     13  O   UNL     1      -9.827  14.574  69.094  0.00  0.00    -0.216 OA
BRANCH  12  14
ATOM     14  C   UNL     1     -10.719  12.668  68.133  0.00  0.00    +0.013 A 
ATOM     15  C   UNL     1      -9.434  12.308  68.305  0.00  0.00    +0.038 A 
ATOM     16  C   UNL     1      -9.156  10.972  68.610  0.00  0.00    +0.172 A 
ATOM     17  O   UNL     1      -7.855  10.585  68.946  0.00  0.00    -0.468 OA
ATOM     18  C   UNL     1      -7.494   9.923  70.125  0.00  0.00    +0.253 C 
ATOM     19  C   UNL     1      -8.567   9.072  70.722  0.00  0.00    +0.253 C 
ATOM     20  O   UNL     1      -9.871   9.453  70.384  0.00  0.00    -0.468 OA
ATOM     21  C   UNL     1     -10.150  10.294  69.307  0.00  0.00    +0.172 A 
ATOM     22  C   UNL     1     -11.477  10.658  69.124  0.00  0.00    +0.040 A 
ATOM     23  C   UNL     1     -11.783  11.850  68.493  0.00  0.00    +0.002 A 
ENDBRANCH  12  14
ENDBRANCH   1  12
BRANCH   1  24
ATOM     24  C   UNL     1     -11.833  14.477  66.023  0.00  0.00    +0.097 C 
BRANCH  24  25
ATOM     25  N   UNL     1     -11.658  13.669  64.901  0.00  0.00    -0.271 NA
ATOM     26  C   UNL     1     -10.331  13.338  64.505  0.00  0.00    +0.072 C 
ATOM     27  C   UNL     1     -10.477  12.234  63.476  0.00  0.00    +0.019 C 
ATOM     28  C   UNL     1     -11.727  11.543  63.965  0.00  0.00    +0.019 C 
ATOM     29  C   UNL     1     -12.549  12.623  64.628  0.00  0.00    +0.072 C 
ENDBRANCH  24  25
ENDBRANCH   1  24
TORSDOF 11
ENDMDL
