MODEL 1
REMARK VINA RESULT:      -6.9      0.000      0.000
REMARK  Name = 
REMARK  4 active torsions:
REMARK  status: ('A' for Active; 'I' for Inactive)
REMARK    1  A    between atoms: CA_6  and  N_7
REMARK    2  A    between atoms: C_8  and  CA_10
REMARK    3  A    between atoms: CA_10  and  C_12
REMARK    4  A    between atoms: CA_21  and  C_22
REMARK                            x       y       z     vdW  Elec       q    Type
REMARK                         _______ _______ _______ _____ _____    ______ ____
ROOT
ATOM      1  C   UNL     1     -11.691  12.100  67.678  0.00  0.00    +0.013 C 
ATOM      2  C   UNL     1     -10.772  12.855  66.817  0.00  0.00    +0.068 C 
ATOM      3  CA  UNL     1     -11.873  13.766  65.975  0.00  0.00    +0.189 C 
ATOM      4  N   UNL     1     -10.831  14.636  65.167  0.00  0.00    -0.259 N 
ATOM      5  C   UNL     1      -9.519  14.734  65.879  0.00  0.00    +0.153 C 
ATOM      6  CA  UNL     1      -9.744  16.414  65.781  0.00  0.00    +0.200 C 
ATOM      7  C   UNL     1     -11.036  16.018  64.892  0.00  0.00    +0.249 C 
ATOM      8  O   UNL     1     -11.400  16.784  63.975  0.00  0.00    -0.273 OA
ATOM      9  S   UNL     1     -10.124  14.293  67.644  0.00  0.00    -0.118 S 
ATOM     10  C   UNL     1      -9.939  12.099  65.934  0.00  0.00    +0.013 C 
ENDROOT
BRANCH   3  11
ATOM     11  C   UNL     1     -12.043  12.642  64.793  0.00  0.00    +0.383 C 
ATOM     12  OXT UNL     1     -13.378  12.240  64.637  0.00  0.00    -0.244 OA
ATOM     13  O   UNL     1     -11.413  12.800  63.754  0.00  0.00    -0.244 OA
ENDBRANCH   3  11
BRANCH   6  14
ATOM     14  N   UNL     1     -10.596  16.597  67.120  0.00  0.00    -0.194 NA
ATOM     15  C   UNL     1     -10.427  17.920  67.489  0.00  0.00    +0.264 C 
ATOM     16  O   UNL     1     -10.871  18.815  66.815  0.00  0.00    -0.271 OA
BRANCH  15  17
ATOM     17  CA  UNL     1      -9.784  18.264  68.946  0.00  0.00    +0.191 C 
ATOM     18  N   UNL     1     -10.217  19.806  68.834  0.00  0.00    -0.118 NA
BRANCH  17  19
ATOM     19  C   UNL     1      -8.288  18.490  68.326  0.00  0.00    +0.004 A 
ATOM     20  C   UNL     1      -7.401  17.495  68.360  0.00  0.00    -0.002 A 
ATOM     21  C   UNL     1      -6.181  17.746  67.744  0.00  0.00    -0.000 A 
ATOM     22  C   UNL     1      -5.986  18.902  67.003  0.00  0.00    -0.000 A 
ATOM     23  C   UNL     1      -6.792  19.988  67.318  0.00  0.00    -0.000 A 
ATOM     24  C   UNL     1      -8.022  19.776  67.933  0.00  0.00    -0.002 A 
ENDBRANCH  17  19
ENDBRANCH  15  17
ENDBRANCH   6  14
TORSDOF 4
ENDMDL
MODEL 2
REMARK VINA RESULT:      -6.7      2.164      6.415
REMARK  Name = 
REMARK  4 active torsions:
REMARK  status: ('A' for Active; 'I' for Inactive)
REMARK    1  A    between atoms: CA_6  and  N_7
REMARK    2  A    between atoms: C_8  and  CA_10
REMARK    3  A    between atoms: CA_10  and  C_12
REMARK    4  A    between atoms: CA_21  and  C_22
REMARK                            x       y       z     vdW  Elec       q    Type
REMARK                         _______ _______ _______ _____ _____    ______ ____
ROOT
ATOM      1  C   UNL     1      -5.118  17.952  66.532  0.00  0.00    +0.013 C 
ATOM      2  C   UNL     1      -6.401  18.056  67.238  0.00  0.00    +0.068 C 
ATOM      3  CA  UNL     1      -7.219  19.033  66.178  0.00  0.00    +0.189 C 
ATOM      4  N   UNL     1      -8.613  19.004  66.920  0.00  0.00    -0.259 N 
ATOM      5  C   UNL     1      -8.775  17.771  67.749  0.00  0.00    +0.153 C 
ATOM      6  CA  UNL     1     -10.188  17.510  66.845  0.00  0.00    +0.200 C 
ATOM      7  C   UNL     1      -9.852  18.964  66.221  0.00  0.00    +0.249 C 
ATOM      8  O   UNL     1     -10.795  19.703  65.866  0.00  0.00    -0.273 OA
ATOM      9  S   UNL     1      -7.466  16.674  66.880  0.00  0.00    -0.118 S 
ATOM     10  C   UNL     1      -6.375  18.620  68.552  0.00  0.00    +0.013 C 
ENDROOT
BRANCH   3  11
ATOM     11  C   UNL     1      -6.715  20.412  66.910  0.00  0.00    +0.383 C 
ATOM     12  OXT UNL     1      -5.710  21.060  66.176  0.00  0.00    -0.244 OA
ATOM     13  O   UNL     1      -7.563  21.143  67.407  0.00  0.00    -0.244 OA
ENDBRANCH   3  11
BRANCH   6  14
ATOM     14  N   UNL     1      -9.523  16.721  65.627  0.00  0.00    -0.194 NA
ATOM     15  C   UNL     1     -10.572  16.110  64.962  0.00  0.00    +0.264 C 
ATOM     16  O   UNL     1     -11.404  16.761  64.382  0.00  0.00    -0.271 OA
BRANCH  15  17
ATOM     17  CA  UNL     1     -10.579  14.489  64.806  0.00  0.00    +0.191 C 
ATOM     18  N   UNL     1     -12.165  14.465  64.557  0.00  0.00    -0.118 NA
BRANCH  17  19
ATOM     19  C   UNL     1     -10.683  14.249  66.419  0.00  0.00    +0.004 A 
ATOM     20  C   UNL     1      -9.621  13.801  67.091  0.00  0.00    -0.002 A 
ATOM     21  C   UNL     1      -9.772  13.698  68.469  0.00  0.00    -0.000 A 
ATOM     22  C   UNL     1     -10.905  14.194  69.096  0.00  0.00    -0.000 A 
ATOM     23  C   UNL     1     -12.053  14.298  68.322  0.00  0.00    -0.000 A 
ATOM     24  C   UNL     1     -11.942  14.406  66.939  0.00  0.00    -0.002 A 
ENDBRANCH  17  19
ENDBRANCH  15  17
ENDBRANCH   6  14
TORSDOF 4
ENDMDL
MODEL 3
REMARK VINA RESULT:      -6.3      2.720      6.797
REMARK  Name = 
REMARK  4 active torsions:
REMARK  status: ('A' for Active; 'I' for Inactive)
REMARK    1  A    between atoms: CA_6  and  N_7
REMARK    2  A    between atoms: C_8  and  CA_10
REMARK    3  A    between atoms: CA_10  and  C_12
REMARK    4  A    between atoms: CA_21  and  C_22
REMARK                            x       y       z     vdW  Elec       q    Type
REMARK                         _______ _______ _______ _____ _____    ______ ____
ROOT
ATOM      1  C   UNL     1      -9.843  19.534  68.750  0.00  0.00    +0.013 C 
ATOM      2  C   UNL     1      -9.447  18.699  67.610  0.00  0.00    +0.068 C 
ATOM      3  CA  UNL     1      -8.203  17.855  68.309  0.00  0.00    +0.189 C 
ATOM      4  N   UNL     1      -7.906  16.897  67.089  0.00  0.00    -0.259 N 
ATOM      5  C   UNL     1      -9.109  16.716  66.219  0.00  0.00    +0.153 C 
ATOM      6  CA  UNL     1      -8.900  15.055  66.504  0.00  0.00    +0.200 C 
ATOM      7  C   UNL     1      -7.550  15.529  67.258  0.00  0.00    +0.249 C 
ATOM      8  O   UNL     1      -6.554  14.774  67.250  0.00  0.00    -0.273 OA
ATOM      9  S   UNL     1     -10.451  17.233  67.486  0.00  0.00    -0.118 S 
ATOM     10  C   UNL     1      -9.017  19.376  66.426  0.00  0.00    +0.013 C 
ENDROOT
BRANCH   3  11
ATOM     11  C   UNL     1      -7.077  18.966  67.873  0.00  0.00    +0.383 C 
ATOM     12  OXT UNL     1      -6.668  19.754  68.959  0.00  0.00    -0.244 OA
ATOM     13  O   UNL     1      -6.187  18.614  67.108  0.00  0.00    -0.244 OA
ENDBRANCH   3  11
BRANCH   6  14
ATOM     14  N   UNL     1      -9.742  14.960  67.857  0.00  0.00    -0.194 NA
ATOM     15  C   UNL     1     -10.103  13.629  67.977  0.00  0.00    +0.264 C 
ATOM     16  O   UNL     1      -9.275  12.775  68.166  0.00  0.00    -0.271 OA
BRANCH  15  17
ATOM     17  CA  UNL     1     -11.683  13.237  68.048  0.00  0.00    +0.191 C 
ATOM     18  N   UNL     1     -11.343  11.685  68.284  0.00  0.00    -0.118 NA
BRANCH  17  19
ATOM     19  C   UNL     1     -11.812  13.110  66.424  0.00  0.00    +0.004 A 
ATOM     20  C   UNL     1     -12.439  14.064  65.734  0.00  0.00    -0.002 A 
ATOM     21  C   UNL     1     -12.437  13.916  64.352  0.00  0.00    -0.000 A 
ATOM     22  C   UNL     1     -11.680  12.924  63.746  0.00  0.00    -0.000 A 
ATOM     23  C   UNL     1     -11.375  11.812  64.520  0.00  0.00    -0.000 A 
ATOM     24  C   UNL     1     -11.365  11.922  65.907  0.00  0.00    -0.002 A 
ENDBRANCH  17  19
ENDBRANCH  15  17
ENDBRANCH   6  14
TORSDOF 4
ENDMDL
MODEL 4
REMARK VINA RESULT:      -6.1      2.937      6.203
REMARK  Name = 
REMARK  4 active torsions:
REMARK  status: ('A' for Active; 'I' for Inactive)
REMARK    1  A    between atoms: CA_6  and  N_7
REMARK    2  A    between atoms: C_8  and  CA_10
REMARK    3  A    between atoms: CA_10  and  C_12
REMARK    4  A    between atoms: CA_21  and  C_22
REMARK                            x       y       z     vdW  Elec       q    Type
REMARK                         _______ _______ _______ _____ _____    ______ ____
ROOT
ATOM      1  C   UNL     1      -5.461  16.715  67.252  0.00  0.00    +0.013 C 
ATOM      2  C   UNL     1      -6.718  17.377  67.622  0.00  0.00    +0.068 C 
ATOM      3  CA  UNL     1      -7.457  17.408  66.137  0.00  0.00    +0.189 C 
ATOM      4  N   UNL     1      -8.837  18.008  66.618  0.00  0.00    -0.259 N 
ATOM      5  C   UNL     1      -9.102  17.708  68.058  0.00  0.00    +0.153 C 
ATOM      6  CA  UNL     1     -10.545  17.004  67.508  0.00  0.00    +0.200 C 
ATOM      7  C   UNL     1     -10.085  17.591  66.073  0.00  0.00    +0.249 C 
ATOM      8  O   UNL     1     -10.959  17.950  65.256  0.00  0.00    -0.273 OA
ATOM      9  S   UNL     1      -7.913  16.219  68.258  0.00  0.00    -0.118 S 
ATOM     10  C   UNL     1      -6.622  18.688  68.183  0.00  0.00    +0.013 C 
ENDROOT
BRANCH   3  11
ATOM     11  C   UNL     1      -6.816  18.866  65.743  0.00  0.00    +0.383 C 
ATOM     12  OXT UNL     1      -5.818  18.754  64.764  0.00  0.00    -0.244 OA
ATOM     13  O   UNL     1      -7.581  19.815  65.614  0.00  0.00    -0.244 OA
ENDBRANCH   3  11
BRANCH   6  14
ATOM     14  N   UNL     1      -9.974  15.544  67.208  0.00  0.00    -0.194 NA
ATOM     15  C   UNL     1     -10.934  14.665  67.678  0.00  0.00    +0.264 C 
ATOM     16  O   UNL     1     -12.019  14.594  67.159  0.00  0.00    -0.271 OA
BRANCH  15  17
ATOM     17  CA  UNL     1     -10.529  13.584  68.828  0.00  0.00    +0.191 C 
ATOM     18  N   UNL     1     -11.693  12.578  68.370  0.00  0.00    -0.118 NA
BRANCH  17  19
ATOM     19  C   UNL     1     -11.427  14.334  69.969  0.00  0.00    +0.004 A 
ATOM     20  C   UNL     1     -10.988  15.468  70.517  0.00  0.00    -0.002 A 
ATOM     21  C   UNL     1     -11.847  16.080  71.422  0.00  0.00    -0.000 A 
ATOM     22  C   UNL     1     -13.140  15.611  71.598  0.00  0.00    -0.000 A 
ATOM     23  C   UNL     1     -13.370  14.278  71.281  0.00  0.00    -0.000 A 
ATOM     24  C   UNL     1     -12.532  13.633  70.376  0.00  0.00    -0.002 A 
ENDBRANCH  17  19
ENDBRANCH  15  17
ENDBRANCH   6  14
TORSDOF 4
ENDMDL
MODEL 5
REMARK VINA RESULT:      -5.9      2.091      6.891
REMARK  Name = 
REMARK  4 active torsions:
REMARK  status: ('A' for Active; 'I' for Inactive)
REMARK    1  A    between atoms: CA_6  and  N_7
REMARK    2  A    between atoms: C_8  and  CA_10
REMARK    3  A    between atoms: CA_10  and  C_12
REMARK    4  A    between atoms: CA_21  and  C_22
REMARK                            x       y       z     vdW  Elec       q    Type
REMARK                         _______ _______ _______ _____ _____    ______ ____
ROOT
ATOM      1  C   UNL     1      -5.218  17.812  68.118  0.00  0.00    +0.013 C 
ATOM      2  C   UNL     1      -6.589  18.233  68.428  0.00  0.00    +0.068 C 
ATOM      3  CA  UNL     1      -7.106  18.626  66.902  0.00  0.00    +0.189 C 
ATOM      4  N   UNL     1      -8.606  18.946  67.279  0.00  0.00    -0.259 N 
ATOM      5  C   UNL     1      -9.033  18.226  68.518  0.00  0.00    +0.153 C 
ATOM      6  CA  UNL     1     -10.281  17.591  67.558  0.00  0.00    +0.200 C 
ATOM      7  C   UNL     1      -9.699  18.600  66.435  0.00  0.00    +0.249 C 
ATOM      8  O   UNL     1     -10.486  19.103  65.605  0.00  0.00    -0.273 OA
ATOM      9  S   UNL     1      -7.703  16.846  68.513  0.00  0.00    -0.118 S 
ATOM     10  C   UNL     1      -6.743  19.333  69.329  0.00  0.00    +0.013 C 
ENDROOT
BRANCH   3  11
ATOM     11  C   UNL     1      -6.608  20.184  67.031  0.00  0.00    +0.383 C 
ATOM     12  OXT UNL     1      -5.520  20.460  66.189  0.00  0.00    -0.244 OA
ATOM     13  O   UNL     1      -7.464  21.058  67.094  0.00  0.00    -0.244 OA
ENDBRANCH   3  11
BRANCH   6  14
ATOM     14  N   UNL     1      -9.489  16.330  66.980  0.00  0.00    -0.194 NA
ATOM     15  C   UNL     1     -10.462  15.435  66.573  0.00  0.00    +0.264 C 
ATOM     16  O   UNL     1     -11.192  15.687  65.647  0.00  0.00    -0.271 OA
BRANCH  15  17
ATOM     17  CA  UNL     1     -10.501  13.946  67.234  0.00  0.00    +0.191 C 
ATOM     18  N   UNL     1      -8.943  13.709  66.925  0.00  0.00    -0.118 NA
BRANCH  17  19
ATOM     19  C   UNL     1     -11.028  13.253  65.850  0.00  0.00    +0.004 A 
ATOM     20  C   UNL     1     -12.327  12.993  65.695  0.00  0.00    -0.002 A 
ATOM     21  C   UNL     1     -12.700  12.474  64.461  0.00  0.00    -0.000 A 
ATOM     22  C   UNL     1     -11.788  12.401  63.418  0.00  0.00    -0.000 A 
ATOM     23  C   UNL     1     -10.445  12.350  63.767  0.00  0.00    -0.000 A 
ATOM     24  C   UNL     1     -10.033  12.862  64.993  0.00  0.00    -0.002 A 
ENDBRANCH  17  19
ENDBRANCH  15  17
ENDBRANCH   6  14
TORSDOF 4
ENDMDL
MODEL 6
REMARK VINA RESULT:      -5.9      3.186      7.443
REMARK  Name = 
REMARK  4 active torsions:
REMARK  status: ('A' for Active; 'I' for Inactive)
REMARK    1  A    between atoms: CA_6  and  N_7
REMARK    2  A    between atoms: C_8  and  CA_10
REMARK    3  A    between atoms: CA_10  and  C_12
REMARK    4  A    between atoms: CA_21  and  C_22
REMARK                            x       y       z     vdW  Elec       q    Type
REMARK                         _______ _______ _______ _____ _____    ______ ____
ROOT
ATOM      1  C   UNL     1      -9.249  15.732  66.283  0.00  0.00    +0.013 C 
ATOM      2  C   UNL     1     -10.222  14.637  66.380  0.00  0.00    +0.068 C 
ATOM      3  CA  UNL     1     -10.459  14.339  64.766  0.00  0.00    +0.189 C 
ATOM      4  N   UNL     1     -11.406  13.086  64.935  0.00  0.00    -0.259 N 
ATOM      5  C   UNL     1     -11.180  12.391  66.240  0.00  0.00    +0.153 C 
ATOM      6  CA  UNL     1     -10.893  11.006  65.301  0.00  0.00    +0.200 C 
ATOM      7  C   UNL     1     -11.342  11.956  64.071  0.00  0.00    +0.249 C 
ATOM      8  O   UNL     1     -11.927  11.444  63.093  0.00  0.00    -0.273 OA
ATOM      9  S   UNL     1      -9.425  13.062  66.616  0.00  0.00    -0.118 S 
ATOM     10  C   UNL     1     -11.457  14.922  67.043  0.00  0.00    +0.013 C 
ENDROOT
BRANCH   3  11
ATOM     11  C   UNL     1     -11.693  15.414  64.650  0.00  0.00    +0.383 C 
ATOM     12  OXT UNL     1     -11.256  16.669  64.202  0.00  0.00    -0.244 OA
ATOM     13  O   UNL     1     -12.754  15.023  64.180  0.00  0.00    -0.244 OA
ENDBRANCH   3  11
BRANCH   6  14
ATOM     14  N   UNL     1      -9.335  11.238  65.044  0.00  0.00    -0.194 NA
ATOM     15  C   UNL     1      -8.840  10.014  64.630  0.00  0.00    +0.264 C 
ATOM     16  O   UNL     1      -9.174   9.531  63.578  0.00  0.00    -0.271 OA
BRANCH  15  17
ATOM     17  CA  UNL     1      -7.653   9.304  65.490  0.00  0.00    +0.191 C 
ATOM     18  N   UNL     1      -7.849   7.911  64.715  0.00  0.00    -0.118 NA
BRANCH  17  19
ATOM     19  C   UNL     1      -8.656   8.923  66.723  0.00  0.00    +0.004 A 
ATOM     20  C   UNL     1      -8.520   9.537  67.900  0.00  0.00    -0.002 A 
ATOM     21  C   UNL     1      -9.462   9.210  68.869  0.00  0.00    -0.000 A 
ATOM     22  C   UNL     1     -10.560   8.425  68.553  0.00  0.00    -0.000 A 
ATOM     23  C   UNL     1     -10.427   7.575  67.462  0.00  0.00    -0.000 A 
ATOM     24  C   UNL     1      -9.497   7.871  66.470  0.00  0.00    -0.002 A 
ENDBRANCH  17  19
ENDBRANCH  15  17
ENDBRANCH   6  14
TORSDOF 4
ENDMDL
MODEL 7
REMARK VINA RESULT:      -5.9      3.465      5.645
REMARK  Name = 
REMARK  4 active torsions:
REMARK  status: ('A' for Active; 'I' for Inactive)
REMARK    1  A    between atoms: CA_6  and  N_7
REMARK    2  A    between atoms: C_8  and  CA_10
REMARK    3  A    between atoms: CA_10  and  C_12
REMARK    4  A    between atoms: CA_21  and  C_22
REMARK                            x       y       z     vdW  Elec       q    Type
REMARK                         _______ _______ _______ _____ _____    ______ ____
ROOT
ATOM      1  C   UNL     1     -11.977   9.487  70.474  0.00  0.00    +0.013 C 
ATOM      2  C   UNL     1     -10.873  10.004  69.657  0.00  0.00    +0.068 C 
ATOM      3  CA  UNL     1     -11.115   9.117  68.278  0.00  0.00    +0.189 C 
ATOM      4  N   UNL     1      -9.990   9.801  67.405  0.00  0.00    -0.259 N 
ATOM      5  C   UNL     1      -9.689  11.188  67.874  0.00  0.00    +0.153 C 
ATOM      6  CA  UNL     1     -10.051  11.662  66.285  0.00  0.00    +0.200 C 
ATOM      7  C   UNL     1     -10.156  10.070  66.016  0.00  0.00    +0.249 C 
ATOM      8  O   UNL     1      -9.840   9.622  64.893  0.00  0.00    -0.273 OA
ATOM      9  S   UNL     1     -11.316  11.519  68.832  0.00  0.00    -0.118 S 
ATOM     10  C   UNL     1      -9.549   9.826  70.166  0.00  0.00    +0.013 C 
ENDROOT
BRANCH   3  11
ATOM     11  C   UNL     1     -10.152   7.889  68.784  0.00  0.00    +0.383 C 
ATOM     12  OXT UNL     1     -10.894   6.767  69.181  0.00  0.00    -0.244 OA
ATOM     13  O   UNL     1      -9.136   7.652  68.142  0.00  0.00    -0.244 OA
ENDBRANCH   3  11
BRANCH   6  14
ATOM     14  N   UNL     1     -11.627  11.837  66.464  0.00  0.00    -0.194 NA
ATOM     15  C   UNL     1     -12.043  12.589  65.379  0.00  0.00    +0.264 C 
ATOM     16  O   UNL     1     -11.991  12.147  64.259  0.00  0.00    -0.271 OA
BRANCH  15  17
ATOM     17  CA  UNL     1     -12.783  14.017  65.637  0.00  0.00    +0.191 C 
ATOM     18  N   UNL     1     -12.510  14.494  64.128  0.00  0.00    -0.118 NA
BRANCH  17  19
ATOM     19  C   UNL     1     -11.433  14.703  66.251  0.00  0.00    +0.004 A 
ATOM     20  C   UNL     1     -11.383  15.024  67.544  0.00  0.00    -0.002 A 
ATOM     21  C   UNL     1     -10.172  15.532  68.000  0.00  0.00    -0.000 A 
ATOM     22  C   UNL     1      -9.053  15.535  67.181  0.00  0.00    -0.000 A 
ATOM     23  C   UNL     1      -9.282  15.527  65.811  0.00  0.00    -0.000 A 
ATOM     24  C   UNL     1     -10.482  15.024  65.317  0.00  0.00    -0.002 A 
ENDBRANCH  17  19
ENDBRANCH  15  17
ENDBRANCH   6  14
TORSDOF 4
ENDMDL
MODEL 8
REMARK VINA RESULT:      -5.7      2.214      6.803
REMARK  Name = 
REMARK  4 active torsions:
REMARK  status: ('A' for Active; 'I' for Inactive)
REMARK    1  A    between atoms: CA_6  and  N_7
REMARK    2  A    between atoms: C_8  and  CA_10
REMARK    3  A    between atoms: CA_10  and  C_12
REMARK    4  A    between atoms: CA_21  and  C_22
REMARK                            x       y       z     vdW  Elec       q    Type
REMARK                         _______ _______ _______ _____ _____    ______ ____
ROOT
ATOM      1  C   UNL     1      -7.182  18.342  66.044  0.00  0.00    +0.013 C 
ATOM      2  C   UNL     1      -7.597  17.630  67.258  0.00  0.00    +0.068 C 
ATOM      3  CA  UNL     1      -9.215  17.995  67.248  0.00  0.00    +0.189 C 
ATOM      4  N   UNL     1      -9.623  17.109  68.491  0.00  0.00    -0.259 N 
ATOM      5  C   UNL     1      -8.673  15.973  68.699  0.00  0.00    +0.153 C 
ATOM      6  CA  UNL     1     -10.046  14.980  68.591  0.00  0.00    +0.200 C 
ATOM      7  C   UNL     1     -10.848  16.384  68.546  0.00  0.00    +0.249 C 
ATOM      8  O   UNL     1     -11.994  16.445  69.041  0.00  0.00    -0.273 OA
ATOM      9  S   UNL     1      -7.921  15.909  66.937  0.00  0.00    -0.118 S 
ATOM     10  C   UNL     1      -6.982  18.027  68.487  0.00  0.00    +0.013 C 
ENDROOT
BRANCH   3  11
ATOM     11  C   UNL     1      -9.010  19.362  68.130  0.00  0.00    +0.383 C 
ATOM     12  OXT UNL     1      -9.003  20.511  67.326  0.00  0.00    -0.244 OA
ATOM     13  O   UNL     1      -9.620  19.461  69.189  0.00  0.00    -0.244 OA
ENDBRANCH   3  11
BRANCH   6  14
ATOM     14  N   UNL     1     -10.062  14.804  67.004  0.00  0.00    -0.194 NA
ATOM     15  C   UNL     1     -11.009  13.828  66.748  0.00  0.00    +0.264 C 
ATOM     16  O   UNL     1     -12.178  14.024  66.965  0.00  0.00    -0.271 OA
BRANCH  15  17
ATOM     17  CA  UNL     1     -10.560  12.468  65.971  0.00  0.00    +0.191 C 
ATOM     18  N   UNL     1     -12.088  12.033  65.735  0.00  0.00    -0.118 NA
BRANCH  17  19
ATOM     19  C   UNL     1     -10.386  11.629  67.363  0.00  0.00    +0.004 A 
ATOM     20  C   UNL     1     -11.465  11.280  68.064  0.00  0.00    -0.002 A 
ATOM     21  C   UNL     1     -11.233  10.504  69.193  0.00  0.00    -0.000 A 
ATOM     22  C   UNL     1      -9.969   9.997  69.456  0.00  0.00    -0.000 A 
ATOM     23  C   UNL     1      -8.894  10.683  68.905  0.00  0.00    -0.000 A 
ATOM     24  C   UNL     1      -9.088  11.468  67.773  0.00  0.00    -0.002 A 
ENDBRANCH  17  19
ENDBRANCH  15  17
ENDBRANCH   6  14
TORSDOF 4
ENDMDL
MODEL 9
REMARK VINA RESULT:      -5.7      2.304      2.991
REMARK  Name = 
REMARK  4 active torsions:
REMARK  status: ('A' for Active; 'I' for Inactive)
REMARK    1  A    between atoms: CA_6  and  N_7
REMARK    2  A    between atoms: C_8  and  CA_10
REMARK    3  A    between atoms: CA_10  and  C_12
REMARK    4  A    between atoms: CA_21  and  C_22
REMARK                            x       y       z     vdW  Elec       q    Type
REMARK                         _______ _______ _______ _____ _____    ______ ____
ROOT
ATOM      1  C   UNL     1     -10.076  12.537  63.873  0.00  0.00    +0.013 C 
ATOM      2  C   UNL     1     -11.165  12.918  64.780  0.00  0.00    +0.068 C 
ATOM      3  CA  UNL     1     -10.423  12.628  66.234  0.00  0.00    +0.189 C 
ATOM      4  N   UNL     1     -11.584  13.169  67.159  0.00  0.00    -0.259 N 
ATOM      5  C   UNL     1     -12.434  14.175  66.451  0.00  0.00    +0.153 C 
ATOM      6  CA  UNL     1     -12.049  15.210  67.740  0.00  0.00    +0.200 C 
ATOM      7  C   UNL     1     -11.333  13.897  68.356  0.00  0.00    +0.249 C 
ATOM      8  O   UNL     1     -11.301  13.750  69.597  0.00  0.00    -0.273 OA
ATOM      9  S   UNL     1     -11.194  14.674  65.077  0.00  0.00    -0.118 S 
ATOM     10  C   UNL     1     -12.391  12.190  64.667  0.00  0.00    +0.013 C 
ENDROOT
BRANCH   3  11
ATOM     11  C   UNL     1     -10.932  11.070  66.292  0.00  0.00    +0.383 C 
ATOM     12  OXT UNL     1      -9.904  10.168  65.978  0.00  0.00    -0.244 OA
ATOM     13  O   UNL     1     -11.665  10.737  67.216  0.00  0.00    -0.244 OA
ENDBRANCH   3  11
BRANCH   6  14
ATOM     14  N   UNL     1     -10.688  15.798  67.148  0.00  0.00    -0.194 NA
ATOM     15  C   UNL     1     -10.395  16.908  67.921  0.00  0.00    +0.264 C 
ATOM     16  O   UNL     1     -10.104  16.796  69.085  0.00  0.00    -0.271 OA
BRANCH  15  17
ATOM     17  CA  UNL     1     -10.260  18.364  67.204  0.00  0.00    +0.191 C 
ATOM     18  N   UNL     1     -10.072  17.695  65.756  0.00  0.00    -0.118 NA
BRANCH  17  19
ATOM     19  C   UNL     1      -8.661  18.469  67.522  0.00  0.00    +0.004 A 
ATOM     20  C   UNL     1      -8.229  19.297  68.475  0.00  0.00    -0.002 A 
ATOM     21  C   UNL     1      -6.864  19.267  68.733  0.00  0.00    -0.000 A 
ATOM     22  C   UNL     1      -6.051  18.310  68.144  0.00  0.00    -0.000 A 
ATOM     23  C   UNL     1      -6.500  17.760  66.950  0.00  0.00    -0.000 A 
ATOM     24  C   UNL     1      -7.860  17.768  66.658  0.00  0.00    -0.002 A 
ENDBRANCH  17  19
ENDBRANCH  15  17
ENDBRANCH   6  14
TORSDOF 4
ENDMDL
