MODEL 1
REMARK VINA RESULT:      -6.1      0.000      0.000
REMARK  Name = 
REMARK  16 active torsions:
REMARK  status: ('A' for Active; 'I' for Inactive)
REMARK    1  A    between atoms: C_2  and  C_3
REMARK    2  A    between atoms: C_5  and  C_6
REMARK    3  A    between atoms: C_6  and  C_8
REMARK    4  A    between atoms: C_8  and  N_9
REMARK    5  A    between atoms: N_9  and  C_10
REMARK    6  A    between atoms: C_10  and  C_11
REMARK    7  A    between atoms: C_11  and  C_12
REMARK    8  A    between atoms: C_12  and  C_13
REMARK    9  A    between atoms: C_13  and  C_14
REMARK   10  A    between atoms: C_14  and  C_15
REMARK   11  A    between atoms: C_15  and  O_16
REMARK   12  A    between atoms: O_16  and  C_17
REMARK   13  A    between atoms: C_17  and  C_18
REMARK   14  A    between atoms: C_18  and  C_19
REMARK   15  A    between atoms: C_19  and  C_20
REMARK   16  A    between atoms: C_20  and  C_21
REMARK                            x       y       z     vdW  Elec       q    Type
REMARK                         _______ _______ _______ _____ _____    ______ ____
ROOT
ATOM      1  C   UNL     1      -9.432   9.768  64.908  0.00  0.00    +0.019 C 
ENDROOT
BRANCH   1   2
ATOM      2  C   UNL     1      -9.416   9.105  66.280  0.00  0.00    +0.089 C 
BRANCH   2   3
ATOM      3  N   UNL     1     -10.708   9.290  66.922  0.00  0.00    -0.215 NA
BRANCH   3   4
ATOM      4  C   UNL     1     -10.542   9.170  68.366  0.00  0.00    +0.126 C 
BRANCH   4   5
ATOM      5  C   UNL     1     -10.663  10.757  68.885  0.00  0.00    +0.192 C 
ATOM      6  O   UNL     1     -12.059  10.900  68.249  0.00  0.00    -0.217 OA
BRANCH   5  12
ATOM      7  C   UNL     1     -12.404   8.518  71.356  0.00  0.00    +0.049 A 
ATOM      8  C   UNL     1     -13.326   9.367  71.954  0.00  0.00    +0.194 A 
ATOM      9  O   UNL     1     -14.451   8.831  72.558  0.00  0.00    -0.287 OA
ATOM     10  C   UNL     1     -13.204  10.731  71.728  0.00  0.00    +0.042 A 
ATOM     11  C   UNL     1     -12.213  11.215  70.884  0.00  0.00    +0.001 A 
ATOM     12  C   UNL     1     -11.326  10.395  70.337  0.00  0.00    +0.009 A 
ATOM     13  C   UNL     1     -11.466   9.019  70.468  0.00  0.00    -0.000 A 
BRANCH   7  15
ATOM     14  O   UNL     1     -12.462   6.741  71.501  0.00  0.00    -0.215 OA
ATOM     15  C   UNL     1     -12.536   7.062  71.651  0.00  0.00    +0.212 C 
ENDBRANCH   7  15
ENDBRANCH   5  12
ENDBRANCH   4   5
ENDBRANCH   3   4
ENDBRANCH   2   3
ENDBRANCH   1   2
BRANCH   1  16
ATOM     16  C   UNL     1     -10.541  10.801  64.939  0.00  0.00    +0.002 C 
BRANCH  16  17
ATOM     17  C   UNL     1     -10.420  11.543  63.612  0.00  0.00    +0.003 C 
BRANCH  17  18
ATOM     18  C   UNL     1     -11.508  12.601  63.577  0.00  0.00    +0.032 C 
BRANCH  18  19
ATOM     19  C   UNL     1     -11.321  13.392  64.868  0.00  0.00    +0.142 C 
BRANCH  19  20
ATOM     20  O   UNL     1     -12.534  13.781  65.416  0.00  0.00    -0.354 OA
BRANCH  20  21
ATOM     21  C   UNL     1     -12.338  14.245  66.706  0.00  0.00    +0.142 C 
BRANCH  21  22
ATOM     22  C   UNL     1     -10.958  13.964  67.240  0.00  0.00    +0.032 C 
BRANCH  22  23
ATOM     23  C   UNL     1     -10.823  14.466  68.677  0.00  0.00    +0.007 C 
BRANCH  23  24
ATOM     24  C   UNL     1     -12.120  15.183  69.044  0.00  0.00    +0.026 C 
BRANCH  24  25
ATOM     25  C   UNL     1     -12.313  14.983  70.517  0.00  0.00    -0.022 A 
ATOM     26  C   UNL     1     -13.519  14.533  71.043  0.00  0.00    -0.004 A 
ATOM     27  C   UNL     1     -13.837  14.712  72.384  0.00  0.00    -0.000 A 
ATOM     28  C   UNL     1     -12.990  15.402  73.224  0.00  0.00    -0.000 A 
ATOM     29  C   UNL     1     -11.943  16.065  72.654  0.00  0.00    -0.000 A 
ATOM     30  C   UNL     1     -11.641  15.886  71.333  0.00  0.00    -0.004 A 
ENDBRANCH  24  25
ENDBRANCH  23  24
ENDBRANCH  22  23
ENDBRANCH  21  22
ENDBRANCH  20  21
ENDBRANCH  19  20
ENDBRANCH  18  19
ENDBRANCH  17  18
ENDBRANCH  16  17
ENDBRANCH   1  16
TORSDOF 16
ENDMDL
MODEL 2
REMARK VINA RESULT:      -5.9      1.922      5.855
REMARK  Name = 
REMARK  16 active torsions:
REMARK  status: ('A' for Active; 'I' for Inactive)
REMARK    1  A    between atoms: C_2  and  C_3
REMARK    2  A    between atoms: C_5  and  C_6
REMARK    3  A    between atoms: C_6  and  C_8
REMARK    4  A    between atoms: C_8  and  N_9
REMARK    5  A    between atoms: N_9  and  C_10
REMARK    6  A    between atoms: C_10  and  C_11
REMARK    7  A    between atoms: C_11  and  C_12
REMARK    8  A    between atoms: C_12  and  C_13
REMARK    9  A    between atoms: C_13  and  C_14
REMARK   10  A    between atoms: C_14  and  C_15
REMARK   11  A    between atoms: C_15  and  O_16
REMARK   12  A    between atoms: O_16  and  C_17
REMARK   13  A    between atoms: C_17  and  C_18
REMARK   14  A    between atoms: C_18  and  C_19
REMARK   15  A    between atoms: C_19  and  C_20
REMARK   16  A    between atoms: C_20  and  C_21
REMARK                            x       y       z     vdW  Elec       q    Type
REMARK                         _______ _______ _______ _____ _____    ______ ____
ROOT
ATOM      1  C   UNL     1      -9.528  10.636  66.098  0.00  0.00    +0.019 C 
ENDROOT
BRANCH   1   2
ATOM      2  C   UNL     1      -8.945  10.677  64.691  0.00  0.00    +0.089 C 
BRANCH   2   3
ATOM      3  N   UNL     1     -10.021  10.833  63.725  0.00  0.00    -0.215 NA
BRANCH   3   4
ATOM      4  C   UNL     1     -11.204  11.339  64.410  0.00  0.00    +0.126 C 
BRANCH   4   5
ATOM      5  C   UNL     1     -11.678  12.616  63.436  0.00  0.00    +0.192 C 
ATOM      6  O   UNL     1     -13.166  12.272  63.640  0.00  0.00    -0.217 OA
BRANCH   5  12
ATOM      7  C   UNL     1     -10.176  15.067  65.863  0.00  0.00    +0.049 A 
ATOM      8  C   UNL     1     -10.870  14.809  67.039  0.00  0.00    +0.194 A 
ATOM      9  O   UNL     1     -10.301  15.155  68.252  0.00  0.00    -0.287 OA
ATOM     10  C   UNL     1     -12.003  14.010  66.970  0.00  0.00    +0.042 A 
ATOM     11  C   UNL     1     -12.391  13.449  65.761  0.00  0.00    +0.001 A 
ATOM     12  C   UNL     1     -11.733  13.721  64.642  0.00  0.00    +0.009 A 
ATOM     13  C   UNL     1     -10.546  14.443  64.682  0.00  0.00    -0.000 A 
BRANCH   7  15
ATOM     14  O   UNL     1      -8.879  16.290  65.856  0.00  0.00    -0.215 OA
ATOM     15  C   UNL     1      -8.988  15.962  65.962  0.00  0.00    +0.212 C 
ENDBRANCH   7  15
ENDBRANCH   5  12
ENDBRANCH   4   5
ENDBRANCH   3   4
ENDBRANCH   2   3
ENDBRANCH   1   2
BRANCH   1  16
ATOM     16  C   UNL     1      -8.748  11.644  66.919  0.00  0.00    +0.002 C 
BRANCH  16  17
ATOM     17  C   UNL     1      -9.301  11.507  68.334  0.00  0.00    +0.003 C 
BRANCH  17  18
ATOM     18  C   UNL     1      -8.864  10.155  68.869  0.00  0.00    +0.032 C 
BRANCH  18  19
ATOM     19  C   UNL     1     -10.157   9.474  69.304  0.00  0.00    +0.142 C 
BRANCH  19  20
ATOM     20  O   UNL     1     -10.108   9.072  70.631  0.00  0.00    -0.354 OA
BRANCH  20  21
ATOM     21  C   UNL     1     -11.216   9.553  71.309  0.00  0.00    +0.142 C 
BRANCH  21  22
ATOM     22  C   UNL     1     -12.153  10.346  70.436  0.00  0.00    +0.032 C 
BRANCH  22  23
ATOM     23  C   UNL     1     -12.565  11.645  71.127  0.00  0.00    +0.007 C 
BRANCH  23  24
ATOM     24  C   UNL     1     -12.117  12.805  70.240  0.00  0.00    +0.026 C 
BRANCH  24  25
ATOM     25  C   UNL     1     -12.524  14.062  70.948  0.00  0.00    -0.022 A 
ATOM     26  C   UNL     1     -11.586  14.985  71.398  0.00  0.00    -0.004 A 
ATOM     27  C   UNL     1     -11.905  15.927  72.369  0.00  0.00    -0.000 A 
ATOM     28  C   UNL     1     -13.148  15.935  72.964  0.00  0.00    -0.000 A 
ATOM     29  C   UNL     1     -13.970  14.875  72.714  0.00  0.00    -0.000 A 
ATOM     30  C   UNL     1     -13.646  13.951  71.762  0.00  0.00    -0.004 A 
ENDBRANCH  24  25
ENDBRANCH  23  24
ENDBRANCH  22  23
ENDBRANCH  21  22
ENDBRANCH  20  21
ENDBRANCH  19  20
ENDBRANCH  18  19
ENDBRANCH  17  18
ENDBRANCH  16  17
ENDBRANCH   1  16
TORSDOF 16
ENDMDL
MODEL 3
REMARK VINA RESULT:      -5.7      2.589      5.930
REMARK  Name = 
REMARK  16 active torsions:
REMARK  status: ('A' for Active; 'I' for Inactive)
REMARK    1  A    between atoms: C_2  and  C_3
REMARK    2  A    between atoms: C_5  and  C_6
REMARK    3  A    between atoms: C_6  and  C_8
REMARK    4  A    between atoms: C_8  and  N_9
REMARK    5  A    between atoms: N_9  and  C_10
REMARK    6  A    between atoms: C_10  and  C_11
REMARK    7  A    between atoms: C_11  and  C_12
REMARK    8  A    between atoms: C_12  and  C_13
REMARK    9  A    between atoms: C_13  and  C_14
REMARK   10  A    between atoms: C_14  and  C_15
REMARK   11  A    between atoms: C_15  and  O_16
REMARK   12  A    between atoms: O_16  and  C_17
REMARK   13  A    between atoms: C_17  and  C_18
REMARK   14  A    between atoms: C_18  and  C_19
REMARK   15  A    between atoms: C_19  and  C_20
REMARK   16  A    between atoms: C_20  and  C_21
REMARK                            x       y       z     vdW  Elec       q    Type
REMARK                         _______ _______ _______ _____ _____    ______ ____
ROOT
ATOM      1  C   UNL     1     -11.297  14.966  65.402  0.00  0.00    +0.019 C 
ENDROOT
BRANCH   1   2
ATOM      2  C   UNL     1      -9.888  15.478  65.674  0.00  0.00    +0.089 C 
BRANCH   2   3
ATOM      3  N   UNL     1      -9.865  16.183  66.946  0.00  0.00    -0.215 NA
BRANCH   3   4
ATOM      4  C   UNL     1     -10.242  15.258  68.007  0.00  0.00    +0.126 C 
BRANCH   4   5
ATOM      5  C   UNL     1     -10.138  16.210  69.381  0.00  0.00    +0.192 C 
ATOM      6  O   UNL     1     -10.804  17.396  68.658  0.00  0.00    -0.217 OA
BRANCH   5  12
ATOM      7  C   UNL     1     -12.567  15.539  72.174  0.00  0.00    +0.049 A 
ATOM      8  C   UNL     1     -13.153  14.336  71.800  0.00  0.00    +0.194 A 
ATOM      9  O   UNL     1     -13.733  13.533  72.766  0.00  0.00    -0.287 OA
ATOM     10  C   UNL     1     -12.935  13.875  70.508  0.00  0.00    +0.042 A 
ATOM     11  C   UNL     1     -12.111  14.583  69.642  0.00  0.00    +0.001 A 
ATOM     12  C   UNL     1     -11.576  15.741  70.005  0.00  0.00    +0.009 A 
ATOM     13  C   UNL     1     -11.698  16.192  71.315  0.00  0.00    -0.000 A 
BRANCH   7  15
ATOM     14  O   UNL     1     -13.110  16.204  73.737  0.00  0.00    -0.215 OA
ATOM     15  C   UNL     1     -12.853  16.029  73.553  0.00  0.00    +0.212 C 
ENDBRANCH   7  15
ENDBRANCH   5  12
ENDBRANCH   4   5
ENDBRANCH   3   4
ENDBRANCH   2   3
ENDBRANCH   1   2
BRANCH   1  16
ATOM     16  C   UNL     1     -11.148  13.582  64.803  0.00  0.00    +0.002 C 
BRANCH  16  17
ATOM     17  C   UNL     1     -12.164  12.722  65.547  0.00  0.00    +0.003 C 
BRANCH  17  18
ATOM     18  C   UNL     1     -11.428  12.004  66.664  0.00  0.00    +0.032 C 
BRANCH  18  19
ATOM     19  C   UNL     1     -10.191  11.413  65.994  0.00  0.00    +0.142 C 
BRANCH  19  20
ATOM     20  O   UNL     1     -10.269  10.033  65.892  0.00  0.00    -0.354 OA
BRANCH  20  21
ATOM     21  C   UNL     1      -9.505   9.444  66.887  0.00  0.00    +0.142 C 
BRANCH  21  22
ATOM     22  C   UNL     1     -10.116   8.186  67.445  0.00  0.00    +0.032 C 
BRANCH  22  23
ATOM     23  C   UNL     1      -9.711   7.990  68.905  0.00  0.00    +0.007 C 
BRANCH  23  24
ATOM     24  C   UNL     1      -9.904   9.323  69.624  0.00  0.00    +0.026 C 
BRANCH  24  25
ATOM     25  C   UNL     1     -11.271   9.283  70.236  0.00  0.00    -0.022 A 
ATOM     26  C   UNL     1     -11.875  10.423  70.755  0.00  0.00    -0.004 A 
ATOM     27  C   UNL     1     -12.935  10.338  71.649  0.00  0.00    -0.000 A 
ATOM     28  C   UNL     1     -13.381   9.115  72.102  0.00  0.00    -0.000 A 
ATOM     29  C   UNL     1     -12.624   8.021  71.801  0.00  0.00    -0.000 A 
ATOM     30  C   UNL     1     -11.581   8.115  70.925  0.00  0.00    -0.004 A 
ENDBRANCH  24  25
ENDBRANCH  23  24
ENDBRANCH  22  23
ENDBRANCH  21  22
ENDBRANCH  20  21
ENDBRANCH  19  20
ENDBRANCH  18  19
ENDBRANCH  17  18
ENDBRANCH  16  17
ENDBRANCH   1  16
TORSDOF 16
ENDMDL
MODEL 4
REMARK VINA RESULT:      -5.7      1.641      2.093
REMARK  Name = 
REMARK  16 active torsions:
REMARK  status: ('A' for Active; 'I' for Inactive)
REMARK    1  A    between atoms: C_2  and  C_3
REMARK    2  A    between atoms: C_5  and  C_6
REMARK    3  A    between atoms: C_6  and  C_8
REMARK    4  A    between atoms: C_8  and  N_9
REMARK    5  A    between atoms: N_9  and  C_10
REMARK    6  A    between atoms: C_10  and  C_11
REMARK    7  A    between atoms: C_11  and  C_12
REMARK    8  A    between atoms: C_12  and  C_13
REMARK    9  A    between atoms: C_13  and  C_14
REMARK   10  A    between atoms: C_14  and  C_15
REMARK   11  A    between atoms: C_15  and  O_16
REMARK   12  A    between atoms: O_16  and  C_17
REMARK   13  A    between atoms: C_17  and  C_18
REMARK   14  A    between atoms: C_18  and  C_19
REMARK   15  A    between atoms: C_19  and  C_20
REMARK   16  A    between atoms: C_20  and  C_21
REMARK                            x       y       z     vdW  Elec       q    Type
REMARK                         _______ _______ _______ _____ _____    ______ ____
ROOT
ATOM      1  C   UNL     1     -11.340  12.051  66.192  0.00  0.00    +0.019 C 
ENDROOT
BRANCH   1   2
ATOM      2  C   UNL     1     -10.551  11.039  65.370  0.00  0.00    +0.089 C 
BRANCH   2   3
ATOM      3  N   UNL     1     -10.176   9.916  66.214  0.00  0.00    -0.215 NA
BRANCH   3   4
ATOM      4  C   UNL     1     -10.793  10.081  67.524  0.00  0.00    +0.126 C 
BRANCH   4   5
ATOM      5  C   UNL     1      -9.559   9.648  68.571  0.00  0.00    +0.192 C 
ATOM      6  O   UNL     1      -9.000  11.084  68.569  0.00  0.00    -0.217 OA
BRANCH   5  12
ATOM      7  C   UNL     1     -11.214   8.692  71.812  0.00  0.00    +0.049 A 
ATOM      8  C   UNL     1     -12.408   9.401  71.776  0.00  0.00    +0.194 A 
ATOM      9  O   UNL     1     -13.481   8.964  72.534  0.00  0.00    -0.287 OA
ATOM     10  C   UNL     1     -12.556  10.388  70.811  0.00  0.00    +0.042 A 
ATOM     11  C   UNL     1     -11.550  10.614  69.881  0.00  0.00    +0.001 A 
ATOM     12  C   UNL     1     -10.406   9.946  69.940  0.00  0.00    +0.009 A 
ATOM     13  C   UNL     1     -10.253   8.892  70.834  0.00  0.00    -0.000 A 
BRANCH   7  15
ATOM     14  O   UNL     1     -11.013   7.647  73.242  0.00  0.00    -0.215 OA
ATOM     15  C   UNL     1     -11.069   7.668  72.885  0.00  0.00    +0.212 C 
ENDBRANCH   7  15
ENDBRANCH   5  12
ENDBRANCH   4   5
ENDBRANCH   3   4
ENDBRANCH   2   3
ENDBRANCH   1   2
BRANCH   1  16
ATOM     16  C   UNL     1     -12.368  12.660  65.259  0.00  0.00    +0.002 C 
BRANCH  16  17
ATOM     17  C   UNL     1     -12.323  14.156  65.551  0.00  0.00    +0.003 C 
BRANCH  17  18
ATOM     18  C   UNL     1     -11.298  14.775  64.618  0.00  0.00    +0.032 C 
BRANCH  18  19
ATOM     19  C   UNL     1     -10.749  15.973  65.386  0.00  0.00    +0.142 C 
BRANCH  19  20
ATOM     20  O   UNL     1      -9.368  15.924  65.502  0.00  0.00    -0.354 OA
BRANCH  20  21
ATOM     21  C   UNL     1      -9.019  15.389  66.731  0.00  0.00    +0.142 C 
BRANCH  21  22
ATOM     22  C   UNL     1      -9.444  16.242  67.897  0.00  0.00    +0.032 C 
BRANCH  22  23
ATOM     23  C   UNL     1     -10.072  15.384  68.995  0.00  0.00    +0.007 C 
BRANCH  23  24
ATOM     24  C   UNL     1     -11.002  16.279  69.810  0.00  0.00    +0.026 C 
BRANCH  24  25
ATOM     25  C   UNL     1     -11.567  15.422  70.902  0.00  0.00    -0.022 A 
ATOM     26  C   UNL     1     -12.394  14.337  70.628  0.00  0.00    -0.004 A 
ATOM     27  C   UNL     1     -13.217  13.789  71.603  0.00  0.00    -0.000 A 
ATOM     28  C   UNL     1     -13.289  14.346  72.861  0.00  0.00    -0.000 A 
ATOM     29  C   UNL     1     -12.685  15.555  73.048  0.00  0.00    -0.000 A 
ATOM     30  C   UNL     1     -11.881  16.088  72.081  0.00  0.00    -0.004 A 
ENDBRANCH  24  25
ENDBRANCH  23  24
ENDBRANCH  22  23
ENDBRANCH  21  22
ENDBRANCH  20  21
ENDBRANCH  19  20
ENDBRANCH  18  19
ENDBRANCH  17  18
ENDBRANCH  16  17
ENDBRANCH   1  16
TORSDOF 16
ENDMDL
MODEL 5
REMARK VINA RESULT:      -5.7      2.144      5.458
REMARK  Name = 
REMARK  16 active torsions:
REMARK  status: ('A' for Active; 'I' for Inactive)
REMARK    1  A    between atoms: C_2  and  C_3
REMARK    2  A    between atoms: C_5  and  C_6
REMARK    3  A    between atoms: C_6  and  C_8
REMARK    4  A    between atoms: C_8  and  N_9
REMARK    5  A    between atoms: N_9  and  C_10
REMARK    6  A    between atoms: C_10  and  C_11
REMARK    7  A    between atoms: C_11  and  C_12
REMARK    8  A    between atoms: C_12  and  C_13
REMARK    9  A    between atoms: C_13  and  C_14
REMARK   10  A    between atoms: C_14  and  C_15
REMARK   11  A    between atoms: C_15  and  O_16
REMARK   12  A    between atoms: O_16  and  C_17
REMARK   13  A    between atoms: C_17  and  C_18
REMARK   14  A    between atoms: C_18  and  C_19
REMARK   15  A    between atoms: C_19  and  C_20
REMARK   16  A    between atoms: C_20  and  C_21
REMARK                            x       y       z     vdW  Elec       q    Type
REMARK                         _______ _______ _______ _____ _____    ______ ____
ROOT
ATOM      1  C   UNL     1     -12.058  12.292  63.895  0.00  0.00    +0.019 C 
ENDROOT
BRANCH   1   2
ATOM      2  C   UNL     1     -12.495  13.237  65.007  0.00  0.00    +0.089 C 
BRANCH   2   3
ATOM      3  N   UNL     1     -11.321  13.813  65.643  0.00  0.00    -0.215 NA
BRANCH   3   4
ATOM      4  C   UNL     1     -11.693  14.318  66.959  0.00  0.00    +0.126 C 
BRANCH   4   5
ATOM      5  C   UNL     1     -11.588  12.952  67.922  0.00  0.00    +0.192 C 
ATOM      6  O   UNL     1     -10.050  12.960  67.834  0.00  0.00    -0.217 OA
BRANCH   5  12
ATOM      7  C   UNL     1     -12.869  13.903  71.329  0.00  0.00    +0.049 A 
ATOM      8  C   UNL     1     -12.687  15.280  71.360  0.00  0.00    +0.194 A 
ATOM      9  O   UNL     1     -13.450  16.047  72.223  0.00  0.00    -0.287 OA
ATOM     10  C   UNL     1     -11.910  15.861  70.367  0.00  0.00    +0.042 A 
ATOM     11  C   UNL     1     -11.380  15.081  69.347  0.00  0.00    +0.001 A 
ATOM     12  C   UNL     1     -11.543  13.765  69.341  0.00  0.00    +0.009 A 
ATOM     13  C   UNL     1     -12.384  13.157  70.267  0.00  0.00    -0.000 A 
BRANCH   7  15
ATOM     14  O   UNL     1     -13.876  13.011  72.500  0.00  0.00    -0.215 OA
ATOM     15  C   UNL     1     -13.673  13.303  72.432  0.00  0.00    +0.212 C 
ENDBRANCH   7  15
ENDBRANCH   5  12
ENDBRANCH   4   5
ENDBRANCH   3   4
ENDBRANCH   2   3
ENDBRANCH   1   2
BRANCH   1  16
ATOM     16  C   UNL     1     -10.549  12.189  63.982  0.00  0.00    +0.002 C 
BRANCH  16  17
ATOM     17  C   UNL     1     -10.236  10.735  63.647  0.00  0.00    +0.003 C 
BRANCH  17  18
ATOM     18  C   UNL     1      -8.965  10.357  64.387  0.00  0.00    +0.032 C 
BRANCH  18  19
ATOM     19  C   UNL     1      -9.399   9.288  65.384  0.00  0.00    +0.142 C 
BRANCH  19  20
ATOM     20  O   UNL     1      -8.824   9.481  66.631  0.00  0.00    -0.354 OA
BRANCH  20  21
ATOM     21  C   UNL     1      -9.794   9.383  67.615  0.00  0.00    +0.142 C 
BRANCH  21  22
ATOM     22  C   UNL     1      -9.233   9.418  69.013  0.00  0.00    +0.032 C 
BRANCH  22  23
ATOM     23  C   UNL     1     -10.208  10.103  69.969  0.00  0.00    +0.007 C 
BRANCH  23  24
ATOM     24  C   UNL     1     -10.447   9.158  71.145  0.00  0.00    +0.026 C 
BRANCH  24  25
ATOM     25  C   UNL     1     -11.910   8.837  71.142  0.00  0.00    -0.022 A 
ATOM     26  C   UNL     1     -12.838   9.640  71.797  0.00  0.00    -0.004 A 
ATOM     27  C   UNL     1     -14.101   9.165  72.128  0.00  0.00    -0.000 A 
ATOM     28  C   UNL     1     -14.453   7.857  71.873  0.00  0.00    -0.000 A 
ATOM     29  C   UNL     1     -13.463   7.007  71.476  0.00  0.00    -0.000 A 
ATOM     30  C   UNL     1     -12.223   7.482  71.157  0.00  0.00    -0.004 A 
ENDBRANCH  24  25
ENDBRANCH  23  24
ENDBRANCH  22  23
ENDBRANCH  21  22
ENDBRANCH  20  21
ENDBRANCH  19  20
ENDBRANCH  18  19
ENDBRANCH  17  18
ENDBRANCH  16  17
ENDBRANCH   1  16
TORSDOF 16
ENDMDL
MODEL 6
REMARK VINA RESULT:      -5.6      2.411      4.655
REMARK  Name = 
REMARK  16 active torsions:
REMARK  status: ('A' for Active; 'I' for Inactive)
REMARK    1  A    between atoms: C_2  and  C_3
REMARK    2  A    between atoms: C_5  and  C_6
REMARK    3  A    between atoms: C_6  and  C_8
REMARK    4  A    between atoms: C_8  and  N_9
REMARK    5  A    between atoms: N_9  and  C_10
REMARK    6  A    between atoms: C_10  and  C_11
REMARK    7  A    between atoms: C_11  and  C_12
REMARK    8  A    between atoms: C_12  and  C_13
REMARK    9  A    between atoms: C_13  and  C_14
REMARK   10  A    between atoms: C_14  and  C_15
REMARK   11  A    between atoms: C_15  and  O_16
REMARK   12  A    between atoms: O_16  and  C_17
REMARK   13  A    between atoms: C_17  and  C_18
REMARK   14  A    between atoms: C_18  and  C_19
REMARK   15  A    between atoms: C_19  and  C_20
REMARK   16  A    between atoms: C_20  and  C_21
REMARK                            x       y       z     vdW  Elec       q    Type
REMARK                         _______ _______ _______ _____ _____    ______ ____
ROOT
ATOM      1  C   UNL     1     -10.529   9.276  67.064  0.00  0.00    +0.019 C 
ENDROOT
BRANCH   1   2
ATOM      2  C   UNL     1      -9.113   8.722  67.165  0.00  0.00    +0.089 C 
BRANCH   2   3
ATOM      3  N   UNL     1      -8.697   8.708  68.558  0.00  0.00    -0.215 NA
BRANCH   3   4
ATOM      4  C   UNL     1      -9.182   7.484  69.186  0.00  0.00    +0.126 C 
BRANCH   4   5
ATOM      5  C   UNL     1      -9.393   7.947  70.781  0.00  0.00    +0.192 C 
ATOM      6  O   UNL     1      -9.202   9.432  70.418  0.00  0.00    -0.217 OA
BRANCH   5  12
ATOM      7  C   UNL     1     -12.695   9.595  71.509  0.00  0.00    +0.049 A 
ATOM      8  C   UNL     1     -13.532   8.519  71.775  0.00  0.00    +0.194 A 
ATOM      9  O   UNL     1     -14.674   8.716  72.531  0.00  0.00    -0.287 OA
ATOM     10  C   UNL     1     -13.078   7.243  71.467  0.00  0.00    +0.042 A 
ATOM     11  C   UNL     1     -11.800   7.060  70.955  0.00  0.00    +0.001 A 
ATOM     12  C   UNL     1     -11.020   8.098  70.685  0.00  0.00    +0.009 A 
ATOM     13  C   UNL     1     -11.402   9.381  71.059  0.00  0.00    -0.000 A 
BRANCH   7  15
ATOM     14  O   UNL     1     -13.108  11.289  71.884  0.00  0.00    -0.215 OA
ATOM     15  C   UNL     1     -13.227  10.955  71.812  0.00  0.00    +0.212 C 
ENDBRANCH   7  15
ENDBRANCH   5  12
ENDBRANCH   4   5
ENDBRANCH   3   4
ENDBRANCH   2   3
ENDBRANCH   1   2
BRANCH   1  16
ATOM     16  C   UNL     1     -10.413  10.783  67.171  0.00  0.00    +0.002 C 
BRANCH  16  17
ATOM     17  C   UNL     1     -11.550  11.198  68.098  0.00  0.00    +0.003 C 
BRANCH  17  18
ATOM     18  C   UNL     1     -11.189  12.548  68.692  0.00  0.00    +0.032 C 
BRANCH  18  19
ATOM     19  C   UNL     1      -9.701  12.714  68.400  0.00  0.00    +0.142 C 
BRANCH  19  20
ATOM     20  O   UNL     1      -9.232  13.956  68.799  0.00  0.00    -0.354 OA
BRANCH  20  21
ATOM     21  C   UNL     1     -10.231  14.904  68.655  0.00  0.00    +0.142 C 
BRANCH  21  22
ATOM     22  C   UNL     1      -9.888  15.989  67.668  0.00  0.00    +0.032 C 
BRANCH  22  23
ATOM     23  C   UNL     1     -10.684  15.814  66.376  0.00  0.00    +0.007 C 
BRANCH  23  24
ATOM     24  C   UNL     1      -9.827  15.002  65.408  0.00  0.00    +0.026 C 
BRANCH  24  25
ATOM     25  C   UNL     1     -10.588  13.744  65.120  0.00  0.00    -0.022 A 
ATOM     26  C   UNL     1     -10.233  12.895  64.077  0.00  0.00    -0.004 A 
ATOM     27  C   UNL     1     -11.128  11.964  63.563  0.00  0.00    -0.000 A 
ATOM     28  C   UNL     1     -12.422  11.896  64.031  0.00  0.00    -0.000 A 
ATOM     29  C   UNL     1     -12.843  12.894  64.861  0.00  0.00    -0.000 A 
ATOM     30  C   UNL     1     -11.957  13.808  65.357  0.00  0.00    -0.004 A 
ENDBRANCH  24  25
ENDBRANCH  23  24
ENDBRANCH  22  23
ENDBRANCH  21  22
ENDBRANCH  20  21
ENDBRANCH  19  20
ENDBRANCH  18  19
ENDBRANCH  17  18
ENDBRANCH  16  17
ENDBRANCH   1  16
TORSDOF 16
ENDMDL
MODEL 7
REMARK VINA RESULT:      -5.6      2.652      5.689
REMARK  Name = 
REMARK  16 active torsions:
REMARK  status: ('A' for Active; 'I' for Inactive)
REMARK    1  A    between atoms: C_2  and  C_3
REMARK    2  A    between atoms: C_5  and  C_6
REMARK    3  A    between atoms: C_6  and  C_8
REMARK    4  A    between atoms: C_8  and  N_9
REMARK    5  A    between atoms: N_9  and  C_10
REMARK    6  A    between atoms: C_10  and  C_11
REMARK    7  A    between atoms: C_11  and  C_12
REMARK    8  A    between atoms: C_12  and  C_13
REMARK    9  A    between atoms: C_13  and  C_14
REMARK   10  A    between atoms: C_14  and  C_15
REMARK   11  A    between atoms: C_15  and  O_16
REMARK   12  A    between atoms: O_16  and  C_17
REMARK   13  A    between atoms: C_17  and  C_18
REMARK   14  A    between atoms: C_18  and  C_19
REMARK   15  A    between atoms: C_19  and  C_20
REMARK   16  A    between atoms: C_20  and  C_21
REMARK                            x       y       z     vdW  Elec       q    Type
REMARK                         _______ _______ _______ _____ _____    ______ ____
ROOT
ATOM      1  C   UNL     1     -11.660  15.736  68.899  0.00  0.00    +0.019 C 
ENDROOT
BRANCH   1   2
ATOM      2  C   UNL     1     -11.369  16.030  70.365  0.00  0.00    +0.089 C 
BRANCH   2   3
ATOM      3  N   UNL     1     -12.622  16.147  71.094  0.00  0.00    -0.215 NA
BRANCH   3   4
ATOM      4  C   UNL     1     -13.403  14.932  70.893  0.00  0.00    +0.126 C 
BRANCH   4   5
ATOM      5  C   UNL     1     -12.833  13.923  72.102  0.00  0.00    +0.192 C 
ATOM      6  O   UNL     1     -14.265  13.646  72.599  0.00  0.00    -0.217 OA
BRANCH   5  12
ATOM      7  C   UNL     1     -12.962  10.202  71.563  0.00  0.00    +0.049 A 
ATOM      8  C   UNL     1     -12.018   9.997  70.564  0.00  0.00    +0.194 A 
ATOM      9  O   UNL     1     -11.439   8.748  70.424  0.00  0.00    -0.287 OA
ATOM     10  C   UNL     1     -11.524  11.106  69.891  0.00  0.00    +0.042 A 
ATOM     11  C   UNL     1     -11.933  12.383  70.251  0.00  0.00    +0.001 A 
ATOM     12  C   UNL     1     -12.851  12.564  71.191  0.00  0.00    +0.009 A 
ATOM     13  C   UNL     1     -13.305  11.489  71.947  0.00  0.00    -0.000 A 
BRANCH   7  15
ATOM     14  O   UNL     1     -13.630   8.885  72.562  0.00  0.00    -0.215 OA
ATOM     15  C   UNL     1     -13.504   8.989  72.239  0.00  0.00    +0.212 C 
ENDBRANCH   7  15
ENDBRANCH   5  12
ENDBRANCH   4   5
ENDBRANCH   3   4
ENDBRANCH   2   3
ENDBRANCH   1   2
BRANCH   1  16
ATOM     16  C   UNL     1     -10.789  16.674  68.087  0.00  0.00    +0.002 C 
BRANCH  16  17
ATOM     17  C   UNL     1      -9.394  16.529  68.687  0.00  0.00    +0.003 C 
BRANCH  17  18
ATOM     18  C   UNL     1      -8.447  16.159  67.560  0.00  0.00    +0.032 C 
BRANCH  18  19
ATOM     19  C   UNL     1      -8.409  14.634  67.570  0.00  0.00    +0.142 C 
BRANCH  19  20
ATOM     20  O   UNL     1      -7.110  14.150  67.569  0.00  0.00    -0.354 OA
BRANCH  20  21
ATOM     21  C   UNL     1      -7.117  12.789  67.310  0.00  0.00    +0.142 C 
BRANCH  21  22
ATOM     22  C   UNL     1      -8.456  12.142  67.546  0.00  0.00    +0.032 C 
BRANCH  22  23
ATOM     23  C   UNL     1      -8.836  11.243  66.370  0.00  0.00    +0.007 C 
BRANCH  23  24
ATOM     24  C   UNL     1     -10.253  10.730  66.615  0.00  0.00    +0.026 C 
BRANCH  24  25
ATOM     25  C   UNL     1     -11.166  11.606  65.812  0.00  0.00    -0.022 A 
ATOM     26  C   UNL     1     -10.974  11.811  64.450  0.00  0.00    -0.004 A 
ATOM     27  C   UNL     1     -11.550  12.891  63.791  0.00  0.00    -0.000 A 
ATOM     28  C   UNL     1     -12.280  13.832  64.484  0.00  0.00    -0.000 A 
ATOM     29  C   UNL     1     -12.248  13.774  65.846  0.00  0.00    -0.000 A 
ATOM     30  C   UNL     1     -11.675  12.711  66.485  0.00  0.00    -0.004 A 
ENDBRANCH  24  25
ENDBRANCH  23  24
ENDBRANCH  22  23
ENDBRANCH  21  22
ENDBRANCH  20  21
ENDBRANCH  19  20
ENDBRANCH  18  19
ENDBRANCH  17  18
ENDBRANCH  16  17
ENDBRANCH   1  16
TORSDOF 16
ENDMDL
MODEL 8
REMARK VINA RESULT:      -5.6      2.611      8.016
REMARK  Name = 
REMARK  16 active torsions:
REMARK  status: ('A' for Active; 'I' for Inactive)
REMARK    1  A    between atoms: C_2  and  C_3
REMARK    2  A    between atoms: C_5  and  C_6
REMARK    3  A    between atoms: C_6  and  C_8
REMARK    4  A    between atoms: C_8  and  N_9
REMARK    5  A    between atoms: N_9  and  C_10
REMARK    6  A    between atoms: C_10  and  C_11
REMARK    7  A    between atoms: C_11  and  C_12
REMARK    8  A    between atoms: C_12  and  C_13
REMARK    9  A    between atoms: C_13  and  C_14
REMARK   10  A    between atoms: C_14  and  C_15
REMARK   11  A    between atoms: C_15  and  O_16
REMARK   12  A    between atoms: O_16  and  C_17
REMARK   13  A    between atoms: C_17  and  C_18
REMARK   14  A    between atoms: C_18  and  C_19
REMARK   15  A    between atoms: C_19  and  C_20
REMARK   16  A    between atoms: C_20  and  C_21
REMARK                            x       y       z     vdW  Elec       q    Type
REMARK                         _______ _______ _______ _____ _____    ______ ____
ROOT
ATOM      1  C   UNL     1     -11.888  15.014  68.792  0.00  0.00    +0.019 C 
ENDROOT
BRANCH   1   2
ATOM      2  C   UNL     1     -11.155  16.134  69.521  0.00  0.00    +0.089 C 
BRANCH   2   3
ATOM      3  N   UNL     1     -10.935  17.244  68.607  0.00  0.00    -0.215 NA
BRANCH   3   4
ATOM      4  C   UNL     1      -9.703  17.011  67.865  0.00  0.00    +0.126 C 
BRANCH   4   5
ATOM      5  C   UNL     1     -10.167  17.292  66.280  0.00  0.00    +0.192 C 
ATOM      6  O   UNL     1      -8.752  17.774  65.909  0.00  0.00    -0.217 OA
BRANCH   5  12
ATOM      7  C   UNL     1     -11.040  13.921  64.855  0.00  0.00    +0.049 A 
ATOM      8  C   UNL     1     -10.270  13.050  65.615  0.00  0.00    +0.194 A 
ATOM      9  O   UNL     1     -10.652  11.724  65.723  0.00  0.00    -0.287 OA
ATOM     10  C   UNL     1      -9.276  13.587  66.422  0.00  0.00    +0.042 A 
ATOM     11  C   UNL     1      -9.102  14.963  66.496  0.00  0.00    +0.001 A 
ATOM     12  C   UNL     1      -9.828  15.782  65.748  0.00  0.00    +0.009 A 
ATOM     13  C   UNL     1     -10.889  15.292  64.995  0.00  0.00    -0.000 A 
BRANCH   7  15
ATOM     14  O   UNL     1     -12.429  13.319  63.914  0.00  0.00    -0.215 OA
ATOM     15  C   UNL     1     -12.072  13.313  63.967  0.00  0.00    +0.212 C 
ENDBRANCH   7  15
ENDBRANCH   5  12
ENDBRANCH   4   5
ENDBRANCH   3   4
ENDBRANCH   2   3
ENDBRANCH   1   2
BRANCH   1  16
ATOM     16  C   UNL     1     -12.050  13.883  69.788  0.00  0.00    +0.002 C 
BRANCH  16  17
ATOM     17  C   UNL     1     -11.794  12.614  68.982  0.00  0.00    +0.003 C 
BRANCH  17  18
ATOM     18  C   UNL     1     -11.711  11.457  69.962  0.00  0.00    +0.032 C 
BRANCH  18  19
ATOM     19  C   UNL     1     -12.793  11.747  70.996  0.00  0.00    +0.142 C 
BRANCH  19  20
ATOM     20  O   UNL     1     -12.889  10.737  71.941  0.00  0.00    -0.354 OA
BRANCH  20  21
ATOM     21  C   UNL     1     -13.281   9.557  71.330  0.00  0.00    +0.142 C 
BRANCH  21  22
ATOM     22  C   UNL     1     -12.734   8.325  72.002  0.00  0.00    +0.032 C 
BRANCH  22  23
ATOM     23  C   UNL     1     -11.218   8.243  71.829  0.00  0.00    +0.007 C 
BRANCH  23  24
ATOM     24  C   UNL     1     -10.885   6.848  71.304  0.00  0.00    +0.026 C 
BRANCH  24  25
ATOM     25  C   UNL     1     -10.494   7.017  69.868  0.00  0.00    -0.022 A 
ATOM     26  C   UNL     1     -10.288   8.273  69.308  0.00  0.00    -0.004 A 
ATOM     27  C   UNL     1     -10.311   8.465  67.931  0.00  0.00    -0.000 A 
ATOM     28  C   UNL     1     -10.602   7.424  67.078  0.00  0.00    -0.000 A 
ATOM     29  C   UNL     1     -11.059   6.265  67.634  0.00  0.00    -0.000 A 
ATOM     30  C   UNL     1     -11.037   6.087  68.989  0.00  0.00    -0.004 A 
ENDBRANCH  24  25
ENDBRANCH  23  24
ENDBRANCH  22  23
ENDBRANCH  21  22
ENDBRANCH  20  21
ENDBRANCH  19  20
ENDBRANCH  18  19
ENDBRANCH  17  18
ENDBRANCH  16  17
ENDBRANCH   1  16
TORSDOF 16
ENDMDL
MODEL 9
REMARK VINA RESULT:      -5.6      2.109      7.221
REMARK  Name = 
REMARK  16 active torsions:
REMARK  status: ('A' for Active; 'I' for Inactive)
REMARK    1  A    between atoms: C_2  and  C_3
REMARK    2  A    between atoms: C_5  and  C_6
REMARK    3  A    between atoms: C_6  and  C_8
REMARK    4  A    between atoms: C_8  and  N_9
REMARK    5  A    between atoms: N_9  and  C_10
REMARK    6  A    between atoms: C_10  and  C_11
REMARK    7  A    between atoms: C_11  and  C_12
REMARK    8  A    between atoms: C_12  and  C_13
REMARK    9  A    between atoms: C_13  and  C_14
REMARK   10  A    between atoms: C_14  and  C_15
REMARK   11  A    between atoms: C_15  and  O_16
REMARK   12  A    between atoms: O_16  and  C_17
REMARK   13  A    between atoms: C_17  and  C_18
REMARK   14  A    between atoms: C_18  and  C_19
REMARK   15  A    between atoms: C_19  and  C_20
REMARK   16  A    between atoms: C_20  and  C_21
REMARK                            x       y       z     vdW  Elec       q    Type
REMARK                         _______ _______ _______ _____ _____    ______ ____
ROOT
ATOM      1  C   UNL     1      -9.815  11.035  65.922  0.00  0.00    +0.019 C 
ENDROOT
BRANCH   1   2
ATOM      2  C   UNL     1     -10.305  10.638  64.536  0.00  0.00    +0.089 C 
BRANCH   2   3
ATOM      3  N   UNL     1     -10.961  11.775  63.909  0.00  0.00    -0.215 NA
BRANCH   3   4
ATOM      4  C   UNL     1     -11.941  12.327  64.837  0.00  0.00    +0.126 C 
BRANCH   4   5
ATOM      5  C   UNL     1     -12.003  13.940  64.391  0.00  0.00    +0.192 C 
ATOM      6  O   UNL     1     -13.350  14.129  65.115  0.00  0.00    -0.217 OA
BRANCH   5  12
ATOM      7  C   UNL     1     -11.598  14.773  68.037  0.00  0.00    +0.049 A 
ATOM      8  C   UNL     1     -10.952  16.002  68.009  0.00  0.00    +0.194 A 
ATOM      9  O   UNL     1     -11.049  16.846  69.102  0.00  0.00    -0.287 OA
ATOM     10  C   UNL     1     -10.423  16.437  66.801  0.00  0.00    +0.042 A 
ATOM     11  C   UNL     1     -10.587  15.677  65.651  0.00  0.00    +0.001 A 
ATOM     12  C   UNL     1     -11.186  14.495  65.696  0.00  0.00    +0.009 A 
ATOM     13  C   UNL     1     -11.805  14.065  66.864  0.00  0.00    -0.000 A 
BRANCH   7  15
ATOM     14  O   UNL     1     -12.273  14.024  69.507  0.00  0.00    -0.215 OA
ATOM     15  C   UNL     1     -12.120  14.314  69.356  0.00  0.00    +0.212 C 
ENDBRANCH   7  15
ENDBRANCH   5  12
ENDBRANCH   4   5
ENDBRANCH   3   4
ENDBRANCH   2   3
ENDBRANCH   1   2
BRANCH   1  16
ATOM     16  C   UNL     1     -10.040   9.837  66.822  0.00  0.00    +0.002 C 
BRANCH  16  17
ATOM     17  C   UNL     1     -11.150  10.266  67.775  0.00  0.00    +0.003 C 
BRANCH  17  18
ATOM     18  C   UNL     1     -10.572  10.279  69.178  0.00  0.00    +0.032 C 
BRANCH  18  19
ATOM     19  C   UNL     1     -11.747  10.644  70.079  0.00  0.00    +0.142 C 
BRANCH  19  20
ATOM     20  O   UNL     1     -11.736   9.921  71.262  0.00  0.00    -0.354 OA
BRANCH  20  21
ATOM     21  C   UNL     1     -13.006   9.906  71.815  0.00  0.00    +0.142 C 
BRANCH  21  22
ATOM     22  C   UNL     1     -13.383   8.575  72.410  0.00  0.00    +0.032 C 
BRANCH  22  23
ATOM     23  C   UNL     1     -13.118   7.444  71.417  0.00  0.00    +0.007 C 
BRANCH  23  24
ATOM     24  C   UNL     1     -12.030   6.551  72.009  0.00  0.00    +0.026 C 
BRANCH  24  25
ATOM     25  C   UNL     1     -11.008   6.354  70.930  0.00  0.00    -0.022 A 
ATOM     26  C   UNL     1      -9.734   6.904  71.019  0.00  0.00    -0.004 A 
ATOM     27  C   UNL     1      -8.933   7.061  69.895  0.00  0.00    -0.000 A 
ATOM     28  C   UNL     1      -9.403   6.735  68.642  0.00  0.00    -0.000 A 
ATOM     29  C   UNL     1     -10.731   6.447  68.525  0.00  0.00    -0.000 A 
ATOM     30  C   UNL     1     -11.512   6.300  69.636  0.00  0.00    -0.004 A 
ENDBRANCH  24  25
ENDBRANCH  23  24
ENDBRANCH  22  23
ENDBRANCH  21  22
ENDBRANCH  20  21
ENDBRANCH  19  20
ENDBRANCH  18  19
ENDBRANCH  17  18
ENDBRANCH  16  17
ENDBRANCH   1  16
TORSDOF 16
ENDMDL
