MODEL 1
REMARK VINA RESULT:      -7.4      0.000      0.000
REMARK  Name = 
REMARK  1 active torsions:
REMARK  status: ('A' for Active; 'I' for Inactive)
REMARK    1  A    between atoms: C_5  and  C_6
REMARK                            x       y       z     vdW  Elec       q    Type
REMARK                         _______ _______ _______ _____ _____    ______ ____
ROOT
ATOM      1  C   UNL     1     -10.543  12.803  68.213  0.00  0.00    +0.062 C 
ATOM      2  C   UNL     1     -11.710  12.564  69.332  0.00  0.00    -0.017 A 
ATOM      3  C   UNL     1     -11.757  11.525  70.208  0.00  0.00    -0.010 A 
ATOM      4  C   UNL     1     -12.707  11.633  71.217  0.00  0.00    +0.096 A 
ATOM      5  C   UNL     1     -13.084  12.901  71.641  0.00  0.00    +0.244 A 
ATOM      6  C   UNL     1     -12.430  14.008  71.116  0.00  0.00    +0.235 A 
ATOM      7  O   UNL     1     -12.256  15.138  71.909  0.00  0.00    -0.283 OA
ATOM      8  O   UNL     1     -13.968  13.096  72.678  0.00  0.00    -0.282 OA
ATOM      9 CL   UNL     1     -13.481  10.218  71.899  0.00  0.00    -0.079 Cl
ATOM     10  C   UNL     1     -11.601  10.104  69.761  0.00  0.00    +0.046 C 
ATOM     11  C   UNL     1     -10.120   9.781  69.888  0.00  0.00    +0.093 C 
ATOM     12  N   UNL     1      -9.414  10.887  69.244  0.00  0.00    -0.217 NA
ATOM     13  C   UNL     1     -11.772  13.833  69.905  0.00  0.00    +0.041 A 
ATOM     14  C   UNL     1     -10.165  11.184  68.027  0.00  0.00    +0.097 C 
ENDROOT
BRANCH   1  19
ATOM     15  O   UNL     1     -12.447  13.584  63.054  0.00  0.00    -0.287 OA
ATOM     16  C   UNL     1     -12.361  13.213  64.343  0.00  0.00    +0.196 A 
ATOM     17  C   UNL     1     -12.847  13.986  65.391  0.00  0.00    +0.042 A 
ATOM     18  C   UNL     1     -12.056  13.977  66.534  0.00  0.00    -0.001 A 
ATOM     19  C   UNL     1     -11.621  12.769  66.982  0.00  0.00    -0.017 A 
ATOM     20  C   UNL     1     -11.287  11.830  66.009  0.00  0.00    -0.001 A 
ATOM     21  C   UNL     1     -11.806  11.998  64.731  0.00  0.00    +0.042 A 
ENDBRANCH   1  19
TORSDOF 1
ENDMDL
MODEL 2
REMARK VINA RESULT:      -7.2      3.613      6.878
REMARK  Name = 
REMARK  1 active torsions:
REMARK  status: ('A' for Active; 'I' for Inactive)
REMARK    1  A    between atoms: C_5  and  C_6
REMARK                            x       y       z     vdW  Elec       q    Type
REMARK                         _______ _______ _______ _____ _____    ______ ____
ROOT
ATOM      1  C   UNL     1     -10.101  14.365  68.832  0.00  0.00    +0.062 C 
ATOM      2  C   UNL     1     -10.624  15.355  67.642  0.00  0.00    -0.017 A 
ATOM      3  C   UNL     1      -9.969  16.459  67.194  0.00  0.00    -0.010 A 
ATOM      4  C   UNL     1     -10.475  17.027  66.031  0.00  0.00    +0.096 A 
ATOM      5  C   UNL     1     -11.128  16.205  65.120  0.00  0.00    +0.244 A 
ATOM      6  C   UNL     1     -11.165  14.837  65.356  0.00  0.00    +0.235 A 
ATOM      7  O   UNL     1     -11.165  13.958  64.277  0.00  0.00    -0.283 OA
ATOM      8  O   UNL     1     -11.600  16.673  63.915  0.00  0.00    -0.282 OA
ATOM      9 CL   UNL     1     -10.370  18.749  65.733  0.00  0.00    -0.079 Cl
ATOM     10  C   UNL     1      -9.456  17.510  68.131  0.00  0.00    +0.046 C 
ATOM     11  C   UNL     1      -8.019  17.128  68.448  0.00  0.00    +0.093 C 
ATOM     12  N   UNL     1      -8.052  15.711  68.804  0.00  0.00    -0.217 NA
ATOM     13  C   UNL     1     -10.955  14.419  66.664  0.00  0.00    +0.041 A 
ATOM     14  C   UNL     1      -9.232  15.540  69.648  0.00  0.00    +0.097 C 
ENDROOT
BRANCH   1  19
ATOM     15  O   UNL     1     -13.227  14.566  73.418  0.00  0.00    -0.287 OA
ATOM     16  C   UNL     1     -12.817  14.688  72.145  0.00  0.00    +0.196 A 
ATOM     17  C   UNL     1     -13.067  13.728  71.170  0.00  0.00    +0.042 A 
ATOM     18  C   UNL     1     -12.024  13.524  70.275  0.00  0.00    -0.001 A 
ATOM     19  C   UNL     1     -11.442  14.627  69.732  0.00  0.00    -0.017 A 
ATOM     20  C   UNL     1     -11.313  15.735  70.568  0.00  0.00    -0.001 A 
ATOM     21  C   UNL     1     -12.133  15.809  71.688  0.00  0.00    +0.042 A 
ENDBRANCH   1  19
TORSDOF 1
ENDMDL
MODEL 3
REMARK VINA RESULT:      -6.7      2.891      5.255
REMARK  Name = 
REMARK  1 active torsions:
REMARK  status: ('A' for Active; 'I' for Inactive)
REMARK    1  A    between atoms: C_5  and  C_6
REMARK                            x       y       z     vdW  Elec       q    Type
REMARK                         _______ _______ _______ _____ _____    ______ ____
ROOT
ATOM      1  C   UNL     1     -12.165  10.627  69.803  0.00  0.00    +0.062 C 
ATOM      2  C   UNL     1     -11.908  12.140  70.366  0.00  0.00    -0.017 A 
ATOM      3  C   UNL     1     -11.674  13.235  69.596  0.00  0.00    -0.010 A 
ATOM      4  C   UNL     1     -11.706  14.455  70.261  0.00  0.00    +0.096 A 
ATOM      5  C   UNL     1     -12.504  14.574  71.392  0.00  0.00    +0.244 A 
ATOM      6  C   UNL     1     -13.315  13.507  71.758  0.00  0.00    +0.235 A 
ATOM      7  O   UNL     1     -14.537  13.758  72.376  0.00  0.00    -0.283 OA
ATOM      8  O   UNL     1     -12.644  15.763  72.071  0.00  0.00    -0.282 OA
ATOM      9 CL   UNL     1     -10.711  15.802  69.749  0.00  0.00    -0.079 Cl
ATOM     10  C   UNL     1     -10.638  13.235  68.513  0.00  0.00    +0.046 C 
ATOM     11  C   UNL     1     -11.361  12.837  67.236  0.00  0.00    +0.093 C 
ATOM     12  N   UNL     1     -12.141  11.648  67.575  0.00  0.00    -0.217 NA
ATOM     13  C   UNL     1     -12.967  12.255  71.265  0.00  0.00    +0.041 A 
ATOM     14  C   UNL     1     -11.268  10.822  68.404  0.00  0.00    +0.097 C 
ENDROOT
BRANCH   1  19
ATOM     15  O   UNL     1      -8.430   6.847  71.417  0.00  0.00    -0.287 OA
ATOM     16  C   UNL     1      -9.096   8.005  71.271  0.00  0.00    +0.196 A 
ATOM     17  C   UNL     1     -10.086   8.429  72.151  0.00  0.00    +0.042 A 
ATOM     18  C   UNL     1     -11.164   9.066  71.549  0.00  0.00    -0.001 A 
ATOM     19  C   UNL     1     -10.886  10.029  70.630  0.00  0.00    -0.017 A 
ATOM     20  C   UNL     1      -9.782   9.803  69.809  0.00  0.00    -0.001 A 
ATOM     21  C   UNL     1      -8.822   8.894  70.238  0.00  0.00    +0.042 A 
ENDBRANCH   1  19
TORSDOF 1
ENDMDL
MODEL 4
REMARK VINA RESULT:      -6.7      4.051      6.124
REMARK  Name = 
REMARK  1 active torsions:
REMARK  status: ('A' for Active; 'I' for Inactive)
REMARK    1  A    between atoms: C_5  and  C_6
REMARK                            x       y       z     vdW  Elec       q    Type
REMARK                         _______ _______ _______ _____ _____    ______ ____
ROOT
ATOM      1  C   UNL     1     -10.468  16.749  67.415  0.00  0.00    +0.062 C 
ATOM      2  C   UNL     1     -10.720  15.203  66.947  0.00  0.00    -0.017 A 
ATOM      3  C   UNL     1     -11.397  14.266  67.664  0.00  0.00    -0.010 A 
ATOM      4  C   UNL     1     -11.688  13.088  66.987  0.00  0.00    +0.096 A 
ATOM      5  C   UNL     1     -11.844  13.135  65.607  0.00  0.00    +0.244 A 
ATOM      6  C   UNL     1     -11.802  14.368  64.968  0.00  0.00    +0.235 A 
ATOM      7  O   UNL     1     -12.572  14.571  63.826  0.00  0.00    -0.283 OA
ATOM      8  O   UNL     1     -12.197  12.028  64.869  0.00  0.00    -0.282 OA
ATOM      9 CL   UNL     1     -11.786  11.553  67.824  0.00  0.00    -0.079 Cl
ATOM     10  C   UNL     1     -11.094  14.002  69.107  0.00  0.00    +0.046 C 
ATOM     11  C   UNL     1     -12.036  14.890  69.906  0.00  0.00    +0.093 C 
ATOM     12  N   UNL     1     -11.926  16.221  69.313  0.00  0.00    -0.217 NA
ATOM     13  C   UNL     1     -11.177  15.407  65.647  0.00  0.00    +0.041 A 
ATOM     14  C   UNL     1     -10.503  16.427  69.057  0.00  0.00    +0.097 C 
ENDROOT
BRANCH   1  19
ATOM     15  O   UNL     1      -5.137  18.219  67.935  0.00  0.00    -0.287 OA
ATOM     16  C   UNL     1      -6.248  17.498  67.709  0.00  0.00    +0.196 A 
ATOM     17  C   UNL     1      -6.809  17.342  66.446  0.00  0.00    +0.042 A 
ATOM     18  C   UNL     1      -8.200  17.349  66.424  0.00  0.00    -0.001 A 
ATOM     19  C   UNL     1      -8.842  16.576  67.341  0.00  0.00    -0.017 A 
ATOM     20  C   UNL     1      -8.258  16.497  68.604  0.00  0.00    -0.001 A 
ATOM     21  C   UNL     1      -6.910  16.816  68.724  0.00  0.00    +0.042 A 
ENDBRANCH   1  19
TORSDOF 1
ENDMDL
MODEL 5
REMARK VINA RESULT:      -6.7      1.494      2.021
REMARK  Name = 
REMARK  1 active torsions:
REMARK  status: ('A' for Active; 'I' for Inactive)
REMARK    1  A    between atoms: C_5  and  C_6
REMARK                            x       y       z     vdW  Elec       q    Type
REMARK                         _______ _______ _______ _____ _____    ______ ____
ROOT
ATOM      1  C   UNL     1     -10.391  12.031  68.513  0.00  0.00    +0.062 C 
ATOM      2  C   UNL     1     -11.340  10.982  69.331  0.00  0.00    -0.017 A 
ATOM      3  C   UNL     1     -10.908   9.853  69.954  0.00  0.00    -0.010 A 
ATOM      4  C   UNL     1     -11.838   9.227  70.775  0.00  0.00    +0.096 A 
ATOM      5  C   UNL     1     -12.824  10.003  71.374  0.00  0.00    +0.244 A 
ATOM      6  C   UNL     1     -12.785  11.382  71.212  0.00  0.00    +0.235 A 
ATOM      7  O   UNL     1     -13.245  12.203  72.237  0.00  0.00    -0.283 OA
ATOM      8  O   UNL     1     -13.742   9.474  72.252  0.00  0.00    -0.282 OA
ATOM      9 CL   UNL     1     -11.835   7.492  71.004  0.00  0.00    -0.079 Cl
ATOM     10  C   UNL     1     -10.035   8.851  69.262  0.00  0.00    +0.046 C 
ATOM     11  C   UNL     1      -8.602   9.243  69.585  0.00  0.00    +0.093 C 
ATOM     12  N   UNL     1      -8.512  10.678  69.318  0.00  0.00    -0.217 NA
ATOM     13  C   UNL     1     -12.062  11.867  70.129  0.00  0.00    +0.041 A 
ATOM     14  C   UNL     1      -9.241  10.897  68.072  0.00  0.00    +0.097 C 
ENDROOT
BRANCH   1  19
ATOM     15  O   UNL     1     -11.609  12.607  63.125  0.00  0.00    -0.287 OA
ATOM     16  C   UNL     1     -11.643  12.209  64.408  0.00  0.00    +0.196 A 
ATOM     17  C   UNL     1     -12.437  12.819  65.373  0.00  0.00    +0.042 A 
ATOM     18  C   UNL     1     -11.846  12.929  66.626  0.00  0.00    -0.001 A 
ATOM     19  C   UNL     1     -11.236  11.822  67.128  0.00  0.00    -0.017 A 
ATOM     20  C   UNL     1     -10.564  11.015  66.212  0.00  0.00    -0.001 A 
ATOM     21  C   UNL     1     -10.906  11.123  64.869  0.00  0.00    +0.042 A 
ENDBRANCH   1  19
TORSDOF 1
ENDMDL
MODEL 6
REMARK VINA RESULT:      -6.6      4.142      6.374
REMARK  Name = 
REMARK  1 active torsions:
REMARK  status: ('A' for Active; 'I' for Inactive)
REMARK    1  A    between atoms: C_5  and  C_6
REMARK                            x       y       z     vdW  Elec       q    Type
REMARK                         _______ _______ _______ _____ _____    ______ ____
ROOT
ATOM      1  C   UNL     1     -11.686  15.839  68.342  0.00  0.00    +0.062 C 
ATOM      2  C   UNL     1     -10.079  16.099  68.483  0.00  0.00    -0.017 A 
ATOM      3  C   UNL     1      -9.128  15.619  67.637  0.00  0.00    -0.010 A 
ATOM      4  C   UNL     1      -7.852  16.141  67.810  0.00  0.00    +0.096 A 
ATOM      5  C   UNL     1      -7.724  17.427  68.321  0.00  0.00    +0.244 A 
ATOM      6  C   UNL     1      -8.871  18.178  68.547  0.00  0.00    +0.235 A 
ATOM      7  O   UNL     1      -8.823  19.560  68.392  0.00  0.00    -0.283 OA
ATOM      8  O   UNL     1      -6.502  18.044  68.462  0.00  0.00    -0.282 OA
ATOM      9 CL   UNL     1      -6.421  15.191  67.471  0.00  0.00    -0.079 Cl
ATOM     10  C   UNL     1      -9.073  14.174  67.245  0.00  0.00    +0.046 C 
ATOM     11  C   UNL     1      -9.879  14.054  65.961  0.00  0.00    +0.093 C 
ATOM     12  N   UNL     1     -11.139  14.749  66.215  0.00  0.00    -0.217 NA
ATOM     13  C   UNL     1     -10.064  17.478  68.678  0.00  0.00    +0.041 A 
ATOM     14  C   UNL     1     -11.542  14.363  67.565  0.00  0.00    +0.097 C 
ENDROOT
BRANCH   1  19
ATOM     15  O   UNL     1     -14.049  13.238  72.643  0.00  0.00    -0.287 OA
ATOM     16  C   UNL     1     -13.136  13.808  71.838  0.00  0.00    +0.196 A 
ATOM     17  C   UNL     1     -12.743  15.137  71.956  0.00  0.00    +0.042 A 
ATOM     18  C   UNL     1     -12.523  15.786  70.746  0.00  0.00    -0.001 A 
ATOM     19  C   UNL     1     -11.771  15.137  69.818  0.00  0.00    -0.017 A 
ATOM     20  C   UNL     1     -11.937  13.756  69.740  0.00  0.00    -0.001 A 
ATOM     21  C   UNL     1     -12.482  13.099  70.838  0.00  0.00    +0.042 A 
ENDBRANCH   1  19
TORSDOF 1
ENDMDL
MODEL 7
REMARK VINA RESULT:      -6.6      3.562      5.195
REMARK  Name = 
REMARK  1 active torsions:
REMARK  status: ('A' for Active; 'I' for Inactive)
REMARK    1  A    between atoms: C_5  and  C_6
REMARK                            x       y       z     vdW  Elec       q    Type
REMARK                         _______ _______ _______ _____ _____    ______ ____
ROOT
ATOM      1  C   UNL     1     -12.058  12.540  67.182  0.00  0.00    +0.062 C 
ATOM      2  C   UNL     1     -11.302  13.961  67.467  0.00  0.00    -0.017 A 
ATOM      3  C   UNL     1     -11.249  15.009  66.602  0.00  0.00    -0.010 A 
ATOM      4  C   UNL     1     -10.752  16.195  67.127  0.00  0.00    +0.096 A 
ATOM      5  C   UNL     1     -10.913  16.440  68.486  0.00  0.00    +0.244 A 
ATOM      6  C   UNL     1     -11.648  15.540  69.247  0.00  0.00    +0.235 A 
ATOM      7  O   UNL     1     -12.387  16.008  70.331  0.00  0.00    -0.283 OA
ATOM      8  O   UNL     1     -10.510  17.617  69.073  0.00  0.00    -0.282 OA
ATOM      9 CL   UNL     1      -9.872  17.338  66.134  0.00  0.00    -0.079 Cl
ATOM     10  C   UNL     1     -10.837  14.835  65.172  0.00  0.00    +0.046 C 
ATOM     11  C   UNL     1     -12.120  14.613  64.386  0.00  0.00    +0.093 C 
ATOM     12  N   UNL     1     -12.863  13.589  65.118  0.00  0.00    -0.217 NA
ATOM     13  C   UNL     1     -11.796  14.257  68.736  0.00  0.00    +0.041 A 
ATOM     14  C   UNL     1     -11.874  12.591  65.520  0.00  0.00    +0.097 C 
ENDROOT
BRANCH   1  19
ATOM     15  O   UNL     1      -8.713   8.108  67.042  0.00  0.00    -0.287 OA
ATOM     16  C   UNL     1      -9.165   9.364  67.196  0.00  0.00    +0.196 A 
ATOM     17  C   UNL     1      -9.603   9.870  68.415  0.00  0.00    +0.042 A 
ATOM     18  C   UNL     1     -10.705  10.713  68.331  0.00  0.00    -0.001 A 
ATOM     19  C   UNL     1     -10.675  11.687  67.383  0.00  0.00    -0.017 A 
ATOM     20  C   UNL     1     -10.076  11.354  66.169  0.00  0.00    -0.001 A 
ATOM     21  C   UNL     1      -9.199  10.275  66.147  0.00  0.00    +0.042 A 
ENDBRANCH   1  19
TORSDOF 1
ENDMDL
MODEL 8
REMARK VINA RESULT:      -6.5      3.549      5.143
REMARK  Name = 
REMARK  1 active torsions:
REMARK  status: ('A' for Active; 'I' for Inactive)
REMARK    1  A    between atoms: C_5  and  C_6
REMARK                            x       y       z     vdW  Elec       q    Type
REMARK                         _______ _______ _______ _____ _____    ______ ____
ROOT
ATOM      1  C   UNL     1     -11.838  12.295  65.288  0.00  0.00    +0.062 C 
ATOM      2  C   UNL     1     -11.056  13.258  66.352  0.00  0.00    -0.017 A 
ATOM      3  C   UNL     1     -11.039  14.617  66.315  0.00  0.00    -0.010 A 
ATOM      4  C   UNL     1     -10.505  15.241  67.436  0.00  0.00    +0.096 A 
ATOM      5  C   UNL     1     -10.593  14.593  68.662  0.00  0.00    +0.244 A 
ATOM      6  C   UNL     1     -11.295  13.397  68.741  0.00  0.00    +0.235 A 
ATOM      7  O   UNL     1     -11.973  13.080  69.915  0.00  0.00    -0.283 OA
ATOM      8  O   UNL     1     -10.150  15.169  69.831  0.00  0.00    -0.282 OA
ATOM      9 CL   UNL     1      -9.668  16.775  67.318  0.00  0.00    -0.079 Cl
ATOM     10  C   UNL     1     -10.703  15.371  65.064  0.00  0.00    +0.046 C 
ATOM     11  C   UNL     1     -12.028  15.647  64.370  0.00  0.00    +0.093 C 
ATOM     12  N   UNL     1     -12.740  14.371  64.348  0.00  0.00    -0.217 NA
ATOM     13  C   UNL     1     -11.481  12.698  67.555  0.00  0.00    +0.041 A 
ATOM     14  C   UNL     1     -11.741  13.363  64.003  0.00  0.00    +0.097 C 
ENDROOT
BRANCH   1  19
ATOM     15  O   UNL     1      -8.638   8.597  62.655  0.00  0.00    -0.287 OA
ATOM     16  C   UNL     1      -9.037   9.629  63.418  0.00  0.00    +0.196 A 
ATOM     17  C   UNL     1      -9.237   9.527  64.790  0.00  0.00    +0.042 A 
ATOM     18  C   UNL     1     -10.325  10.247  65.273  0.00  0.00    -0.001 A 
ATOM     19  C   UNL     1     -10.454  11.534  64.856  0.00  0.00    -0.017 A 
ATOM     20  C   UNL     1     -10.092  11.800  63.537  0.00  0.00    -0.001 A 
ATOM     21  C   UNL     1      -9.249  10.900  62.896  0.00  0.00    +0.042 A 
ENDBRANCH   1  19
TORSDOF 1
ENDMDL
MODEL 9
REMARK VINA RESULT:      -6.5      4.597      5.952
REMARK  Name = 
REMARK  1 active torsions:
REMARK  status: ('A' for Active; 'I' for Inactive)
REMARK    1  A    between atoms: C_5  and  C_6
REMARK                            x       y       z     vdW  Elec       q    Type
REMARK                         _______ _______ _______ _____ _____    ______ ____
ROOT
ATOM      1  C   UNL     1      -9.727  14.117  67.475  0.00  0.00    +0.062 C 
ATOM      2  C   UNL     1      -9.249  15.652  67.183  0.00  0.00    -0.017 A 
ATOM      3  C   UNL     1      -9.498  16.719  67.987  0.00  0.00    -0.010 A 
ATOM      4  C   UNL     1      -8.813  17.885  67.668  0.00  0.00    +0.096 A 
ATOM      5  C   UNL     1      -7.579  17.779  67.038  0.00  0.00    +0.244 A 
ATOM      6  C   UNL     1      -7.031  16.518  66.842  0.00  0.00    +0.235 A 
ATOM      7  O   UNL     1      -5.648  16.362  66.872  0.00  0.00    -0.283 OA
ATOM      8  O   UNL     1      -6.806  18.880  66.747  0.00  0.00    -0.282 OA
ATOM      9 CL   UNL     1      -9.504  19.465  67.972  0.00  0.00    -0.079 Cl
ATOM     10  C   UNL     1     -10.874  17.022  68.497  0.00  0.00    +0.046 C 
ATOM     11  C   UNL     1     -10.986  16.332  69.848  0.00  0.00    +0.093 C 
ATOM     12  N   UNL     1     -10.511  14.965  69.637  0.00  0.00    -0.217 NA
ATOM     13  C   UNL     1      -7.908  15.441  66.868  0.00  0.00    +0.041 A 
ATOM     14  C   UNL     1     -11.082  14.538  68.362  0.00  0.00    +0.097 C 
ENDROOT
BRANCH   1  19
ATOM     15  O   UNL     1     -13.220  11.995  63.714  0.00  0.00    -0.287 OA
ATOM     16  C   UNL     1     -12.378  12.826  64.350  0.00  0.00    +0.196 A 
ATOM     17  C   UNL     1     -11.013  12.874  64.087  0.00  0.00    +0.042 A 
ATOM     18  C   UNL     1     -10.212  13.062  65.208  0.00  0.00    -0.001 A 
ATOM     19  C   UNL     1     -10.575  14.043  66.077  0.00  0.00    -0.017 A 
ATOM     20  C   UNL     1     -11.943  14.223  66.275  0.00  0.00    -0.001 A 
ATOM     21  C   UNL     1     -12.814  13.736  65.307  0.00  0.00    +0.042 A 
ENDBRANCH   1  19
TORSDOF 1
ENDMDL
