MODEL 1
REMARK VINA RESULT:      -5.8      0.000      0.000
REMARK  Name = 
REMARK  5 active torsions:
REMARK  status: ('A' for Active; 'I' for Inactive)
REMARK    1  A    between atoms: C_2  and  C_3
REMARK    2  A    between atoms: C_3  and  C_4
REMARK    3  A    between atoms: C_4  and  C_5
REMARK    4  A    between atoms: C_5  and  C_7
REMARK    5  A    between atoms: C_8  and  C_9
REMARK                            x       y       z     vdW  Elec       q    Type
REMARK                         _______ _______ _______ _____ _____    ______ ____
ROOT
ATOM      1  C   UNL     1     -10.256  15.463  67.944  0.00  0.00    +0.155 C 
ATOM      2  C   UNL     1     -10.511  16.900  67.713  0.00  0.00    +0.241 C 
ATOM      3  O   UNL     1     -10.170  17.702  68.628  0.00  0.00    -0.274 OA
ATOM      4  N   UNL     1     -10.493  17.402  66.372  0.00  0.00    -0.210 N 
ATOM      5  C   UNL     1     -10.445  18.846  66.159  0.00  0.00    +0.124 C 
ATOM      6  C   UNL     1     -10.735  16.496  65.312  0.00  0.00    +0.336 C 
ATOM      7  O   UNL     1     -11.229  16.923  64.233  0.00  0.00    -0.250 OA
ATOM      8  N   UNL     1     -10.389  15.119  65.489  0.00  0.00    -0.127 NA
ATOM      9  C   UNL     1      -9.776  14.778  66.724  0.00  0.00    +0.258 C 
ATOM     10  O   UNL     1      -9.209  13.676  66.845  0.00  0.00    -0.272 OA
ENDROOT
BRANCH   1  11
ATOM     11  C   UNL     1     -11.769  14.817  68.211  0.00  0.00    +0.081 C 
ATOM     12  C   UNL     1     -11.130  13.479  68.974  0.00  0.00    +0.015 C 
BRANCH  11  13
ATOM     13  C   UNL     1     -11.939  15.597  69.610  0.00  0.00    -0.091 C 
ATOM     14  C   UNL     1     -12.606  15.635  70.628  0.00  0.00    -0.091 C 
BRANCH  14  15
ATOM     15  C   UNL     1     -13.296  15.570  71.909  0.00  0.00    +0.076 C 
ATOM     16  C   UNL     1     -14.677  14.999  71.645  0.00  0.00    +0.015 C 
ENDBRANCH  14  15
ENDBRANCH  11  13
ENDBRANCH   1  11
BRANCH   1  17
ATOM     17  C   UNL     1      -9.463  15.170  69.167  0.00  0.00    +0.044 C 
BRANCH  17  19
ATOM     18  C   UNL     1      -7.474  15.641  69.195  0.00  0.00    -0.005 C 
ATOM     19  C   UNL     1      -8.031  15.537  69.087  0.00  0.00    -0.025 C 
ENDBRANCH  17  19
ENDBRANCH   1  17
TORSDOF 5
ENDMDL
MODEL 2
REMARK VINA RESULT:      -5.1      2.750      5.072
REMARK  Name = 
REMARK  5 active torsions:
REMARK  status: ('A' for Active; 'I' for Inactive)
REMARK    1  A    between atoms: C_2  and  C_3
REMARK    2  A    between atoms: C_3  and  C_4
REMARK    3  A    between atoms: C_4  and  C_5
REMARK    4  A    between atoms: C_5  and  C_7
REMARK    5  A    between atoms: C_8  and  C_9
REMARK                            x       y       z     vdW  Elec       q    Type
REMARK                         _______ _______ _______ _____ _____    ______ ____
ROOT
ATOM      1  C   UNL     1     -10.655  14.595  67.635  0.00  0.00    +0.155 C 
ATOM      2  C   UNL     1     -11.418  13.673  68.503  0.00  0.00    +0.241 C 
ATOM      3  O   UNL     1     -11.120  12.447  68.446  0.00  0.00    -0.274 OA
ATOM      4  N   UNL     1     -11.933  14.158  69.748  0.00  0.00    -0.210 N 
ATOM      5  C   UNL     1     -12.418  13.196  70.734  0.00  0.00    +0.124 C 
ATOM      6  C   UNL     1     -12.147  15.550  69.891  0.00  0.00    +0.336 C 
ATOM      7  O   UNL     1     -13.029  15.962  70.694  0.00  0.00    -0.250 OA
ATOM      8  N   UNL     1     -11.336  16.454  69.134  0.00  0.00    -0.127 NA
ATOM      9  C   UNL     1     -10.332  15.866  68.319  0.00  0.00    +0.258 C 
ATOM     10  O   UNL     1      -9.426  16.581  67.850  0.00  0.00    -0.272 OA
ENDROOT
BRANCH   1  11
ATOM     11  C   UNL     1     -11.740  15.030  66.448  0.00  0.00    +0.081 C 
ATOM     12  C   UNL     1     -10.523  15.245  65.329  0.00  0.00    +0.015 C 
BRANCH  11  13
ATOM     13  C   UNL     1     -11.964  13.503  65.986  0.00  0.00    -0.091 C 
ATOM     14  C   UNL     1     -12.218  12.806  65.021  0.00  0.00    -0.091 C 
BRANCH  14  15
ATOM     15  C   UNL     1     -12.358  11.966  63.839  0.00  0.00    +0.076 C 
ATOM     16  C   UNL     1     -10.966  11.497  63.457  0.00  0.00    +0.015 C 
ENDBRANCH  14  15
ENDBRANCH  11  13
ENDBRANCH   1  11
BRANCH   1  17
ATOM     17  C   UNL     1      -9.507  13.965  66.932  0.00  0.00    +0.044 C 
BRANCH  17  19
ATOM     18  C   UNL     1      -7.846  13.466  68.013  0.00  0.00    -0.005 C 
ATOM     19  C   UNL     1      -8.364  13.601  67.800  0.00  0.00    -0.025 C 
ENDBRANCH  17  19
ENDBRANCH   1  17
TORSDOF 5
ENDMDL
MODEL 3
REMARK VINA RESULT:      -5.1      2.658      4.759
REMARK  Name = 
REMARK  5 active torsions:
REMARK  status: ('A' for Active; 'I' for Inactive)
REMARK    1  A    between atoms: C_2  and  C_3
REMARK    2  A    between atoms: C_3  and  C_4
REMARK    3  A    between atoms: C_4  and  C_5
REMARK    4  A    between atoms: C_5  and  C_7
REMARK    5  A    between atoms: C_8  and  C_9
REMARK                            x       y       z     vdW  Elec       q    Type
REMARK                         _______ _______ _______ _____ _____    ______ ____
ROOT
ATOM      1  C   UNL     1     -10.841  13.443  67.817  0.00  0.00    +0.155 C 
ATOM      2  C   UNL     1     -10.971  12.062  68.329  0.00  0.00    +0.241 C 
ATOM      3  O   UNL     1     -12.108  11.520  68.245  0.00  0.00    -0.274 OA
ATOM      4  N   UNL     1      -9.833  11.194  68.281  0.00  0.00    -0.210 N 
ATOM      5  C   UNL     1     -10.027   9.764  68.499  0.00  0.00    +0.124 C 
ATOM      6  C   UNL     1      -8.544  11.776  68.234  0.00  0.00    +0.336 C 
ATOM      7  O   UNL     1      -7.559  11.138  68.695  0.00  0.00    -0.250 OA
ATOM      8  N   UNL     1      -8.393  13.069  67.639  0.00  0.00    -0.127 NA
ATOM      9  C   UNL     1      -9.568  13.653  67.094  0.00  0.00    +0.258 C 
ATOM     10  O   UNL     1      -9.470  14.634  66.334  0.00  0.00    -0.272 OA
ENDROOT
BRANCH   1  11
ATOM     11  C   UNL     1     -10.694  14.376  69.190  0.00  0.00    +0.081 C 
ATOM     12  C   UNL     1     -11.639  15.586  68.543  0.00  0.00    +0.015 C 
BRANCH  11  13
ATOM     13  C   UNL     1     -11.969  13.683  69.890  0.00  0.00    -0.091 C 
ATOM     14  C   UNL     1     -12.661  13.707  70.891  0.00  0.00    -0.091 C 
BRANCH  14  15
ATOM     15  C   UNL     1     -13.582  13.848  72.011  0.00  0.00    +0.076 C 
ATOM     16  C   UNL     1     -14.380  15.118  71.776  0.00  0.00    +0.015 C 
ENDBRANCH  14  15
ENDBRANCH  11  13
ENDBRANCH   1  11
BRANCH   1  17
ATOM     17  C   UNL     1     -12.044  13.947  67.105  0.00  0.00    +0.044 C 
BRANCH  17  19
ATOM     18  C   UNL     1     -12.502  13.179  65.267  0.00  0.00    -0.005 C 
ATOM     19  C   UNL     1     -12.283  13.345  65.774  0.00  0.00    -0.025 C 
ENDBRANCH  17  19
ENDBRANCH   1  17
TORSDOF 5
ENDMDL
MODEL 4
REMARK VINA RESULT:      -5.0      1.919      4.768
REMARK  Name = 
REMARK  5 active torsions:
REMARK  status: ('A' for Active; 'I' for Inactive)
REMARK    1  A    between atoms: C_2  and  C_3
REMARK    2  A    between atoms: C_3  and  C_4
REMARK    3  A    between atoms: C_4  and  C_5
REMARK    4  A    between atoms: C_5  and  C_7
REMARK    5  A    between atoms: C_8  and  C_9
REMARK                            x       y       z     vdW  Elec       q    Type
REMARK                         _______ _______ _______ _____ _____    ______ ____
ROOT
ATOM      1  C   UNL     1      -9.684  16.783  67.065  0.00  0.00    +0.155 C 
ATOM      2  C   UNL     1     -10.247  16.635  68.424  0.00  0.00    +0.241 C 
ATOM      3  O   UNL     1     -10.198  17.644  69.182  0.00  0.00    -0.274 OA
ATOM      4  N   UNL     1     -11.328  15.719  68.632  0.00  0.00    -0.210 N 
ATOM      5  C   UNL     1     -12.078  15.785  69.883  0.00  0.00    +0.124 C 
ATOM      6  C   UNL     1     -11.492  14.654  67.715  0.00  0.00    +0.336 C 
ATOM      7  O   UNL     1     -12.043  13.586  68.099  0.00  0.00    -0.250 OA
ATOM      8  N   UNL     1     -11.048  14.830  66.366  0.00  0.00    -0.127 NA
ATOM      9  C   UNL     1     -10.509  16.103  66.042  0.00  0.00    +0.258 C 
ATOM     10  O   UNL     1     -10.355  16.419  64.848  0.00  0.00    -0.272 OA
ENDROOT
BRANCH   1  11
ATOM     11  C   UNL     1      -8.272  15.900  67.109  0.00  0.00    +0.081 C 
ATOM     12  C   UNL     1      -7.456  17.046  66.215  0.00  0.00    +0.015 C 
BRANCH  11  13
ATOM     13  C   UNL     1      -7.804  16.575  68.496  0.00  0.00    -0.091 C 
ATOM     14  C   UNL     1      -6.881  17.164  69.028  0.00  0.00    -0.091 C 
BRANCH  14  15
ATOM     15  C   UNL     1      -5.847  18.008  69.609  0.00  0.00    +0.076 C 
ATOM     16  C   UNL     1      -6.343  19.441  69.531  0.00  0.00    +0.015 C 
ENDBRANCH  14  15
ENDBRANCH  11  13
ENDBRANCH   1  11
BRANCH   1  17
ATOM     17  C   UNL     1      -9.289  18.173  66.714  0.00  0.00    +0.044 C 
BRANCH  17  19
ATOM     18  C   UNL     1     -10.760  19.534  66.309  0.00  0.00    -0.005 C 
ATOM     19  C   UNL     1     -10.416  19.105  66.485  0.00  0.00    -0.025 C 
ENDBRANCH  17  19
ENDBRANCH   1  17
TORSDOF 5
ENDMDL
MODEL 5
REMARK VINA RESULT:      -5.0      2.304      2.867
REMARK  Name = 
REMARK  5 active torsions:
REMARK  status: ('A' for Active; 'I' for Inactive)
REMARK    1  A    between atoms: C_2  and  C_3
REMARK    2  A    between atoms: C_3  and  C_4
REMARK    3  A    between atoms: C_4  and  C_5
REMARK    4  A    between atoms: C_5  and  C_7
REMARK    5  A    between atoms: C_8  and  C_9
REMARK                            x       y       z     vdW  Elec       q    Type
REMARK                         _______ _______ _______ _____ _____    ______ ____
ROOT
ATOM      1  C   UNL     1     -10.563  12.812  67.074  0.00  0.00    +0.155 C 
ATOM      2  C   UNL     1     -10.703  14.234  66.699  0.00  0.00    +0.241 C 
ATOM      3  O   UNL     1      -9.967  15.065  67.302  0.00  0.00    -0.274 OA
ATOM      4  N   UNL     1     -11.095  14.565  65.362  0.00  0.00    -0.210 N 
ATOM      5  C   UNL     1     -10.945  15.943  64.904  0.00  0.00    +0.124 C 
ATOM      6  C   UNL     1     -11.803  13.598  64.610  0.00  0.00    +0.336 C 
ATOM      7  O   UNL     1     -12.586  13.976  63.696  0.00  0.00    -0.250 OA
ATOM      8  N   UNL     1     -11.590  12.212  64.893  0.00  0.00    -0.127 NA
ATOM      9  C   UNL     1     -10.630  11.916  65.898  0.00  0.00    +0.258 C 
ATOM     10  O   UNL     1     -10.198  10.753  66.011  0.00  0.00    -0.272 OA
ENDROOT
BRANCH   1  11
ATOM     11  C   UNL     1     -11.954  12.475  67.927  0.00  0.00    +0.081 C 
ATOM     12  C   UNL     1     -11.170  11.357  68.883  0.00  0.00    +0.015 C 
BRANCH  11  13
ATOM     13  C   UNL     1     -11.677  13.653  68.991  0.00  0.00    -0.091 C 
ATOM     14  C   UNL     1     -12.054  14.112  70.054  0.00  0.00    -0.091 C 
BRANCH  14  15
ATOM     15  C   UNL     1     -12.395  14.557  71.398  0.00  0.00    +0.076 C 
ATOM     16  C   UNL     1     -11.811  15.948  71.569  0.00  0.00    +0.015 C 
ENDBRANCH  14  15
ENDBRANCH  11  13
ENDBRANCH   1  11
BRANCH   1  17
ATOM     17  C   UNL     1      -9.434  12.530  67.999  0.00  0.00    +0.044 C 
BRANCH  17  19
ATOM     18  C   UNL     1      -7.520  12.637  67.291  0.00  0.00    -0.005 C 
ATOM     19  C   UNL     1      -8.088  12.640  67.396  0.00  0.00    -0.025 C 
ENDBRANCH  17  19
ENDBRANCH   1  17
TORSDOF 5
ENDMDL
MODEL 6
REMARK VINA RESULT:      -4.9      1.855      2.104
REMARK  Name = 
REMARK  5 active torsions:
REMARK  status: ('A' for Active; 'I' for Inactive)
REMARK    1  A    between atoms: C_2  and  C_3
REMARK    2  A    between atoms: C_3  and  C_4
REMARK    3  A    between atoms: C_4  and  C_5
REMARK    4  A    between atoms: C_5  and  C_7
REMARK    5  A    between atoms: C_8  and  C_9
REMARK                            x       y       z     vdW  Elec       q    Type
REMARK                         _______ _______ _______ _____ _____    ______ ____
ROOT
ATOM      1  C   UNL     1     -10.221  14.447  67.115  0.00  0.00    +0.155 C 
ATOM      2  C   UNL     1      -9.812  15.628  67.903  0.00  0.00    +0.241 C 
ATOM      3  O   UNL     1      -9.122  15.419  68.940  0.00  0.00    -0.274 OA
ATOM      4  N   UNL     1      -9.611  16.876  67.230  0.00  0.00    -0.210 N 
ATOM      5  C   UNL     1      -8.926  17.955  67.936  0.00  0.00    +0.124 C 
ATOM      6  C   UNL     1     -10.264  17.086  65.992  0.00  0.00    +0.336 C 
ATOM      7  O   UNL     1     -10.545  18.262  65.632  0.00  0.00    -0.250 OA
ATOM      8  N   UNL     1     -10.566  15.954  65.171  0.00  0.00    -0.127 NA
ATOM      9  C   UNL     1     -10.135  14.690  65.658  0.00  0.00    +0.258 C 
ATOM     10  O   UNL     1     -10.118  13.710  64.891  0.00  0.00    -0.272 OA
ENDROOT
BRANCH   1  11
ATOM     11  C   UNL     1     -11.855  14.303  67.412  0.00  0.00    +0.081 C 
ATOM     12  C   UNL     1     -11.788  12.640  67.315  0.00  0.00    +0.015 C 
BRANCH  11  13
ATOM     13  C   UNL     1     -11.639  14.270  69.008  0.00  0.00    -0.091 C 
ATOM     14  C   UNL     1     -12.204  14.038  70.061  0.00  0.00    -0.091 C 
BRANCH  14  15
ATOM     15  C   UNL     1     -12.830  13.603  71.302  0.00  0.00    +0.076 C 
ATOM     16  C   UNL     1     -12.793  12.086  71.313  0.00  0.00    +0.015 C 
ENDBRANCH  14  15
ENDBRANCH  11  13
ENDBRANCH   1  11
BRANCH   1  17
ATOM     17  C   UNL     1      -9.608  13.168  67.562  0.00  0.00    +0.044 C 
BRANCH  17  19
ATOM     18  C   UNL     1      -7.598  12.906  67.302  0.00  0.00    -0.005 C 
ATOM     19  C   UNL     1      -8.159  13.041  67.291  0.00  0.00    -0.025 C 
ENDBRANCH  17  19
ENDBRANCH   1  17
TORSDOF 5
ENDMDL
MODEL 7
REMARK VINA RESULT:      -4.9      3.794      4.421
REMARK  Name = 
REMARK  5 active torsions:
REMARK  status: ('A' for Active; 'I' for Inactive)
REMARK    1  A    between atoms: C_2  and  C_3
REMARK    2  A    between atoms: C_3  and  C_4
REMARK    3  A    between atoms: C_4  and  C_5
REMARK    4  A    between atoms: C_5  and  C_7
REMARK    5  A    between atoms: C_8  and  C_9
REMARK                            x       y       z     vdW  Elec       q    Type
REMARK                         _______ _______ _______ _____ _____    ______ ____
ROOT
ATOM      1  C   UNL     1     -10.308  11.704  66.790  0.00  0.00    +0.155 C 
ATOM      2  C   UNL     1     -11.404  12.695  66.768  0.00  0.00    +0.241 C 
ATOM      3  O   UNL     1     -11.393  13.588  67.662  0.00  0.00    -0.274 OA
ATOM      4  N   UNL     1     -12.005  13.039  65.515  0.00  0.00    -0.210 N 
ATOM      5  C   UNL     1     -12.865  14.217  65.444  0.00  0.00    +0.124 C 
ATOM      6  C   UNL     1     -11.913  12.113  64.449  0.00  0.00    +0.336 C 
ATOM      7  O   UNL     1     -12.803  12.108  63.555  0.00  0.00    -0.250 OA
ATOM      8  N   UNL     1     -10.795  11.222  64.403  0.00  0.00    -0.127 NA
ATOM      9  C   UNL     1      -9.826  11.375  65.431  0.00  0.00    +0.258 C 
ATOM     10  O   UNL     1      -8.711  10.833  65.310  0.00  0.00    -0.272 OA
ENDROOT
BRANCH   1  11
ATOM     11  C   UNL     1     -11.036  10.301  67.319  0.00  0.00    +0.081 C 
ATOM     12  C   UNL     1      -9.680   9.848  68.176  0.00  0.00    +0.015 C 
BRANCH  11  13
ATOM     13  C   UNL     1     -11.672  11.027  68.609  0.00  0.00    -0.091 C 
ATOM     14  C   UNL     1     -12.095  10.820  69.732  0.00  0.00    -0.091 C 
BRANCH  14  15
ATOM     15  C   UNL     1     -12.445  10.595  71.127  0.00  0.00    +0.076 C 
ATOM     16  C   UNL     1     -11.781   9.297  71.551  0.00  0.00    +0.015 C 
ENDBRANCH  14  15
ENDBRANCH  11  13
ENDBRANCH   1  11
BRANCH   1  17
ATOM     17  C   UNL     1      -9.231  12.002  67.771  0.00  0.00    +0.044 C 
BRANCH  17  19
ATOM     18  C   UNL     1      -7.947  13.547  67.393  0.00  0.00    -0.005 C 
ATOM     19  C   UNL     1      -8.351  13.136  67.408  0.00  0.00    -0.025 C 
ENDBRANCH  17  19
ENDBRANCH   1  17
TORSDOF 5
ENDMDL
MODEL 8
REMARK VINA RESULT:      -4.9      1.760      1.939
REMARK  Name = 
REMARK  5 active torsions:
REMARK  status: ('A' for Active; 'I' for Inactive)
REMARK    1  A    between atoms: C_2  and  C_3
REMARK    2  A    between atoms: C_3  and  C_4
REMARK    3  A    between atoms: C_4  and  C_5
REMARK    4  A    between atoms: C_5  and  C_7
REMARK    5  A    between atoms: C_8  and  C_9
REMARK                            x       y       z     vdW  Elec       q    Type
REMARK                         _______ _______ _______ _____ _____    ______ ____
ROOT
ATOM      1  C   UNL     1     -10.039  15.348  67.781  0.00  0.00    +0.155 C 
ATOM      2  C   UNL     1      -9.217  16.433  68.356  0.00  0.00    +0.241 C 
ATOM      3  O   UNL     1      -8.440  16.127  69.305  0.00  0.00    -0.274 OA
ATOM      4  N   UNL     1      -8.818  17.522  67.517  0.00  0.00    -0.210 N 
ATOM      5  C   UNL     1      -7.773  18.428  67.986  0.00  0.00    +0.124 C 
ATOM      6  C   UNL     1      -9.592  17.803  66.366  0.00  0.00    +0.336 C 
ATOM      7  O   UNL     1      -9.619  18.978  65.909  0.00  0.00    -0.250 OA
ATOM      8  N   UNL     1     -10.305  16.733  65.737  0.00  0.00    -0.127 NA
ATOM      9  C   UNL     1     -10.137  15.443  66.308  0.00  0.00    +0.258 C 
ATOM     10  O   UNL     1     -10.499  14.437  65.669  0.00  0.00    -0.272 OA
ENDROOT
BRANCH   1  11
ATOM     11  C   UNL     1     -11.583  15.676  68.318  0.00  0.00    +0.081 C 
ATOM     12  C   UNL     1     -11.956  14.055  68.424  0.00  0.00    +0.015 C 
BRANCH  11  13
ATOM     13  C   UNL     1     -11.118  15.723  69.860  0.00  0.00    -0.091 C 
ATOM     14  C   UNL     1     -11.527  15.890  70.994  0.00  0.00    -0.091 C 
BRANCH  14  15
ATOM     15  C   UNL     1     -12.045  15.928  72.355  0.00  0.00    +0.076 C 
ATOM     16  C   UNL     1     -12.896  14.685  72.544  0.00  0.00    +0.015 C 
ENDBRANCH  14  15
ENDBRANCH  11  13
ENDBRANCH   1  11
BRANCH   1  17
ATOM     17  C   UNL     1      -9.707  13.991  68.289  0.00  0.00    +0.044 C 
BRANCH  17  19
ATOM     18  C   UNL     1      -7.951  13.128  67.701  0.00  0.00    -0.005 C 
ATOM     19  C   UNL     1      -8.441  13.423  67.777  0.00  0.00    -0.025 C 
ENDBRANCH  17  19
ENDBRANCH   1  17
TORSDOF 5
ENDMDL
MODEL 9
REMARK VINA RESULT:      -4.9      2.260      4.125
REMARK  Name = 
REMARK  5 active torsions:
REMARK  status: ('A' for Active; 'I' for Inactive)
REMARK    1  A    between atoms: C_2  and  C_3
REMARK    2  A    between atoms: C_3  and  C_4
REMARK    3  A    between atoms: C_4  and  C_5
REMARK    4  A    between atoms: C_5  and  C_7
REMARK    5  A    between atoms: C_8  and  C_9
REMARK                            x       y       z     vdW  Elec       q    Type
REMARK                         _______ _______ _______ _____ _____    ______ ____
ROOT
ATOM      1  C   UNL     1      -9.362  16.443  67.940  0.00  0.00    +0.155 C 
ATOM      2  C   UNL     1      -9.881  17.767  67.540  0.00  0.00    +0.241 C 
ATOM      3  O   UNL     1     -11.135  17.923  67.552  0.00  0.00    -0.274 OA
ATOM      4  N   UNL     1      -9.081  18.929  67.781  0.00  0.00    -0.210 N 
ATOM      5  C   UNL     1      -9.698  20.247  67.668  0.00  0.00    +0.124 C 
ATOM      6  C   UNL     1      -7.681  18.767  67.911  0.00  0.00    +0.336 C 
ATOM      7  O   UNL     1      -6.915  19.724  67.611  0.00  0.00    -0.250 OA
ATOM      8  N   UNL     1      -7.174  17.522  68.403  0.00  0.00    -0.127 NA
ATOM      9  C   UNL     1      -8.142  16.550  68.770  0.00  0.00    +0.258 C 
ATOM     10  O   UNL     1      -7.796  15.564  69.449  0.00  0.00    -0.272 OA
ENDROOT
BRANCH   1  11
ATOM     11  C   UNL     1      -8.831  15.763  66.514  0.00  0.00    +0.081 C 
ATOM     12  C   UNL     1      -9.189  14.224  67.043  0.00  0.00    +0.015 C 
BRANCH  11  13
ATOM     13  C   UNL     1     -10.275  15.914  65.816  0.00  0.00    -0.091 C 
ATOM     14  C   UNL     1     -11.088  15.326  65.126  0.00  0.00    -0.091 C 
BRANCH  14  15
ATOM     15  C   UNL     1     -12.125  14.566  64.443  0.00  0.00    +0.076 C 
ATOM     16  C   UNL     1     -12.512  13.417  65.356  0.00  0.00    +0.015 C 
ENDBRANCH  14  15
ENDBRANCH  11  13
ENDBRANCH   1  11
BRANCH   1  17
ATOM     17  C   UNL     1     -10.393  15.517  68.478  0.00  0.00    +0.044 C 
BRANCH  17  19
ATOM     18  C   UNL     1     -11.207  15.898  70.313  0.00  0.00    -0.005 C 
ATOM     19  C   UNL     1     -10.935  15.885  69.805  0.00  0.00    -0.025 C 
ENDBRANCH  17  19
ENDBRANCH   1  17
TORSDOF 5
ENDMDL
