MODEL 1
REMARK VINA RESULT:      -6.7      0.000      0.000
REMARK  Name = 
REMARK  1 active torsions:
REMARK  status: ('A' for Active; 'I' for Inactive)
REMARK    1  A    between atoms: O_2  and  C_3
REMARK                            x       y       z     vdW  Elec       q    Type
REMARK                         _______ _______ _______ _____ _____    ______ ____
ROOT
ATOM      1  C   UNL     1     -11.934  15.360  69.075  0.00  0.00    +0.207 A 
ATOM      2  C   UNL     1     -12.559  14.898  70.223  0.00  0.00    +0.185 A 
ATOM      3  C   UNL     1     -12.451  13.552  70.537  0.00  0.00    +0.038 A 
ATOM      4  C   UNL     1     -12.939  13.103  71.751  0.00  0.00    +0.010 A 
ATOM      5  C   UNL     1     -13.566  14.060  72.529  0.00  0.00    +0.082 A 
ATOM      6  C   UNL     1     -13.811  15.336  72.046  0.00  0.00    +0.346 A 
ATOM      7  O   UNL     1     -14.220  16.185  72.880  0.00  0.00    -0.244 OA
ATOM      8  C   UNL     1     -11.835  12.706  69.628  0.00  0.00    +0.006 A 
ATOM      9  C   UNL     1     -11.575  13.130  68.329  0.00  0.00    +0.041 A 
ATOM     10  C   UNL     1     -11.681  12.506  67.093  0.00  0.00    +0.044 A 
ATOM     11  C   UNL     1     -11.873  13.485  66.126  0.00  0.00    +0.180 A 
ATOM     12  O   UNL     1     -11.537  14.613  66.727  0.00  0.00    -0.447 OA
ATOM     13  O   UNL     1     -13.310  15.728  70.888  0.00  0.00    -0.418 OA
ATOM     14  C   UNL     1     -11.666  14.483  68.032  0.00  0.00    +0.182 A 
ENDROOT
BRANCH   1  16
ATOM     15  C   UNL     1     -10.201  17.094  68.804  0.00  0.00    +0.253 C 
ATOM     16  O   UNL     1     -11.545  16.674  68.940  0.00  0.00    -0.465 OA
ENDBRANCH   1  16
TORSDOF 1
ENDMDL
MODEL 2
REMARK VINA RESULT:      -6.0      2.361      4.606
REMARK  Name = 
REMARK  1 active torsions:
REMARK  status: ('A' for Active; 'I' for Inactive)
REMARK    1  A    between atoms: O_2  and  C_3
REMARK                            x       y       z     vdW  Elec       q    Type
REMARK                         _______ _______ _______ _____ _____    ______ ____
ROOT
ATOM      1  C   UNL     1     -12.185  13.811  70.179  0.00  0.00    +0.207 A 
ATOM      2  C   UNL     1     -12.194  12.453  70.459  0.00  0.00    +0.185 A 
ATOM      3  C   UNL     1     -12.958  12.005  71.524  0.00  0.00    +0.038 A 
ATOM      4  C   UNL     1     -13.098  10.642  71.726  0.00  0.00    +0.010 A 
ATOM      5  C   UNL     1     -12.386   9.838  70.854  0.00  0.00    +0.082 A 
ATOM      6  C   UNL     1     -11.485  10.375  69.949  0.00  0.00    +0.346 A 
ATOM      7  O   UNL     1     -11.022   9.589  69.082  0.00  0.00    -0.244 OA
ATOM      8  C   UNL     1     -13.575  12.940  72.340  0.00  0.00    +0.006 A 
ATOM      9  C   UNL     1     -13.225  14.285  72.265  0.00  0.00    +0.041 A 
ATOM     10  C   UNL     1     -13.032  15.265  73.230  0.00  0.00    +0.044 A 
ATOM     11  C   UNL     1     -12.159  16.216  72.716  0.00  0.00    +0.180 A 
ATOM     12  O   UNL     1     -12.141  15.979  71.415  0.00  0.00    -0.447 OA
ATOM     13  O   UNL     1     -11.396  11.681  69.777  0.00  0.00    -0.418 OA
ATOM     14  C   UNL     1     -12.477  14.726  71.182  0.00  0.00    +0.182 A 
ENDROOT
BRANCH   1  16
ATOM     15  C   UNL     1     -10.671  14.846  68.530  0.00  0.00    +0.253 C 
ATOM     16  O   UNL     1     -11.912  14.290  68.917  0.00  0.00    -0.465 OA
ENDBRANCH   1  16
TORSDOF 1
ENDMDL
MODEL 3
REMARK VINA RESULT:      -6.0      2.317      5.736
REMARK  Name = 
REMARK  1 active torsions:
REMARK  status: ('A' for Active; 'I' for Inactive)
REMARK    1  A    between atoms: O_2  and  C_3
REMARK                            x       y       z     vdW  Elec       q    Type
REMARK                         _______ _______ _______ _____ _____    ______ ____
ROOT
ATOM      1  C   UNL     1     -11.810  12.155  67.889  0.00  0.00    +0.207 A 
ATOM      2  C   UNL     1     -11.876  12.871  66.704  0.00  0.00    +0.185 A 
ATOM      3  C   UNL     1     -11.392  14.169  66.690  0.00  0.00    +0.038 A 
ATOM      4  C   UNL     1     -11.313  14.844  65.484  0.00  0.00    +0.010 A 
ATOM      5  C   UNL     1     -11.802  14.158  64.387  0.00  0.00    +0.082 A 
ATOM      6  C   UNL     1     -12.458  12.945  64.528  0.00  0.00    +0.346 A 
ATOM      7  O   UNL     1     -12.706  12.313  63.468  0.00  0.00    -0.244 OA
ATOM      8  C   UNL     1     -10.982  14.738  67.885  0.00  0.00    +0.006 A 
ATOM      9  C   UNL     1     -11.294  14.137  69.099  0.00  0.00    +0.041 A 
ATOM     10  C   UNL     1     -11.705  14.644  70.326  0.00  0.00    +0.044 A 
ATOM     11  C   UNL     1     -12.424  13.655  70.987  0.00  0.00    +0.180 A 
ATOM     12  O   UNL     1     -12.133  12.543  70.334  0.00  0.00    -0.447 OA
ATOM     13  O   UNL     1     -12.494  12.327  65.694  0.00  0.00    -0.418 OA
ATOM     14  C   UNL     1     -11.759  12.828  69.103  0.00  0.00    +0.182 A 
ENDROOT
BRANCH   1  16
ATOM     15  C   UNL     1     -10.630  10.013  67.570  0.00  0.00    +0.253 C 
ATOM     16  O   UNL     1     -11.771  10.778  67.904  0.00  0.00    -0.465 OA
ENDBRANCH   1  16
TORSDOF 1
ENDMDL
MODEL 4
REMARK VINA RESULT:      -5.9      3.934      5.568
REMARK  Name = 
REMARK  1 active torsions:
REMARK  status: ('A' for Active; 'I' for Inactive)
REMARK    1  A    between atoms: O_2  and  C_3
REMARK                            x       y       z     vdW  Elec       q    Type
REMARK                         _______ _______ _______ _____ _____    ______ ____
ROOT
ATOM      1  C   UNL     1     -11.638  12.750  66.081  0.00  0.00    +0.207 A 
ATOM      2  C   UNL     1     -10.943  13.946  65.996  0.00  0.00    +0.185 A 
ATOM      3  C   UNL     1      -9.711  14.039  66.624  0.00  0.00    +0.038 A 
ATOM      4  C   UNL     1      -8.939  15.170  66.425  0.00  0.00    +0.010 A 
ATOM      5  C   UNL     1      -9.519  16.155  65.646  0.00  0.00    +0.082 A 
ATOM      6  C   UNL     1     -10.838  16.063  65.230  0.00  0.00    +0.346 A 
ATOM      7  O   UNL     1     -11.221  16.912  64.383  0.00  0.00    -0.244 OA
ATOM      8  C   UNL     1      -9.287  12.982  67.414  0.00  0.00    +0.006 A 
ATOM      9  C   UNL     1     -10.173  11.978  67.789  0.00  0.00    +0.041 A 
ATOM     10  C   UNL     1     -10.369  11.288  68.978  0.00  0.00    +0.044 A 
ATOM     11  C   UNL     1     -11.688  10.850  69.016  0.00  0.00    +0.180 A 
ATOM     12  O   UNL     1     -12.111  10.973  67.770  0.00  0.00    -0.447 OA
ATOM     13  O   UNL     1     -11.533  14.958  65.426  0.00  0.00    -0.418 OA
ATOM     14  C   UNL     1     -11.396  11.882  67.138  0.00  0.00    +0.182 A 
ENDROOT
BRANCH   1  16
ATOM     15  C   UNL     1     -12.238  12.092  63.781  0.00  0.00    +0.253 C 
ATOM     16  O   UNL     1     -12.560  12.377  65.128  0.00  0.00    -0.465 OA
ENDBRANCH   1  16
TORSDOF 1
ENDMDL
MODEL 5
REMARK VINA RESULT:      -5.8      1.419      1.799
REMARK  Name = 
REMARK  1 active torsions:
REMARK  status: ('A' for Active; 'I' for Inactive)
REMARK    1  A    between atoms: O_2  and  C_3
REMARK                            x       y       z     vdW  Elec       q    Type
REMARK                         _______ _______ _______ _____ _____    ______ ____
ROOT
ATOM      1  C   UNL     1     -10.946  15.533  67.718  0.00  0.00    +0.207 A 
ATOM      2  C   UNL     1     -11.477  15.160  68.942  0.00  0.00    +0.185 A 
ATOM      3  C   UNL     1     -11.887  13.847  69.111  0.00  0.00    +0.038 A 
ATOM      4  C   UNL     1     -12.279  13.420  70.368  0.00  0.00    +0.010 A 
ATOM      5  C   UNL     1     -12.286  14.394  71.350  0.00  0.00    +0.082 A 
ATOM      6  C   UNL     1     -12.059  15.728  71.045  0.00  0.00    +0.346 A 
ATOM      7  O   UNL     1     -11.907  16.510  72.019  0.00  0.00    -0.244 OA
ATOM      8  C   UNL     1     -11.868  12.999  68.014  0.00  0.00    +0.006 A 
ATOM      9  C   UNL     1     -11.705  13.507  66.730  0.00  0.00    +0.041 A 
ATOM     10  C   UNL     1     -12.296  13.199  65.511  0.00  0.00    +0.044 A 
ATOM     11  C   UNL     1     -12.239  14.328  64.702  0.00  0.00    +0.180 A 
ATOM     12  O   UNL     1     -11.353  15.112  65.291  0.00  0.00    -0.447 OA
ATOM     13  O   UNL     1     -11.670  16.088  69.836  0.00  0.00    -0.418 OA
ATOM     14  C   UNL     1     -11.275  14.818  66.574  0.00  0.00    +0.182 A 
ENDROOT
BRANCH   1  16
ATOM     15  C   UNL     1     -10.454  17.890  67.184  0.00  0.00    +0.253 C 
ATOM     16  O   UNL     1     -10.074  16.593  67.598  0.00  0.00    -0.465 OA
ENDBRANCH   1  16
TORSDOF 1
ENDMDL
MODEL 6
REMARK VINA RESULT:      -5.8      4.166      5.709
REMARK  Name = 
REMARK  1 active torsions:
REMARK  status: ('A' for Active; 'I' for Inactive)
REMARK    1  A    between atoms: O_2  and  C_3
REMARK                            x       y       z     vdW  Elec       q    Type
REMARK                         _______ _______ _______ _____ _____    ______ ____
ROOT
ATOM      1  C   UNL     1     -12.893   9.671  71.723  0.00  0.00    +0.207 A 
ATOM      2  C   UNL     1     -12.808  11.031  71.467  0.00  0.00    +0.185 A 
ATOM      3  C   UNL     1     -11.987  11.457  70.434  0.00  0.00    +0.038 A 
ATOM      4  C   UNL     1     -12.005  12.792  70.068  0.00  0.00    +0.010 A 
ATOM      5  C   UNL     1     -12.816  13.607  70.837  0.00  0.00    +0.082 A 
ATOM      6  C   UNL     1     -13.441  13.132  71.980  0.00  0.00    +0.346 A 
ATOM      7  O   UNL     1     -14.296  13.889  72.509  0.00  0.00    -0.244 OA
ATOM      8  C   UNL     1     -11.193  10.523  69.788  0.00  0.00    +0.006 A 
ATOM      9  C   UNL     1     -11.014   9.253  70.326  0.00  0.00    +0.041 A 
ATOM     10  C   UNL     1      -9.906   8.421  70.435  0.00  0.00    +0.044 A 
ATOM     11  C   UNL     1     -10.101   7.577  71.522  0.00  0.00    +0.180 A 
ATOM     12  O   UNL     1     -11.391   7.678  71.791  0.00  0.00    -0.447 OA
ATOM     13  O   UNL     1     -13.414  11.847  72.281  0.00  0.00    -0.418 OA
ATOM     14  C   UNL     1     -11.855   8.829  71.347  0.00  0.00    +0.182 A 
ENDROOT
BRANCH   1  16
ATOM     15  C   UNL     1     -14.769   8.070  71.769  0.00  0.00    +0.253 C 
ATOM     16  O   UNL     1     -13.998   9.115  72.329  0.00  0.00    -0.465 OA
ENDBRANCH   1  16
TORSDOF 1
ENDMDL
MODEL 7
REMARK VINA RESULT:      -5.7      1.904      5.365
REMARK  Name = 
REMARK  1 active torsions:
REMARK  status: ('A' for Active; 'I' for Inactive)
REMARK    1  A    between atoms: O_2  and  C_3
REMARK                            x       y       z     vdW  Elec       q    Type
REMARK                         _______ _______ _______ _____ _____    ______ ____
ROOT
ATOM      1  C   UNL     1     -12.060  12.603  70.014  0.00  0.00    +0.207 A 
ATOM      2  C   UNL     1     -11.878  13.022  68.705  0.00  0.00    +0.185 A 
ATOM      3  C   UNL     1     -11.738  14.379  68.460  0.00  0.00    +0.038 A 
ATOM      4  C   UNL     1     -11.407  14.802  67.184  0.00  0.00    +0.010 A 
ATOM      5  C   UNL     1     -11.309  13.801  66.234  0.00  0.00    +0.082 A 
ATOM      6  C   UNL     1     -11.669  12.493  66.524  0.00  0.00    +0.346 A 
ATOM      7  O   UNL     1     -11.378  11.626  65.660  0.00  0.00    -0.244 OA
ATOM      8  C   UNL     1     -11.914  15.265  69.511  0.00  0.00    +0.006 A 
ATOM      9  C   UNL     1     -12.477  14.840  70.709  0.00  0.00    +0.041 A 
ATOM     10  C   UNL     1     -13.394  15.417  71.578  0.00  0.00    +0.044 A 
ATOM     11  C   UNL     1     -14.045  14.398  72.264  0.00  0.00    +0.180 A 
ATOM     12  O   UNL     1     -13.293  13.330  72.060  0.00  0.00    -0.447 OA
ATOM     13  O   UNL     1     -11.960  12.130  67.759  0.00  0.00    -0.418 OA
ATOM     14  C   UNL     1     -12.594  13.478  70.952  0.00  0.00    +0.182 A 
ENDROOT
BRANCH   1  16
ATOM     15  C   UNL     1     -12.632  10.302  70.692  0.00  0.00    +0.253 C 
ATOM     16  O   UNL     1     -11.707  11.338  70.427  0.00  0.00    -0.465 OA
ENDBRANCH   1  16
TORSDOF 1
ENDMDL
MODEL 8
REMARK VINA RESULT:      -5.7      2.355      5.207
REMARK  Name = 
REMARK  1 active torsions:
REMARK  status: ('A' for Active; 'I' for Inactive)
REMARK    1  A    between atoms: O_2  and  C_3
REMARK                            x       y       z     vdW  Elec       q    Type
REMARK                         _______ _______ _______ _____ _____    ______ ____
ROOT
ATOM      1  C   UNL     1     -11.122  16.403  68.057  0.00  0.00    +0.207 A 
ATOM      2  C   UNL     1     -10.879  15.258  67.313  0.00  0.00    +0.185 A 
ATOM      3  C   UNL     1      -9.754  15.225  66.504  0.00  0.00    +0.038 A 
ATOM      4  C   UNL     1      -9.414  14.041  65.872  0.00  0.00    +0.010 A 
ATOM      5  C   UNL     1     -10.296  12.992  66.065  0.00  0.00    +0.082 A 
ATOM      6  C   UNL     1     -11.503  13.175  66.721  0.00  0.00    +0.346 A 
ATOM      7  O   UNL     1     -12.152  12.135  67.005  0.00  0.00    -0.244 OA
ATOM      8  C   UNL     1      -8.994  16.377  66.374  0.00  0.00    +0.006 A 
ATOM      9  C   UNL     1      -9.484  17.601  66.817  0.00  0.00    +0.041 A 
ATOM     10  C   UNL     1      -9.434  18.885  66.289  0.00  0.00    +0.044 A 
ATOM     11  C   UNL     1     -10.523  19.599  66.774  0.00  0.00    +0.180 A 
ATOM     12  O   UNL     1     -10.961  18.880  67.793  0.00  0.00    -0.447 OA
ATOM     13  O   UNL     1     -11.778  14.316  67.325  0.00  0.00    -0.418 OA
ATOM     14  C   UNL     1     -10.600  17.621  67.644  0.00  0.00    +0.182 A 
ENDROOT
BRANCH   1  16
ATOM     15  C   UNL     1     -11.333  16.012  70.483  0.00  0.00    +0.253 C 
ATOM     16  O   UNL     1     -11.859  16.368  69.220  0.00  0.00    -0.465 OA
ENDBRANCH   1  16
TORSDOF 1
ENDMDL
MODEL 9
REMARK VINA RESULT:      -5.7      1.773      4.239
REMARK  Name = 
REMARK  1 active torsions:
REMARK  status: ('A' for Active; 'I' for Inactive)
REMARK    1  A    between atoms: O_2  and  C_3
REMARK                            x       y       z     vdW  Elec       q    Type
REMARK                         _______ _______ _______ _____ _____    ______ ____
ROOT
ATOM      1  C   UNL     1     -11.937  15.441  69.503  0.00  0.00    +0.207 A 
ATOM      2  C   UNL     1     -11.192  16.223  68.634  0.00  0.00    +0.185 A 
ATOM      3  C   UNL     1     -10.981  15.759  67.345  0.00  0.00    +0.038 A 
ATOM      4  C   UNL     1     -10.371  16.590  66.422  0.00  0.00    +0.010 A 
ATOM      5  C   UNL     1      -9.959  17.817  66.910  0.00  0.00    +0.082 A 
ATOM      6  C   UNL     1     -10.025  18.115  68.262  0.00  0.00    +0.346 A 
ATOM      7  O   UNL     1      -9.799  19.310  68.587  0.00  0.00    -0.244 OA
ATOM      8  C   UNL     1     -11.412  14.482  67.020  0.00  0.00    +0.006 A 
ATOM      9  C   UNL     1     -11.796  13.590  68.015  0.00  0.00    +0.041 A 
ATOM     10  C   UNL     1     -11.583  12.229  68.197  0.00  0.00    +0.044 A 
ATOM     11  C   UNL     1     -11.646  11.957  69.559  0.00  0.00    +0.180 A 
ATOM     12  O   UNL     1     -12.215  13.029  70.083  0.00  0.00    -0.447 OA
ATOM     13  O   UNL     1     -10.633  17.300  69.105  0.00  0.00    -0.418 OA
ATOM     14  C   UNL     1     -12.024  14.070  69.298  0.00  0.00    +0.182 A 
ENDROOT
BRANCH   1  16
ATOM     15  C   UNL     1     -12.158  15.964  71.903  0.00  0.00    +0.253 C 
ATOM     16  O   UNL     1     -12.620  15.987  70.567  0.00  0.00    -0.465 OA
ENDBRANCH   1  16
TORSDOF 1
ENDMDL
