MODEL 1
REMARK VINA RESULT:      -5.6      0.000      0.000
REMARK  Name = 
REMARK  28 active torsions:
REMARK  status: ('A' for Active; 'I' for Inactive)
REMARK    1  A    between atoms: C_2  and  C_4
REMARK    2  A    between atoms: C_4  and  O_5
REMARK    3  A    between atoms: O_5  and  C_6
REMARK    4  A    between atoms: C_7  and  O_8
REMARK    5  A    between atoms: O_8  and  C_9
REMARK    6  A    between atoms: C_9  and  C_10
REMARK    7  A    between atoms: C_13  and  O_14
REMARK    8  A    between atoms: O_14  and  C_15
REMARK    9  A    between atoms: C_15  and  C_16
REMARK   10  A    between atoms: C_19  and  O_20
REMARK   11  A    between atoms: O_20  and  C_21
REMARK   12  A    between atoms: C_22  and  O_23
REMARK   13  A    between atoms: O_23  and  C_24
REMARK   14  A    between atoms: C_24  and  C_25
REMARK   15  A    between atoms: C_28  and  O_29
REMARK   16  A    between atoms: O_29  and  C_30
REMARK   17  A    between atoms: C_30  and  C_31
REMARK   18  A    between atoms: C_34  and  O_35
REMARK   19  A    between atoms: O_35  and  C_36
REMARK   20  A    between atoms: C_36  and  C_37
REMARK   21  A    between atoms: C_41  and  C_42
REMARK   22  A    between atoms: C_42  and  O_43
REMARK   23  A    between atoms: O_43  and  C_44
REMARK   24  A    between atoms: C_44  and  C_45
REMARK   25  A    between atoms: C_49  and  C_50
REMARK   26  A    between atoms: C_50  and  O_51
REMARK   27  A    between atoms: O_51  and  C_52
REMARK   28  A    between atoms: C_52  and  C_53
REMARK                            x       y       z     vdW  Elec       q    Type
REMARK                         _______ _______ _______ _____ _____    ______ ____
ROOT
ATOM      1  O   UNL     1      -9.637  14.651  68.078  0.00  0.00    -0.326 OA
ENDROOT
BRANCH   1   2
ATOM      2  C   UNL     1     -10.443  13.576  68.685  0.00  0.00    +0.177 C 
ATOM      3  C   UNL     1     -10.189  12.196  67.801  0.00  0.00    +0.177 C 
ATOM      4  O   UNL     1      -9.452  11.276  68.565  0.00  0.00    -0.326 OA
ATOM      5  C   UNL     1      -9.865  11.010  67.070  0.00  0.00    +0.266 C 
ATOM      6  C   UNL     1     -11.371  11.849  66.767  0.00  0.00    +0.201 C 
ATOM      7  C   UNL     1     -11.292  13.521  67.139  0.00  0.00    +0.177 C 
BRANCH   3   8
ATOM      8  C   UNL     1     -11.600  11.641  68.606  0.00  0.00    +0.174 C 
BRANCH   8   9
ATOM      9  O   UNL     1     -11.505  11.596  69.805  0.00  0.00    -0.348 OA
BRANCH   9  10
ATOM     10  C   UNL     1     -12.189  11.292  70.873  0.00  0.00    +0.175 C 
BRANCH  10  11
ATOM     11  C   UNL     1     -12.114   9.665  70.579  0.00  0.00    +0.181 C 
ATOM     12  O   UNL     1     -10.833   9.571  71.382  0.00  0.00    -0.220 OA
ATOM     13  C   UNL     1     -13.083   9.374  71.877  0.00  0.00    +0.038 C 
ENDBRANCH  10  11
ENDBRANCH   9  10
ENDBRANCH   8   9
ENDBRANCH   3   8
BRANCH   6  14
ATOM     14  O   UNL     1     -10.943  11.991  65.344  0.00  0.00    -0.346 OA
BRANCH  14  15
ATOM     15  C   UNL     1     -11.679  11.380  64.448  0.00  0.00    +0.175 C 
BRANCH  15  16
ATOM     16  C   UNL     1     -10.672  11.376  63.131  0.00  0.00    +0.181 C 
ATOM     17  O   UNL     1      -9.709  12.433  63.642  0.00  0.00    -0.220 OA
ATOM     18  C   UNL     1      -9.663  10.155  63.607  0.00  0.00    +0.038 C 
ENDBRANCH  15  16
ENDBRANCH  14  15
ENDBRANCH   6  14
BRANCH   7  19
ATOM     19  O   UNL     1     -10.175  13.946  66.248  0.00  0.00    -0.348 OA
BRANCH  19  20
ATOM     20  C   UNL     1     -10.338  14.828  65.426  0.00  0.00    +0.175 C 
BRANCH  20  21
ATOM     21  C   UNL     1     -11.615  15.783  65.348  0.00  0.00    +0.181 C 
ATOM     22  O   UNL     1     -10.939  16.643  64.278  0.00  0.00    -0.220 OA
ATOM     23  C   UNL     1     -12.366  14.838  64.221  0.00  0.00    +0.038 C 
ENDBRANCH  20  21
ENDBRANCH  19  20
ENDBRANCH   7  19
BRANCH   5  24
ATOM     24  O   UNL     1     -10.692   9.785  67.470  0.00  0.00    -0.326 OA
BRANCH  24  25
ATOM     25  C   UNL     1     -10.184   8.696  66.947  0.00  0.00    +0.178 C 
BRANCH  25  26
ATOM     26  C   UNL     1     -10.347   7.444  68.002  0.00  0.00    +0.182 C 
ATOM     27  O   UNL     1      -9.684   6.429  67.088  0.00  0.00    -0.220 OA
ATOM     28  C   UNL     1      -8.941   7.720  68.810  0.00  0.00    +0.038 C 
ENDBRANCH  25  26
ENDBRANCH  24  25
ENDBRANCH   5  24
ENDBRANCH   1   2
BRANCH   1  32
ATOM     29  C   UNL     1      -6.190  16.027  68.982  0.00  0.00    +0.174 C 
ATOM     30  C   UNL     1      -7.233  14.678  69.263  0.00  0.00    +0.177 C 
ATOM     31  O   UNL     1      -8.435  15.400  69.701  0.00  0.00    -0.326 OA
ATOM     32  C   UNL     1      -9.408  15.952  68.690  0.00  0.00    +0.266 C 
ATOM     33  C   UNL     1      -8.216  16.720  67.730  0.00  0.00    +0.201 C 
ATOM     34  C   UNL     1      -7.387  17.221  69.144  0.00  0.00    +0.177 C 
BRANCH  29  35
ATOM     35  O   UNL     1      -5.657  16.117  70.369  0.00  0.00    -0.348 OA
BRANCH  35  36
ATOM     36  C   UNL     1      -4.406  15.848  70.469  0.00  0.00    +0.175 C 
BRANCH  36  38
ATOM     37  C   UNL     1      -3.937  13.440  70.560  0.00  0.00    +0.038 C 
ATOM     38  C   UNL     1      -4.121  14.698  71.614  0.00  0.00    +0.181 C 
ATOM     39  O   UNL     1      -2.624  14.952  71.634  0.00  0.00    -0.220 OA
ENDBRANCH  36  38
ENDBRANCH  35  36
ENDBRANCH  29  35
BRANCH  33  40
ATOM     40  O   UNL     1      -9.079  17.944  67.709  0.00  0.00    -0.346 OA
BRANCH  40  41
ATOM     41  C   UNL     1      -9.182  18.460  66.465  0.00  0.00    +0.175 C 
BRANCH  41  42
ATOM     42  C   UNL     1     -10.414  19.541  66.396  0.00  0.00    +0.181 C 
ATOM     43  O   UNL     1     -11.161  18.857  67.530  0.00  0.00    -0.220 OA
ATOM     44  C   UNL     1      -9.639  20.561  67.434  0.00  0.00    +0.038 C 
ENDBRANCH  41  42
ENDBRANCH  40  41
ENDBRANCH  33  40
BRANCH  30  45
ATOM     45  C   UNL     1      -7.347  14.593  67.645  0.00  0.00    +0.174 C 
BRANCH  45  46
ATOM     46  O   UNL     1      -6.927  13.498  67.110  0.00  0.00    -0.348 OA
BRANCH  46  47
ATOM     47  C   UNL     1      -6.257  12.539  67.760  0.00  0.00    +0.175 C 
BRANCH  47  48
ATOM     48  C   UNL     1      -6.273  11.450  66.520  0.00  0.00    +0.181 C 
ATOM     49  O   UNL     1      -4.841  11.792  66.159  0.00  0.00    -0.220 OA
ATOM     50  C   UNL     1      -5.809  10.224  67.519  0.00  0.00    +0.038 C 
ENDBRANCH  47  48
ENDBRANCH  46  47
ENDBRANCH  45  46
ENDBRANCH  30  45
BRANCH  34  51
ATOM     51  O   UNL     1      -6.555  18.213  68.404  0.00  0.00    -0.348 OA
BRANCH  51  52
ATOM     52  C   UNL     1      -6.405  19.342  69.115  0.00  0.00    +0.175 C 
BRANCH  52  53
ATOM     53  C   UNL     1      -5.048  20.106  68.579  0.00  0.00    +0.181 C 
ATOM     54  O   UNL     1      -4.795  19.134  67.439  0.00  0.00    -0.220 OA
ATOM     55  C   UNL     1      -5.916  21.104  67.596  0.00  0.00    +0.038 C 
ENDBRANCH  52  53
ENDBRANCH  51  52
ENDBRANCH  34  51
ENDBRANCH   1  32
TORSDOF 28
ENDMDL
MODEL 2
REMARK VINA RESULT:      -5.5      1.926      6.157
REMARK  Name = 
REMARK  28 active torsions:
REMARK  status: ('A' for Active; 'I' for Inactive)
REMARK    1  A    between atoms: C_2  and  C_4
REMARK    2  A    between atoms: C_4  and  O_5
REMARK    3  A    between atoms: O_5  and  C_6
REMARK    4  A    between atoms: C_7  and  O_8
REMARK    5  A    between atoms: O_8  and  C_9
REMARK    6  A    between atoms: C_9  and  C_10
REMARK    7  A    between atoms: C_13  and  O_14
REMARK    8  A    between atoms: O_14  and  C_15
REMARK    9  A    between atoms: C_15  and  C_16
REMARK   10  A    between atoms: C_19  and  O_20
REMARK   11  A    between atoms: O_20  and  C_21
REMARK   12  A    between atoms: C_22  and  O_23
REMARK   13  A    between atoms: O_23  and  C_24
REMARK   14  A    between atoms: C_24  and  C_25
REMARK   15  A    between atoms: C_28  and  O_29
REMARK   16  A    between atoms: O_29  and  C_30
REMARK   17  A    between atoms: C_30  and  C_31
REMARK   18  A    between atoms: C_34  and  O_35
REMARK   19  A    between atoms: O_35  and  C_36
REMARK   20  A    between atoms: C_36  and  C_37
REMARK   21  A    between atoms: C_41  and  C_42
REMARK   22  A    between atoms: C_42  and  O_43
REMARK   23  A    between atoms: O_43  and  C_44
REMARK   24  A    between atoms: C_44  and  C_45
REMARK   25  A    between atoms: C_49  and  C_50
REMARK   26  A    between atoms: C_50  and  O_51
REMARK   27  A    between atoms: O_51  and  C_52
REMARK   28  A    between atoms: C_52  and  C_53
REMARK                            x       y       z     vdW  Elec       q    Type
REMARK                         _______ _______ _______ _____ _____    ______ ____
ROOT
ATOM      1  O   UNL     1      -8.258  13.750  67.840  0.00  0.00    -0.326 OA
ENDROOT
BRANCH   1   2
ATOM      2  C   UNL     1      -9.449  13.204  67.165  0.00  0.00    +0.177 C 
ATOM      3  C   UNL     1     -10.279  12.287  68.270  0.00  0.00    +0.177 C 
ATOM      4  O   UNL     1     -11.483  12.929  68.606  0.00  0.00    -0.326 OA
ATOM      5  C   UNL     1     -11.010  11.589  69.282  0.00  0.00    +0.266 C 
ATOM      6  C   UNL     1     -10.051  10.703  68.116  0.00  0.00    +0.201 C 
ATOM      7  C   UNL     1      -8.744  11.620  67.491  0.00  0.00    +0.177 C 
BRANCH   3   8
ATOM      8  C   UNL     1     -11.070  11.660  66.882  0.00  0.00    +0.174 C 
BRANCH   8   9
ATOM      9  O   UNL     1     -11.577  12.494  66.178  0.00  0.00    -0.348 OA
BRANCH   9  10
ATOM     10  C   UNL     1     -12.502  12.640  65.270  0.00  0.00    +0.175 C 
BRANCH  10  11
ATOM     11  C   UNL     1     -11.455  13.290  64.166  0.00  0.00    +0.181 C 
ATOM     12  O   UNL     1     -12.584  13.428  63.165  0.00  0.00    -0.220 OA
ATOM     13  C   UNL     1     -11.689  14.787  64.807  0.00  0.00    +0.038 C 
ENDBRANCH  10  11
ENDBRANCH   9  10
ENDBRANCH   8   9
ENDBRANCH   3   8
BRANCH   6  14
ATOM     14  O   UNL     1      -9.292  10.122  69.263  0.00  0.00    -0.346 OA
BRANCH  14  15
ATOM     15  C   UNL     1      -9.176   8.817  69.286  0.00  0.00    +0.175 C 
BRANCH  15  16
ATOM     16  C   UNL     1      -9.194   8.506  70.915  0.00  0.00    +0.181 C 
ATOM     17  O   UNL     1     -10.345   7.516  70.892  0.00  0.00    -0.220 OA
ATOM     18  C   UNL     1      -8.078   7.285  70.936  0.00  0.00    +0.038 C 
ENDBRANCH  15  16
ENDBRANCH  14  15
ENDBRANCH   6  14
BRANCH   7  19
ATOM     19  O   UNL     1      -8.014  11.947  68.748  0.00  0.00    -0.348 OA
BRANCH  19  20
ATOM     20  C   UNL     1      -6.867  11.576  68.914  0.00  0.00    +0.175 C 
BRANCH  20  21
ATOM     21  C   UNL     1      -5.974  11.905  70.195  0.00  0.00    +0.181 C 
ATOM     22  O   UNL     1      -6.460  10.634  70.894  0.00  0.00    -0.220 OA
ATOM     23  C   UNL     1      -4.644  11.146  69.577  0.00  0.00    +0.038 C 
ENDBRANCH  20  21
ENDBRANCH  19  20
ENDBRANCH   7  19
BRANCH   5  24
ATOM     24  O   UNL     1     -12.238  10.839  68.759  0.00  0.00    -0.326 OA
BRANCH  24  25
ATOM     25  C   UNL     1     -13.023  10.493  69.749  0.00  0.00    +0.178 C 
BRANCH  25  26
ATOM     26  C   UNL     1     -12.226  10.666  71.178  0.00  0.00    +0.182 C 
ATOM     27  O   UNL     1     -13.191  11.699  71.730  0.00  0.00    -0.220 OA
ATOM     28  C   UNL     1     -13.005   9.442  71.954  0.00  0.00    +0.038 C 
ENDBRANCH  25  26
ENDBRANCH  24  25
ENDBRANCH   5  24
ENDBRANCH   1   2
BRANCH   1  32
ATOM     29  C   UNL     1      -8.137  17.528  68.393  0.00  0.00    +0.174 C 
ATOM     30  C   UNL     1      -9.193  16.261  67.877  0.00  0.00    +0.177 C 
ATOM     31  O   UNL     1      -8.343  15.657  66.842  0.00  0.00    -0.326 OA
ATOM     32  C   UNL     1      -7.292  14.640  67.211  0.00  0.00    +0.266 C 
ATOM     33  C   UNL     1      -6.615  15.570  68.480  0.00  0.00    +0.201 C 
ATOM     34  C   UNL     1      -6.773  16.991  67.534  0.00  0.00    +0.177 C 
BRANCH  29  35
ATOM     35  O   UNL     1      -8.589  18.539  67.399  0.00  0.00    -0.348 OA
BRANCH  35  36
ATOM     36  C   UNL     1      -8.783  19.709  67.891  0.00  0.00    +0.175 C 
BRANCH  36  38
ATOM     37  C   UNL     1     -10.093  19.744  65.815  0.00  0.00    +0.038 C 
ATOM     38  C   UNL     1     -10.184  20.377  67.338  0.00  0.00    +0.181 C 
ATOM     39  O   UNL     1     -11.038  19.215  67.813  0.00  0.00    -0.220 OA
ENDBRANCH  36  38
ENDBRANCH  35  36
ENDBRANCH  29  35
BRANCH  33  40
ATOM     40  O   UNL     1      -5.257  15.261  67.928  0.00  0.00    -0.346 OA
BRANCH  40  41
ATOM     41  C   UNL     1      -4.417  14.821  68.889  0.00  0.00    +0.175 C 
BRANCH  41  42
ATOM     42  C   UNL     1      -3.031  14.253  68.219  0.00  0.00    +0.181 C 
ATOM     43  O   UNL     1      -3.785  13.559  67.096  0.00  0.00    -0.220 OA
ATOM     44  C   UNL     1      -2.842  15.629  67.331  0.00  0.00    +0.038 C 
ENDBRANCH  41  42
ENDBRANCH  40  41
ENDBRANCH  33  40
BRANCH  30  45
ATOM     45  C   UNL     1      -8.777  15.523  69.261  0.00  0.00    +0.174 C 
BRANCH  45  46
ATOM     46  O   UNL     1      -9.741  15.297  70.087  0.00  0.00    -0.348 OA
BRANCH  46  47
ATOM     47  C   UNL     1     -10.884  15.991  70.135  0.00  0.00    +0.175 C 
BRANCH  47  48
ATOM     48  C   UNL     1     -11.522  15.180  71.423  0.00  0.00    +0.181 C 
ATOM     49  O   UNL     1     -11.758  16.481  72.165  0.00  0.00    -0.220 OA
ATOM     50  C   UNL     1     -13.029  15.197  70.756  0.00  0.00    +0.038 C 
ENDBRANCH  47  48
ENDBRANCH  46  47
ENDBRANCH  45  46
ENDBRANCH  30  45
BRANCH  34  51
ATOM     51  O   UNL     1      -5.860  17.777  68.414  0.00  0.00    -0.348 OA
BRANCH  51  52
ATOM     52  C   UNL     1      -5.095  18.612  67.691  0.00  0.00    +0.175 C 
BRANCH  52  53
ATOM     53  C   UNL     1      -4.433  19.714  68.719  0.00  0.00    +0.181 C 
ATOM     54  O   UNL     1      -5.669  19.833  69.595  0.00  0.00    -0.220 OA
ATOM     55  C   UNL     1      -3.805  18.536  69.686  0.00  0.00    +0.038 C 
ENDBRANCH  52  53
ENDBRANCH  51  52
ENDBRANCH  34  51
ENDBRANCH   1  32
TORSDOF 28
ENDMDL
MODEL 3
REMARK VINA RESULT:      -5.5      2.559      8.713
REMARK  Name = 
REMARK  28 active torsions:
REMARK  status: ('A' for Active; 'I' for Inactive)
REMARK    1  A    between atoms: C_2  and  C_4
REMARK    2  A    between atoms: C_4  and  O_5
REMARK    3  A    between atoms: O_5  and  C_6
REMARK    4  A    between atoms: C_7  and  O_8
REMARK    5  A    between atoms: O_8  and  C_9
REMARK    6  A    between atoms: C_9  and  C_10
REMARK    7  A    between atoms: C_13  and  O_14
REMARK    8  A    between atoms: O_14  and  C_15
REMARK    9  A    between atoms: C_15  and  C_16
REMARK   10  A    between atoms: C_19  and  O_20
REMARK   11  A    between atoms: O_20  and  C_21
REMARK   12  A    between atoms: C_22  and  O_23
REMARK   13  A    between atoms: O_23  and  C_24
REMARK   14  A    between atoms: C_24  and  C_25
REMARK   15  A    between atoms: C_28  and  O_29
REMARK   16  A    between atoms: O_29  and  C_30
REMARK   17  A    between atoms: C_30  and  C_31
REMARK   18  A    between atoms: C_34  and  O_35
REMARK   19  A    between atoms: O_35  and  C_36
REMARK   20  A    between atoms: C_36  and  C_37
REMARK   21  A    between atoms: C_41  and  C_42
REMARK   22  A    between atoms: C_42  and  O_43
REMARK   23  A    between atoms: O_43  and  C_44
REMARK   24  A    between atoms: C_44  and  C_45
REMARK   25  A    between atoms: C_49  and  C_50
REMARK   26  A    between atoms: C_50  and  O_51
REMARK   27  A    between atoms: O_51  and  C_52
REMARK   28  A    between atoms: C_52  and  C_53
REMARK                            x       y       z     vdW  Elec       q    Type
REMARK                         _______ _______ _______ _____ _____    ______ ____
ROOT
ATOM      1  O   UNL     1     -10.386  10.949  67.810  0.00  0.00    -0.326 OA
ENDROOT
BRANCH   1   2
ATOM      2  C   UNL     1     -10.985  12.000  66.966  0.00  0.00    +0.177 C 
ATOM      3  C   UNL     1     -10.721  13.457  67.713  0.00  0.00    +0.177 C 
ATOM      4  O   UNL     1      -9.794  14.206  66.970  0.00  0.00    -0.326 OA
ATOM      5  C   UNL     1     -10.386  14.696  68.343  0.00  0.00    +0.266 C 
ATOM      6  C   UNL     1     -11.996  14.031  68.507  0.00  0.00    +0.201 C 
ATOM      7  C   UNL     1     -12.034  12.324  68.347  0.00  0.00    +0.177 C 
BRANCH   3   8
ATOM      8  C   UNL     1     -11.940  14.018  66.643  0.00  0.00    +0.174 C 
BRANCH   8   9
ATOM      9  O   UNL     1     -11.622  14.023  65.482  0.00  0.00    -0.348 OA
BRANCH   9  10
ATOM     10  C   UNL     1     -12.129  13.946  64.283  0.00  0.00    +0.175 C 
BRANCH  10  11
ATOM     11  C   UNL     1     -12.176  12.293  64.302  0.00  0.00    +0.181 C 
ATOM     12  O   UNL     1     -13.052  12.296  63.066  0.00  0.00    -0.220 OA
ATOM     13  C   UNL     1     -10.772  12.231  63.445  0.00  0.00    +0.038 C 
ENDBRANCH  10  11
ENDBRANCH   9  10
ENDBRANCH   8   9
ENDBRANCH   3   8
BRANCH   6  14
ATOM     14  O   UNL     1     -11.790  14.039  69.985  0.00  0.00    -0.346 OA
BRANCH  14  15
ATOM     15  C   UNL     1     -12.575  14.826  70.681  0.00  0.00    +0.175 C 
BRANCH  15  16
ATOM     16  C   UNL     1     -11.694  15.038  72.070  0.00  0.00    +0.181 C 
ATOM     17  O   UNL     1     -11.801  16.552  72.116  0.00  0.00    -0.220 OA
ATOM     18  C   UNL     1     -12.924  14.867  73.161  0.00  0.00    +0.038 C 
ENDBRANCH  15  16
ENDBRANCH  14  15
ENDBRANCH   6  14
BRANCH   7  19
ATOM     19  O   UNL     1     -11.103  11.927  69.441  0.00  0.00    -0.348 OA
BRANCH  19  20
ATOM     20  C   UNL     1     -11.444  11.116  70.282  0.00  0.00    +0.175 C 
BRANCH  20  21
ATOM     21  C   UNL     1     -12.928  10.558  70.469  0.00  0.00    +0.181 C 
ATOM     22  O   UNL     1     -12.406   9.360  71.264  0.00  0.00    -0.220 OA
ATOM     23  C   UNL     1     -13.188  11.448  71.836  0.00  0.00    +0.038 C 
ENDBRANCH  20  21
ENDBRANCH  19  20
ENDBRANCH   7  19
BRANCH   5  24
ATOM     24  O   UNL     1     -11.020  15.923  67.683  0.00  0.00    -0.326 OA
BRANCH  24  25
ATOM     25  C   UNL     1     -10.552  17.026  68.215  0.00  0.00    +0.178 C 
BRANCH  25  26
ATOM     26  C   UNL     1      -9.652  17.841  67.107  0.00  0.00    +0.182 C 
ATOM     27  O   UNL     1     -10.445  17.339  65.914  0.00  0.00    -0.220 OA
ATOM     28  C   UNL     1     -10.524  19.235  67.172  0.00  0.00    +0.038 C 
ENDBRANCH  25  26
ENDBRANCH  24  25
ENDBRANCH   5  24
ENDBRANCH   1   2
BRANCH   1  32
ATOM     29  C   UNL     1      -7.122   9.177  66.914  0.00  0.00    +0.174 C 
ATOM     30  C   UNL     1      -8.102  10.530  66.470  0.00  0.00    +0.177 C 
ATOM     31  O   UNL     1      -9.380   9.834  66.265  0.00  0.00    -0.326 OA
ATOM     32  C   UNL     1     -10.291   9.546  67.431  0.00  0.00    +0.266 C 
ATOM     33  C   UNL     1      -9.068   8.874  68.423  0.00  0.00    +0.201 C 
ATOM     34  C   UNL     1      -8.399   8.068  67.066  0.00  0.00    +0.177 C 
BRANCH  29  35
ATOM     35  O   UNL     1      -6.720   8.801  65.531  0.00  0.00    -0.348 OA
BRANCH  35  36
ATOM     36  C   UNL     1      -5.458   8.881  65.311  0.00  0.00    +0.175 C 
BRANCH  36  38
ATOM     37  C   UNL     1      -6.650   8.359  63.229  0.00  0.00    +0.038 C 
ATOM     38  C   UNL     1      -5.106   8.693  63.713  0.00  0.00    +0.181 C 
ATOM     39  O   UNL     1      -5.286  10.168  63.401  0.00  0.00    -0.220 OA
ENDBRANCH  36  38
ENDBRANCH  35  36
ENDBRANCH  29  35
BRANCH  33  40
ATOM     40  O   UNL     1      -9.998   7.742  68.734  0.00  0.00    -0.346 OA
BRANCH  40  41
ATOM     41  C   UNL     1      -9.965   7.415  70.044  0.00  0.00    +0.175 C 
BRANCH  41  42
ATOM     42  C   UNL     1     -11.048   6.226  70.363  0.00  0.00    +0.181 C 
ATOM     43  O   UNL     1     -11.411   6.075  68.894  0.00  0.00    -0.220 OA
ATOM     44  C   UNL     1      -9.878   5.069  70.261  0.00  0.00    +0.038 C 
ENDBRANCH  41  42
ENDBRANCH  40  41
ENDBRANCH  33  40
BRANCH  30  45
ATOM     45  C   UNL     1      -8.067  10.910  68.049  0.00  0.00    +0.174 C 
BRANCH  45  46
ATOM     46  O   UNL     1      -7.517  12.039  68.341  0.00  0.00    -0.348 OA
BRANCH  46  47
ATOM     47  C   UNL     1      -6.834  12.801  67.479  0.00  0.00    +0.175 C 
BRANCH  47  48
ATOM     48  C   UNL     1      -5.336  12.309  67.967  0.00  0.00    +0.181 C 
ATOM     49  O   UNL     1      -4.869  12.200  66.530  0.00  0.00    -0.220 OA
ATOM     50  C   UNL     1      -4.810  13.866  68.100  0.00  0.00    +0.038 C 
ENDBRANCH  47  48
ENDBRANCH  46  47
ENDBRANCH  45  46
ENDBRANCH  30  45
BRANCH  34  51
ATOM     51  O   UNL     1      -7.566   7.163  67.911  0.00  0.00    -0.348 OA
BRANCH  51  52
ATOM     52  C   UNL     1      -7.572   5.911  67.426  0.00  0.00    +0.175 C 
BRANCH  52  53
ATOM     53  C   UNL     1      -8.605   5.864  66.145  0.00  0.00    +0.181 C 
ATOM     54  O   UNL     1      -7.608   5.214  65.200  0.00  0.00    -0.220 OA
ATOM     55  C   UNL     1      -9.204   4.396  66.596  0.00  0.00    +0.038 C 
ENDBRANCH  52  53
ENDBRANCH  51  52
ENDBRANCH  34  51
ENDBRANCH   1  32
TORSDOF 28
ENDMDL
MODEL 4
REMARK VINA RESULT:      -5.5      3.490      7.554
REMARK  Name = 
REMARK  28 active torsions:
REMARK  status: ('A' for Active; 'I' for Inactive)
REMARK    1  A    between atoms: C_2  and  C_4
REMARK    2  A    between atoms: C_4  and  O_5
REMARK    3  A    between atoms: O_5  and  C_6
REMARK    4  A    between atoms: C_7  and  O_8
REMARK    5  A    between atoms: O_8  and  C_9
REMARK    6  A    between atoms: C_9  and  C_10
REMARK    7  A    between atoms: C_13  and  O_14
REMARK    8  A    between atoms: O_14  and  C_15
REMARK    9  A    between atoms: C_15  and  C_16
REMARK   10  A    between atoms: C_19  and  O_20
REMARK   11  A    between atoms: O_20  and  C_21
REMARK   12  A    between atoms: C_22  and  O_23
REMARK   13  A    between atoms: O_23  and  C_24
REMARK   14  A    between atoms: C_24  and  C_25
REMARK   15  A    between atoms: C_28  and  O_29
REMARK   16  A    between atoms: O_29  and  C_30
REMARK   17  A    between atoms: C_30  and  C_31
REMARK   18  A    between atoms: C_34  and  O_35
REMARK   19  A    between atoms: O_35  and  C_36
REMARK   20  A    between atoms: C_36  and  C_37
REMARK   21  A    between atoms: C_41  and  C_42
REMARK   22  A    between atoms: C_42  and  O_43
REMARK   23  A    between atoms: O_43  and  C_44
REMARK   24  A    between atoms: C_44  and  C_45
REMARK   25  A    between atoms: C_49  and  C_50
REMARK   26  A    between atoms: C_50  and  O_51
REMARK   27  A    between atoms: O_51  and  C_52
REMARK   28  A    between atoms: C_52  and  C_53
REMARK                            x       y       z     vdW  Elec       q    Type
REMARK                         _______ _______ _______ _____ _____    ______ ____
ROOT
ATOM      1  O   UNL     1     -10.467   8.707  68.124  0.00  0.00    -0.326 OA
ENDROOT
BRANCH   1   2
ATOM      2  C   UNL     1     -11.265   7.979  69.127  0.00  0.00    +0.177 C 
ATOM      3  C   UNL     1     -10.217   7.357  70.252  0.00  0.00    +0.177 C 
ATOM      4  O   UNL     1     -10.377   8.035  71.471  0.00  0.00    -0.326 OA
ATOM      5  C   UNL     1      -9.285   6.924  71.246  0.00  0.00    +0.266 C 
ATOM      6  C   UNL     1      -9.899   5.792  70.062  0.00  0.00    +0.201 C 
ATOM      7  C   UNL     1     -10.378   6.548  68.600  0.00  0.00    +0.177 C 
BRANCH   3   8
ATOM      8  C   UNL     1     -11.556   6.377  70.689  0.00  0.00    +0.174 C 
BRANCH   8   9
ATOM      9  O   UNL     1     -12.514   6.989  71.083  0.00  0.00    -0.348 OA
BRANCH   9  10
ATOM     10  C   UNL     1     -13.539   6.879  71.882  0.00  0.00    +0.175 C 
BRANCH  10  11
ATOM     11  C   UNL     1     -14.277   8.233  71.283  0.00  0.00    +0.181 C 
ATOM     12  O   UNL     1     -15.427   8.044  72.252  0.00  0.00    -0.220 OA
ATOM     13  C   UNL     1     -13.412   9.176  72.317  0.00  0.00    +0.038 C 
ENDBRANCH  10  11
ENDBRANCH   9  10
ENDBRANCH   8   9
ENDBRANCH   3   8
BRANCH   6  14
ATOM     14  O   UNL     1      -8.488   5.543  69.648  0.00  0.00    -0.346 OA
BRANCH  14  15
ATOM     15  C   UNL     1      -8.029   4.329  69.834  0.00  0.00    +0.175 C 
BRANCH  15  16
ATOM     16  C   UNL     1      -9.433   3.457  69.980  0.00  0.00    +0.181 C 
ATOM     17  O   UNL     1      -9.158   2.489  68.843  0.00  0.00    -0.220 OA
ATOM     18  C   UNL     1      -8.917   2.361  71.105  0.00  0.00    +0.038 C 
ENDBRANCH  15  16
ENDBRANCH  14  15
ENDBRANCH   6  14
BRANCH   7  19
ATOM     19  O   UNL     1      -9.100   7.203  68.201  0.00  0.00    -0.348 OA
BRANCH  19  20
ATOM     20  C   UNL     1      -8.543   6.897  67.163  0.00  0.00    +0.175 C 
BRANCH  20  21
ATOM     21  C   UNL     1      -9.155   5.939  66.043  0.00  0.00    +0.181 C 
ATOM     22  O   UNL     1      -8.331   6.636  64.959  0.00  0.00    -0.220 OA
ATOM     23  C   UNL     1      -8.004   4.778  66.277  0.00  0.00    +0.038 C 
ENDBRANCH  20  21
ENDBRANCH  19  20
ENDBRANCH   7  19
BRANCH   5  24
ATOM     24  O   UNL     1      -9.899   6.037  72.333  0.00  0.00    -0.326 OA
BRANCH  24  25
ATOM     25  C   UNL     1      -9.054   5.865  73.319  0.00  0.00    +0.178 C 
BRANCH  25  26
ATOM     26  C   UNL     1      -9.578   4.649  74.295  0.00  0.00    +0.182 C 
ATOM     27  O   UNL     1     -10.240   5.575  75.298  0.00  0.00    -0.220 OA
ATOM     28  C   UNL     1     -10.999   4.398  73.504  0.00  0.00    +0.038 C 
ENDBRANCH  25  26
ENDBRANCH  24  25
ENDBRANCH   5  24
ENDBRANCH   1   2
BRANCH   1  32
ATOM     29  C   UNL     1     -10.095  12.507  68.013  0.00  0.00    +0.174 C 
ATOM     30  C   UNL     1     -10.659  11.225  69.024  0.00  0.00    +0.177 C 
ATOM     31  O   UNL     1     -11.563  10.561  68.074  0.00  0.00    -0.326 OA
ATOM     32  C   UNL     1     -11.031   9.556  67.084  0.00  0.00    +0.266 C 
ATOM     33  C   UNL     1      -9.744  10.545  66.536  0.00  0.00    +0.201 C 
ATOM     34  C   UNL     1     -10.772  11.916  66.572  0.00  0.00    +0.177 C 
BRANCH  29  35
ATOM     35  O   UNL     1     -11.182  13.470  68.341  0.00  0.00    -0.348 OA
BRANCH  35  36
ATOM     36  C   UNL     1     -10.768  14.580  68.834  0.00  0.00    +0.175 C 
BRANCH  36  38
ATOM     37  C   UNL     1     -11.499  15.942  70.742  0.00  0.00    +0.038 C 
ATOM     38  C   UNL     1     -12.021  15.579  69.217  0.00  0.00    +0.181 C 
ATOM     39  O   UNL     1     -11.339  16.810  68.647  0.00  0.00    -0.220 OA
ENDBRANCH  36  38
ENDBRANCH  35  36
ENDBRANCH  29  35
BRANCH  33  40
ATOM     40  O   UNL     1     -10.128  10.196  65.131  0.00  0.00    -0.346 OA
BRANCH  40  41
ATOM     41  C   UNL     1      -9.051   9.864  64.388  0.00  0.00    +0.175 C 
BRANCH  41  42
ATOM     42  C   UNL     1      -9.434   9.871  62.793  0.00  0.00    +0.181 C 
ATOM     43  O   UNL     1      -8.923  11.292  62.612  0.00  0.00    -0.220 OA
ATOM     44  C   UNL     1      -7.972   9.224  62.391  0.00  0.00    +0.038 C 
ENDBRANCH  41  42
ENDBRANCH  40  41
ENDBRANCH  33  40
BRANCH  30  45
ATOM     45  C   UNL     1      -9.202  10.555  68.771  0.00  0.00    +0.174 C 
BRANCH  45  46
ATOM     46  O   UNL     1      -8.515  10.292  69.830  0.00  0.00    -0.348 OA
BRANCH  46  47
ATOM     47  C   UNL     1      -7.260   9.829  69.830  0.00  0.00    +0.175 C 
BRANCH  47  48
ATOM     48  C   UNL     1      -6.543  11.282  69.517  0.00  0.00    +0.181 C 
ATOM     49  O   UNL     1      -6.031  11.372  70.941  0.00  0.00    -0.220 OA
ATOM     50  C   UNL     1      -5.165  10.550  68.987  0.00  0.00    +0.038 C 
ENDBRANCH  47  48
ENDBRANCH  46  47
ENDBRANCH  45  46
ENDBRANCH  30  45
BRANCH  34  51
ATOM     51  O   UNL     1      -9.838  12.739  65.748  0.00  0.00    -0.348 OA
BRANCH  51  52
ATOM     52  C   UNL     1     -10.513  13.514  64.884  0.00  0.00    +0.175 C 
BRANCH  52  53
ATOM     53  C   UNL     1     -12.096  13.065  64.925  0.00  0.00    +0.181 C 
ATOM     54  O   UNL     1     -12.630  14.444  64.577  0.00  0.00    -0.220 OA
ATOM     55  C   UNL     1     -12.081  12.619  63.338  0.00  0.00    +0.038 C 
ENDBRANCH  52  53
ENDBRANCH  51  52
ENDBRANCH  34  51
ENDBRANCH   1  32
TORSDOF 28
ENDMDL
MODEL 5
REMARK VINA RESULT:      -5.5      2.207      8.645
REMARK  Name = 
REMARK  28 active torsions:
REMARK  status: ('A' for Active; 'I' for Inactive)
REMARK    1  A    between atoms: C_2  and  C_4
REMARK    2  A    between atoms: C_4  and  O_5
REMARK    3  A    between atoms: O_5  and  C_6
REMARK    4  A    between atoms: C_7  and  O_8
REMARK    5  A    between atoms: O_8  and  C_9
REMARK    6  A    between atoms: C_9  and  C_10
REMARK    7  A    between atoms: C_13  and  O_14
REMARK    8  A    between atoms: O_14  and  C_15
REMARK    9  A    between atoms: C_15  and  C_16
REMARK   10  A    between atoms: C_19  and  O_20
REMARK   11  A    between atoms: O_20  and  C_21
REMARK   12  A    between atoms: C_22  and  O_23
REMARK   13  A    between atoms: O_23  and  C_24
REMARK   14  A    between atoms: C_24  and  C_25
REMARK   15  A    between atoms: C_28  and  O_29
REMARK   16  A    between atoms: O_29  and  C_30
REMARK   17  A    between atoms: C_30  and  C_31
REMARK   18  A    between atoms: C_34  and  O_35
REMARK   19  A    between atoms: O_35  and  C_36
REMARK   20  A    between atoms: C_36  and  C_37
REMARK   21  A    between atoms: C_41  and  C_42
REMARK   22  A    between atoms: C_42  and  O_43
REMARK   23  A    between atoms: O_43  and  C_44
REMARK   24  A    between atoms: C_44  and  C_45
REMARK   25  A    between atoms: C_49  and  C_50
REMARK   26  A    between atoms: C_50  and  O_51
REMARK   27  A    between atoms: O_51  and  C_52
REMARK   28  A    between atoms: C_52  and  C_53
REMARK                            x       y       z     vdW  Elec       q    Type
REMARK                         _______ _______ _______ _____ _____    ______ ____
ROOT
ATOM      1  O   UNL     1     -10.234  10.905  67.939  0.00  0.00    -0.326 OA
ENDROOT
BRANCH   1   2
ATOM      2  C   UNL     1     -10.832  12.009  67.167  0.00  0.00    +0.177 C 
ATOM      3  C   UNL     1     -10.641  13.401  68.048  0.00  0.00    +0.177 C 
ATOM      4  O   UNL     1      -9.709  14.238  67.413  0.00  0.00    -0.326 OA
ATOM      5  C   UNL     1     -10.368  14.588  68.798  0.00  0.00    +0.266 C 
ATOM      6  C   UNL     1     -11.963  13.868  68.837  0.00  0.00    +0.201 C 
ATOM      7  C   UNL     1     -11.943  12.183  68.526  0.00  0.00    +0.177 C 
BRANCH   3   8
ATOM      8  C   UNL     1     -11.834  14.022  66.982  0.00  0.00    +0.174 C 
BRANCH   8   9
ATOM      9  O   UNL     1     -11.558  13.928  65.815  0.00  0.00    -0.348 OA
BRANCH   9  10
ATOM     10  C   UNL     1     -11.923  14.360  64.640  0.00  0.00    +0.175 C 
BRANCH  10  11
ATOM     11  C   UNL     1     -12.366  12.854  64.115  0.00  0.00    +0.181 C 
ATOM     12  O   UNL     1     -12.740  13.428  62.763  0.00  0.00    -0.220 OA
ATOM     13  C   UNL     1     -10.811  12.538  63.676  0.00  0.00    +0.038 C 
ENDBRANCH  10  11
ENDBRANCH   9  10
ENDBRANCH   8   9
ENDBRANCH   3   8
BRANCH   6  14
ATOM     14  O   UNL     1     -11.815  13.751  70.317  0.00  0.00    -0.346 OA
BRANCH  14  15
ATOM     15  C   UNL     1     -12.746  14.319  71.044  0.00  0.00    +0.175 C 
BRANCH  15  16
ATOM     16  C   UNL     1     -11.855  14.970  72.283  0.00  0.00    +0.181 C 
ATOM     17  O   UNL     1     -11.793  16.383  71.731  0.00  0.00    -0.220 OA
ATOM     18  C   UNL     1     -13.103  15.365  73.293  0.00  0.00    +0.038 C 
ENDBRANCH  15  16
ENDBRANCH  14  15
ENDBRANCH   6  14
BRANCH   7  19
ATOM     19  O   UNL     1     -11.044  11.715  69.619  0.00  0.00    -0.348 OA
BRANCH  19  20
ATOM     20  C   UNL     1     -11.434  10.906  70.440  0.00  0.00    +0.175 C 
BRANCH  20  21
ATOM     21  C   UNL     1     -12.886  10.244  70.456  0.00  0.00    +0.181 C 
ATOM     22  O   UNL     1     -12.330   8.975  71.105  0.00  0.00    -0.220 OA
ATOM     23  C   UNL     1     -13.274  10.910  71.917  0.00  0.00    +0.038 C 
ENDBRANCH  20  21
ENDBRANCH  19  20
ENDBRANCH   7  19
BRANCH   5  24
ATOM     24  O   UNL     1     -11.013  15.852  68.222  0.00  0.00    -0.326 OA
BRANCH  24  25
ATOM     25  C   UNL     1     -10.444  16.925  68.715  0.00  0.00    +0.178 C 
BRANCH  25  26
ATOM     26  C   UNL     1      -9.869  17.862  67.492  0.00  0.00    +0.182 C 
ATOM     27  O   UNL     1     -10.914  18.949  67.670  0.00  0.00    -0.220 OA
ATOM     28  C   UNL     1      -8.777  18.683  68.408  0.00  0.00    +0.038 C 
ENDBRANCH  25  26
ENDBRANCH  24  25
ENDBRANCH   5  24
ENDBRANCH   1   2
BRANCH   1  32
ATOM     29  C   UNL     1      -6.785   9.413  67.251  0.00  0.00    +0.174 C 
ATOM     30  C   UNL     1      -7.790  10.761  66.850  0.00  0.00    +0.177 C 
ATOM     31  O   UNL     1      -8.990  10.035  66.412  0.00  0.00    -0.326 OA
ATOM     32  C   UNL     1     -10.010   9.564  67.417  0.00  0.00    +0.266 C 
ATOM     33  C   UNL     1      -8.870   8.836  68.467  0.00  0.00    +0.201 C 
ATOM     34  C   UNL     1      -8.000   8.233  67.118  0.00  0.00    +0.177 C 
BRANCH  29  35
ATOM     35  O   UNL     1      -6.204   9.227  65.894  0.00  0.00    -0.348 OA
BRANCH  35  36
ATOM     36  C   UNL     1      -4.921   9.211  65.870  0.00  0.00    +0.175 C 
BRANCH  36  38
ATOM     37  C   UNL     1      -5.732  10.206  63.777  0.00  0.00    +0.038 C 
ATOM     38  C   UNL     1      -4.324  10.127  64.638  0.00  0.00    +0.181 C 
ATOM     39  O   UNL     1      -4.631  11.439  65.337  0.00  0.00    -0.220 OA
ENDBRANCH  36  38
ENDBRANCH  35  36
ENDBRANCH  29  35
BRANCH  33  40
ATOM     40  O   UNL     1      -9.758   7.631  68.530  0.00  0.00    -0.346 OA
BRANCH  40  41
ATOM     41  C   UNL     1      -9.831   7.132  69.782  0.00  0.00    +0.175 C 
BRANCH  41  42
ATOM     42  C   UNL     1     -10.934   5.919  69.849  0.00  0.00    +0.181 C 
ATOM     43  O   UNL     1     -11.127   5.926  68.341  0.00  0.00    -0.220 OA
ATOM     44  C   UNL     1      -9.751   4.775  69.758  0.00  0.00    +0.038 C 
ENDBRANCH  41  42
ENDBRANCH  40  41
ENDBRANCH  33  40
BRANCH  30  45
ATOM     45  C   UNL     1      -7.961  10.948  68.453  0.00  0.00    +0.174 C 
BRANCH  45  46
ATOM     46  O   UNL     1      -7.561  12.077  68.932  0.00  0.00    -0.348 OA
BRANCH  46  47
ATOM     47  C   UNL     1      -6.570  12.815  68.419  0.00  0.00    +0.175 C 
BRANCH  47  48
ATOM     48  C   UNL     1      -6.485  13.881  69.675  0.00  0.00    +0.181 C 
ATOM     49  O   UNL     1      -5.753  12.866  70.529  0.00  0.00    -0.220 OA
ATOM     50  C   UNL     1      -5.080  14.526  69.103  0.00  0.00    +0.038 C 
ENDBRANCH  47  48
ENDBRANCH  46  47
ENDBRANCH  45  46
ENDBRANCH  30  45
BRANCH  34  51
ATOM     51  O   UNL     1      -7.216   7.274  67.948  0.00  0.00    -0.348 OA
BRANCH  51  52
ATOM     52  C   UNL     1      -6.984   6.134  67.278  0.00  0.00    +0.175 C 
BRANCH  52  53
ATOM     53  C   UNL     1      -7.976   6.104  65.964  0.00  0.00    +0.181 C 
ATOM     54  O   UNL     1      -6.911   5.590  65.010  0.00  0.00    -0.220 OA
ATOM     55  C   UNL     1      -8.482   4.570  66.298  0.00  0.00    +0.038 C 
ENDBRANCH  52  53
ENDBRANCH  51  52
ENDBRANCH  34  51
ENDBRANCH   1  32
TORSDOF 28
ENDMDL
MODEL 6
REMARK VINA RESULT:      -5.4      2.124      5.018
REMARK  Name = 
REMARK  28 active torsions:
REMARK  status: ('A' for Active; 'I' for Inactive)
REMARK    1  A    between atoms: C_2  and  C_4
REMARK    2  A    between atoms: C_4  and  O_5
REMARK    3  A    between atoms: O_5  and  C_6
REMARK    4  A    between atoms: C_7  and  O_8
REMARK    5  A    between atoms: O_8  and  C_9
REMARK    6  A    between atoms: C_9  and  C_10
REMARK    7  A    between atoms: C_13  and  O_14
REMARK    8  A    between atoms: O_14  and  C_15
REMARK    9  A    between atoms: C_15  and  C_16
REMARK   10  A    between atoms: C_19  and  O_20
REMARK   11  A    between atoms: O_20  and  C_21
REMARK   12  A    between atoms: C_22  and  O_23
REMARK   13  A    between atoms: O_23  and  C_24
REMARK   14  A    between atoms: C_24  and  C_25
REMARK   15  A    between atoms: C_28  and  O_29
REMARK   16  A    between atoms: O_29  and  C_30
REMARK   17  A    between atoms: C_30  and  C_31
REMARK   18  A    between atoms: C_34  and  O_35
REMARK   19  A    between atoms: O_35  and  C_36
REMARK   20  A    between atoms: C_36  and  C_37
REMARK   21  A    between atoms: C_41  and  C_42
REMARK   22  A    between atoms: C_42  and  O_43
REMARK   23  A    between atoms: O_43  and  C_44
REMARK   24  A    between atoms: C_44  and  C_45
REMARK   25  A    between atoms: C_49  and  C_50
REMARK   26  A    between atoms: C_50  and  O_51
REMARK   27  A    between atoms: O_51  and  C_52
REMARK   28  A    between atoms: C_52  and  C_53
REMARK                            x       y       z     vdW  Elec       q    Type
REMARK                         _______ _______ _______ _____ _____    ______ ____
ROOT
ATOM      1  O   UNL     1      -9.581  13.251  67.435  0.00  0.00    -0.326 OA
ENDROOT
BRANCH   1   2
ATOM      2  C   UNL     1      -9.445  11.907  68.024  0.00  0.00    +0.177 C 
ATOM      3  C   UNL     1      -8.511  10.999  66.998  0.00  0.00    +0.177 C 
ATOM      4  O   UNL     1      -7.264  10.748  67.593  0.00  0.00    -0.326 OA
ATOM      5  C   UNL     1      -7.623  10.286  66.131  0.00  0.00    +0.266 C 
ATOM      6  C   UNL     1      -9.346   9.988  66.066  0.00  0.00    +0.201 C 
ATOM      7  C   UNL     1     -10.277  11.334  66.578  0.00  0.00    +0.177 C 
BRANCH   3   8
ATOM      8  C   UNL     1      -9.137   9.675  67.893  0.00  0.00    +0.174 C 
BRANCH   8   9
ATOM      9  O   UNL     1      -8.828   9.670  69.056  0.00  0.00    -0.348 OA
BRANCH   9  10
ATOM     10  C   UNL     1      -9.185   9.167  70.205  0.00  0.00    +0.175 C 
BRANCH  10  11
ATOM     11  C   UNL     1     -10.737   8.877  69.708  0.00  0.00    +0.181 C 
ATOM     12  O   UNL     1     -10.734   7.553  70.445  0.00  0.00    -0.220 OA
ATOM     13  C   UNL     1     -11.319   9.721  70.996  0.00  0.00    +0.038 C 
ENDBRANCH  10  11
ENDBRANCH   9  10
ENDBRANCH   8   9
ENDBRANCH   3   8
BRANCH   6  14
ATOM     14  O   UNL     1      -9.303  10.374  64.625  0.00  0.00    -0.346 OA
BRANCH  14  15
ATOM     15  C   UNL     1      -9.348   9.394  63.756  0.00  0.00    +0.175 C 
BRANCH  15  16
ATOM     16  C   UNL     1      -9.419  10.220  62.320  0.00  0.00    +0.181 C 
ATOM     17  O   UNL     1      -8.012  10.788  62.375  0.00  0.00    -0.220 OA
ATOM     18  C   UNL     1      -8.940   8.996  61.317  0.00  0.00    +0.038 C 
ENDBRANCH  15  16
ENDBRANCH  14  15
ENDBRANCH   6  14
BRANCH   7  19
ATOM     19  O   UNL     1      -9.808  12.372  65.616  0.00  0.00    -0.348 OA
BRANCH  19  20
ATOM     20  C   UNL     1     -10.575  12.863  64.810  0.00  0.00    +0.175 C 
BRANCH  20  21
ATOM     21  C   UNL     1     -12.167  12.842  64.929  0.00  0.00    +0.181 C 
ATOM     22  O   UNL     1     -12.260  14.227  64.288  0.00  0.00    -0.220 OA
ATOM     23  C   UNL     1     -12.357  12.076  63.478  0.00  0.00    +0.038 C 
ENDBRANCH  20  21
ENDBRANCH  19  20
ENDBRANCH   7  19
BRANCH   5  24
ATOM     24  O   UNL     1      -7.438   8.813  66.504  0.00  0.00    -0.326 OA
BRANCH  24  25
ATOM     25  C   UNL     1      -6.439   8.291  65.836  0.00  0.00    +0.178 C 
BRANCH  25  26
ATOM     26  C   UNL     1      -5.811   9.411  64.808  0.00  0.00    +0.182 C 
ATOM     27  O   UNL     1      -4.374   9.174  65.234  0.00  0.00    -0.220 OA
ATOM     28  C   UNL     1      -5.657   8.393  63.524  0.00  0.00    +0.038 C 
ENDBRANCH  25  26
ENDBRANCH  24  25
ENDBRANCH   5  24
ENDBRANCH   1   2
BRANCH   1  32
ATOM     29  C   UNL     1      -9.712  16.945  68.402  0.00  0.00    +0.174 C 
ATOM     30  C   UNL     1     -10.519  15.762  67.434  0.00  0.00    +0.177 C 
ATOM     31  O   UNL     1      -9.366  15.256  66.676  0.00  0.00    -0.326 OA
ATOM     32  C   UNL     1      -8.478  14.185  67.257  0.00  0.00    +0.266 C 
ATOM     33  C   UNL     1      -8.269  14.960  68.770  0.00  0.00    +0.201 C 
ATOM     34  C   UNL     1      -8.133  16.477  67.984  0.00  0.00    +0.177 C 
BRANCH  29  35
ATOM     35  O   UNL     1      -9.830  18.066  67.430  0.00  0.00    -0.348 OA
BRANCH  35  36
ATOM     36  C   UNL     1     -10.163  19.187  67.960  0.00  0.00    +0.175 C 
BRANCH  36  38
ATOM     37  C   UNL     1      -8.490  19.759  66.256  0.00  0.00    +0.038 C 
ATOM     38  C   UNL     1      -9.806  20.456  66.972  0.00  0.00    +0.181 C 
ATOM     39  O   UNL     1     -10.718  19.972  65.860  0.00  0.00    -0.220 OA
ENDBRANCH  36  38
ENDBRANCH  35  36
ENDBRANCH  29  35
BRANCH  33  40
ATOM     40  O   UNL     1      -6.801  14.685  68.663  0.00  0.00    -0.346 OA
BRANCH  40  41
ATOM     41  C   UNL     1      -6.399  13.766  69.567  0.00  0.00    +0.175 C 
BRANCH  41  42
ATOM     42  C   UNL     1      -5.733  14.503  70.873  0.00  0.00    +0.181 C 
ATOM     43  O   UNL     1      -5.716  13.210  71.673  0.00  0.00    -0.220 OA
ATOM     44  C   UNL     1      -4.209  14.246  70.299  0.00  0.00    +0.038 C 
ENDBRANCH  41  42
ENDBRANCH  40  41
ENDBRANCH  33  40
BRANCH  30  45
ATOM     45  C   UNL     1     -10.567  14.871  68.791  0.00  0.00    +0.174 C 
BRANCH  45  46
ATOM     46  O   UNL     1     -11.744  14.599  69.241  0.00  0.00    -0.348 OA
BRANCH  46  47
ATOM     47  C   UNL     1     -12.023  14.290  70.512  0.00  0.00    +0.175 C 
BRANCH  47  48
ATOM     48  C   UNL     1     -12.181  15.847  71.035  0.00  0.00    +0.181 C 
ATOM     49  O   UNL     1     -13.677  15.672  71.203  0.00  0.00    -0.220 OA
ATOM     50  C   UNL     1     -11.878  15.411  72.595  0.00  0.00    +0.038 C 
ENDBRANCH  47  48
ENDBRANCH  46  47
ENDBRANCH  45  46
ENDBRANCH  30  45
BRANCH  34  51
ATOM     51  O   UNL     1      -7.572  17.145  69.194  0.00  0.00    -0.348 OA
BRANCH  51  52
ATOM     52  C   UNL     1      -6.514  17.909  68.875  0.00  0.00    +0.175 C 
BRANCH  52  53
ATOM     53  C   UNL     1      -6.736  19.395  69.550  0.00  0.00    +0.181 C 
ATOM     54  O   UNL     1      -5.723  19.183  70.662  0.00  0.00    -0.220 OA
ATOM     55  C   UNL     1      -5.595  20.082  68.579  0.00  0.00    +0.038 C 
ENDBRANCH  52  53
ENDBRANCH  51  52
ENDBRANCH  34  51
ENDBRANCH   1  32
TORSDOF 28
ENDMDL
MODEL 7
REMARK VINA RESULT:      -5.3      3.253      7.594
REMARK  Name = 
REMARK  28 active torsions:
REMARK  status: ('A' for Active; 'I' for Inactive)
REMARK    1  A    between atoms: C_2  and  C_4
REMARK    2  A    between atoms: C_4  and  O_5
REMARK    3  A    between atoms: O_5  and  C_6
REMARK    4  A    between atoms: C_7  and  O_8
REMARK    5  A    between atoms: O_8  and  C_9
REMARK    6  A    between atoms: C_9  and  C_10
REMARK    7  A    between atoms: C_13  and  O_14
REMARK    8  A    between atoms: O_14  and  C_15
REMARK    9  A    between atoms: C_15  and  C_16
REMARK   10  A    between atoms: C_19  and  O_20
REMARK   11  A    between atoms: O_20  and  C_21
REMARK   12  A    between atoms: C_22  and  O_23
REMARK   13  A    between atoms: O_23  and  C_24
REMARK   14  A    between atoms: C_24  and  C_25
REMARK   15  A    between atoms: C_28  and  O_29
REMARK   16  A    between atoms: O_29  and  C_30
REMARK   17  A    between atoms: C_30  and  C_31
REMARK   18  A    between atoms: C_34  and  O_35
REMARK   19  A    between atoms: O_35  and  C_36
REMARK   20  A    between atoms: C_36  and  C_37
REMARK   21  A    between atoms: C_41  and  C_42
REMARK   22  A    between atoms: C_42  and  O_43
REMARK   23  A    between atoms: O_43  and  C_44
REMARK   24  A    between atoms: C_44  and  C_45
REMARK   25  A    between atoms: C_49  and  C_50
REMARK   26  A    between atoms: C_50  and  O_51
REMARK   27  A    between atoms: O_51  and  C_52
REMARK   28  A    between atoms: C_52  and  C_53
REMARK                            x       y       z     vdW  Elec       q    Type
REMARK                         _______ _______ _______ _____ _____    ______ ____
ROOT
ATOM      1  O   UNL     1      -9.977   8.992  68.297  0.00  0.00    -0.326 OA
ENDROOT
BRANCH   1   2
ATOM      2  C   UNL     1     -10.608   8.480  69.527  0.00  0.00    +0.177 C 
ATOM      3  C   UNL     1      -9.412   8.274  70.659  0.00  0.00    +0.177 C 
ATOM      4  O   UNL     1      -9.559   9.228  71.678  0.00  0.00    -0.326 OA
ATOM      5  C   UNL     1      -8.364   8.205  71.629  0.00  0.00    +0.266 C 
ATOM      6  C   UNL     1      -8.929   6.750  70.838  0.00  0.00    +0.201 C 
ATOM      7  C   UNL     1      -9.602   7.050  69.289  0.00  0.00    +0.177 C 
BRANCH   3   8
ATOM      8  C   UNL     1     -10.591   7.321  71.464  0.00  0.00    +0.174 C 
BRANCH   8   9
ATOM      9  O   UNL     1     -11.628   7.892  71.684  0.00  0.00    -0.348 OA
BRANCH   9  10
ATOM     10  C   UNL     1     -12.546   8.023  72.600  0.00  0.00    +0.175 C 
BRANCH  10  11
ATOM     11  C   UNL     1     -13.662   8.624  71.536  0.00  0.00    +0.181 C 
ATOM     12  O   UNL     1     -14.686   8.715  72.649  0.00  0.00    -0.220 OA
ATOM     13  C   UNL     1     -13.093  10.148  71.781  0.00  0.00    +0.038 C 
ENDBRANCH  10  11
ENDBRANCH   9  10
ENDBRANCH   8   9
ENDBRANCH   3   8
BRANCH   6  14
ATOM     14  O   UNL     1      -7.533   6.535  70.357  0.00  0.00    -0.346 OA
BRANCH  14  15
ATOM     15  C   UNL     1      -6.922   5.463  70.799  0.00  0.00    +0.175 C 
BRANCH  15  16
ATOM     16  C   UNL     1      -8.197   4.539  71.321  0.00  0.00    +0.181 C 
ATOM     17  O   UNL     1      -7.871   3.308  70.495  0.00  0.00    -0.220 OA
ATOM     18  C   UNL     1      -7.484   3.888  72.664  0.00  0.00    +0.038 C 
ENDBRANCH  15  16
ENDBRANCH  14  15
ENDBRANCH   6  14
BRANCH   7  19
ATOM     19  O   UNL     1      -8.443   7.695  68.609  0.00  0.00    -0.348 OA
BRANCH  19  20
ATOM     20  C   UNL     1      -7.955   7.200  67.611  0.00  0.00    +0.175 C 
BRANCH  20  21
ATOM     21  C   UNL     1      -8.341   5.771  67.014  0.00  0.00    +0.181 C 
ATOM     22  O   UNL     1      -9.034   6.428  65.819  0.00  0.00    -0.220 OA
ATOM     23  C   UNL     1      -6.912   5.623  66.199  0.00  0.00    +0.038 C 
ENDBRANCH  20  21
ENDBRANCH  19  20
ENDBRANCH   7  19
BRANCH   5  24
ATOM     24  O   UNL     1      -8.788   7.579  72.961  0.00  0.00    -0.326 OA
BRANCH  24  25
ATOM     25  C   UNL     1      -7.791   7.586  73.812  0.00  0.00    +0.178 C 
BRANCH  25  26
ATOM     26  C   UNL     1      -6.499   8.358  73.148  0.00  0.00    +0.182 C 
ATOM     27  O   UNL     1      -6.295   9.290  74.329  0.00  0.00    -0.220 OA
ATOM     28  C   UNL     1      -5.367   7.305  73.711  0.00  0.00    +0.038 C 
ENDBRANCH  25  26
ENDBRANCH  24  25
ENDBRANCH   5  24
ENDBRANCH   1   2
BRANCH   1  32
ATOM     29  C   UNL     1      -9.884  12.727  67.500  0.00  0.00    +0.174 C 
ATOM     30  C   UNL     1     -10.250  11.616  68.773  0.00  0.00    +0.177 C 
ATOM     31  O   UNL     1     -11.199  10.750  68.059  0.00  0.00    -0.326 OA
ATOM     32  C   UNL     1     -10.704   9.615  67.200  0.00  0.00    +0.266 C 
ATOM     33  C   UNL     1      -9.553  10.555  66.348  0.00  0.00    +0.201 C 
ATOM     34  C   UNL     1     -10.664  11.858  66.268  0.00  0.00    +0.177 C 
BRANCH  29  35
ATOM     35  O   UNL     1     -10.996  13.676  67.782  0.00  0.00    -0.348 OA
BRANCH  35  36
ATOM     36  C   UNL     1     -10.622  14.896  67.923  0.00  0.00    +0.175 C 
BRANCH  36  38
ATOM     37  C   UNL     1     -10.955  15.605  70.249  0.00  0.00    +0.038 C 
ATOM     38  C   UNL     1     -11.714  15.771  68.792  0.00  0.00    +0.181 C 
ATOM     39  O   UNL     1     -11.011  17.090  68.530  0.00  0.00    -0.220 OA
ENDBRANCH  36  38
ENDBRANCH  35  36
ENDBRANCH  29  35
BRANCH  33  40
ATOM     40  O   UNL     1     -10.056   9.945  65.076  0.00  0.00    -0.346 OA
BRANCH  40  41
ATOM     41  C   UNL     1      -9.041   9.588  64.260  0.00  0.00    +0.175 C 
BRANCH  41  42
ATOM     42  C   UNL     1      -9.413   9.939  62.701  0.00  0.00    +0.181 C 
ATOM     43  O   UNL     1      -8.183  10.819  62.539  0.00  0.00    -0.220 OA
ATOM     44  C   UNL     1      -8.610   8.604  62.161  0.00  0.00    +0.038 C 
ENDBRANCH  41  42
ENDBRANCH  40  41
ENDBRANCH  33  40
BRANCH  30  45
ATOM     45  C   UNL     1      -8.784  10.987  68.472  0.00  0.00    +0.174 C 
BRANCH  45  46
ATOM     46  O   UNL     1      -7.917  11.108  69.419  0.00  0.00    -0.348 OA
BRANCH  46  47
ATOM     47  C   UNL     1      -6.654  10.672  69.358  0.00  0.00    +0.175 C 
BRANCH  47  48
ATOM     48  C   UNL     1      -5.972  12.034  69.992  0.00  0.00    +0.181 C 
ATOM     49  O   UNL     1      -5.682  11.320  71.297  0.00  0.00    -0.220 OA
ATOM     50  C   UNL     1      -4.496  11.652  69.366  0.00  0.00    +0.038 C 
ENDBRANCH  47  48
ENDBRANCH  46  47
ENDBRANCH  45  46
ENDBRANCH  30  45
BRANCH  34  51
ATOM     51  O   UNL     1      -9.881  12.568  65.215  0.00  0.00    -0.348 OA
BRANCH  51  52
ATOM     52  C   UNL     1     -10.693  13.122  64.301  0.00  0.00    +0.175 C 
BRANCH  52  53
ATOM     53  C   UNL     1     -12.246  12.754  64.709  0.00  0.00    +0.181 C 
ATOM     54  O   UNL     1     -12.830  14.049  64.170  0.00  0.00    -0.220 OA
ATOM     55  C   UNL     1     -12.512  11.984  63.275  0.00  0.00    +0.038 C 
ENDBRANCH  52  53
ENDBRANCH  51  52
ENDBRANCH  34  51
ENDBRANCH   1  32
TORSDOF 28
ENDMDL
MODEL 8
REMARK VINA RESULT:      -5.2      1.933      8.108
REMARK  Name = 
REMARK  28 active torsions:
REMARK  status: ('A' for Active; 'I' for Inactive)
REMARK    1  A    between atoms: C_2  and  C_4
REMARK    2  A    between atoms: C_4  and  O_5
REMARK    3  A    between atoms: O_5  and  C_6
REMARK    4  A    between atoms: C_7  and  O_8
REMARK    5  A    between atoms: O_8  and  C_9
REMARK    6  A    between atoms: C_9  and  C_10
REMARK    7  A    between atoms: C_13  and  O_14
REMARK    8  A    between atoms: O_14  and  C_15
REMARK    9  A    between atoms: C_15  and  C_16
REMARK   10  A    between atoms: C_19  and  O_20
REMARK   11  A    between atoms: O_20  and  C_21
REMARK   12  A    between atoms: C_22  and  O_23
REMARK   13  A    between atoms: O_23  and  C_24
REMARK   14  A    between atoms: C_24  and  C_25
REMARK   15  A    between atoms: C_28  and  O_29
REMARK   16  A    between atoms: O_29  and  C_30
REMARK   17  A    between atoms: C_30  and  C_31
REMARK   18  A    between atoms: C_34  and  O_35
REMARK   19  A    between atoms: O_35  and  C_36
REMARK   20  A    between atoms: C_36  and  C_37
REMARK   21  A    between atoms: C_41  and  C_42
REMARK   22  A    between atoms: C_42  and  O_43
REMARK   23  A    between atoms: O_43  and  C_44
REMARK   24  A    between atoms: C_44  and  C_45
REMARK   25  A    between atoms: C_49  and  C_50
REMARK   26  A    between atoms: C_50  and  O_51
REMARK   27  A    between atoms: O_51  and  C_52
REMARK   28  A    between atoms: C_52  and  C_53
REMARK                            x       y       z     vdW  Elec       q    Type
REMARK                         _______ _______ _______ _____ _____    ______ ____
ROOT
ATOM      1  O   UNL     1      -8.545  12.948  68.027  0.00  0.00    -0.326 OA
ENDROOT
BRANCH   1   2
ATOM      2  C   UNL     1      -9.405  14.077  68.426  0.00  0.00    +0.177 C 
ATOM      3  C   UNL     1      -8.639  15.478  67.975  0.00  0.00    +0.177 C 
ATOM      4  O   UNL     1      -9.340  16.078  66.916  0.00  0.00    -0.326 OA
ATOM      5  C   UNL     1      -7.988  16.651  67.481  0.00  0.00    +0.266 C 
ATOM      6  C   UNL     1      -7.892  16.238  69.179  0.00  0.00    +0.201 C 
ATOM      7  C   UNL     1      -8.064  14.557  69.468  0.00  0.00    +0.177 C 
BRANCH   3   8
ATOM      8  C   UNL     1      -9.753  16.217  69.052  0.00  0.00    +0.174 C 
BRANCH   8   9
ATOM      9  O   UNL     1     -10.898  15.885  68.890  0.00  0.00    -0.348 OA
BRANCH   9  10
ATOM     10  C   UNL     1     -12.066  15.931  69.468  0.00  0.00    +0.175 C 
BRANCH  10  11
ATOM     11  C   UNL     1     -11.460  15.516  70.950  0.00  0.00    +0.181 C 
ATOM     12  O   UNL     1     -12.629  16.201  71.629  0.00  0.00    -0.220 OA
ATOM     13  C   UNL     1     -12.218  14.058  70.865  0.00  0.00    +0.038 C 
ENDBRANCH  10  11
ENDBRANCH   9  10
ENDBRANCH   8   9
ENDBRANCH   3   8
BRANCH   6  14
ATOM     14  O   UNL     1      -6.407  16.214  69.034  0.00  0.00    -0.346 OA
BRANCH  14  15
ATOM     15  C   UNL     1      -5.734  17.070  69.764  0.00  0.00    +0.175 C 
BRANCH  15  16
ATOM     16  C   UNL     1      -4.615  17.633  68.677  0.00  0.00    +0.181 C 
ATOM     17  O   UNL     1      -4.903  19.110  68.878  0.00  0.00    -0.220 OA
ATOM     18  C   UNL     1      -3.310  17.697  69.691  0.00  0.00    +0.038 C 
ENDBRANCH  15  16
ENDBRANCH  14  15
ENDBRANCH   6  14
BRANCH   7  19
ATOM     19  O   UNL     1      -6.937  14.023  68.653  0.00  0.00    -0.348 OA
BRANCH  19  20
ATOM     20  C   UNL     1      -6.018  13.424  69.180  0.00  0.00    +0.175 C 
BRANCH  20  21
ATOM     21  C   UNL     1      -4.723  12.881  68.422  0.00  0.00    +0.181 C 
ATOM     22  O   UNL     1      -4.938  13.879  67.284  0.00  0.00    -0.220 OA
ATOM     23  C   UNL     1      -3.709  13.905  69.229  0.00  0.00    +0.038 C 
ENDBRANCH  20  21
ENDBRANCH  19  20
ENDBRANCH   7  19
BRANCH   5  24
ATOM     24  O   UNL     1      -8.665  17.961  67.896  0.00  0.00    -0.326 OA
BRANCH  24  25
ATOM     25  C   UNL     1      -8.088  18.983  67.312  0.00  0.00    +0.178 C 
BRANCH  25  26
ATOM     26  C   UNL     1      -9.229  20.057  66.814  0.00  0.00    +0.182 C 
ATOM     27  O   UNL     1      -9.849  19.113  65.800  0.00  0.00    -0.220 OA
ATOM     28  C   UNL     1     -10.346  19.657  67.954  0.00  0.00    +0.038 C 
ENDBRANCH  25  26
ENDBRANCH  24  25
ENDBRANCH   5  24
ENDBRANCH   1   2
BRANCH   1  32
ATOM     29  C   UNL     1      -9.053   9.406  66.689  0.00  0.00    +0.174 C 
ATOM     30  C   UNL     1      -8.203  10.292  67.905  0.00  0.00    +0.177 C 
ATOM     31  O   UNL     1      -7.559  11.300  67.051  0.00  0.00    -0.326 OA
ATOM     32  C   UNL     1      -8.301  12.549  66.648  0.00  0.00    +0.266 C 
ATOM     33  C   UNL     1      -9.717  11.732  66.137  0.00  0.00    +0.201 C 
ATOM     34  C   UNL     1      -8.759  10.501  65.425  0.00  0.00    +0.177 C 
BRANCH  29  35
ATOM     35  O   UNL     1      -7.949   8.461  66.368  0.00  0.00    -0.348 OA
BRANCH  35  36
ATOM     36  C   UNL     1      -8.251   7.224  66.533  0.00  0.00    +0.175 C 
BRANCH  36  38
ATOM     37  C   UNL     1     -10.036   5.539  66.489  0.00  0.00    +0.038 C 
ATOM     38  C   UNL     1      -9.781   7.045  67.117  0.00  0.00    +0.181 C 
ATOM     39  O   UNL     1      -9.313   6.460  68.436  0.00  0.00    -0.220 OA
ENDBRANCH  36  38
ENDBRANCH  35  36
ENDBRANCH  29  35
BRANCH  33  40
ATOM     40  O   UNL     1      -9.703  12.569  64.896  0.00  0.00    -0.346 OA
BRANCH  40  41
ATOM     41  C   UNL     1     -10.786  13.373  64.825  0.00  0.00    +0.175 C 
BRANCH  41  42
ATOM     42  C   UNL     1     -12.153  12.516  65.127  0.00  0.00    +0.181 C 
ATOM     43  O   UNL     1     -13.019  13.766  65.096  0.00  0.00    -0.220 OA
ATOM     44  C   UNL     1     -12.387  12.235  63.520  0.00  0.00    +0.038 C 
ENDBRANCH  41  42
ENDBRANCH  40  41
ENDBRANCH  33  40
BRANCH  30  45
ATOM     45  C   UNL     1      -9.654  10.914  68.286  0.00  0.00    +0.174 C 
BRANCH  45  46
ATOM     46  O   UNL     1     -10.137  10.552  69.425  0.00  0.00    -0.348 OA
BRANCH  46  47
ATOM     47  C   UNL     1     -11.436  10.571  69.744  0.00  0.00    +0.175 C 
BRANCH  47  48
ATOM     48  C   UNL     1     -11.461   9.076  70.442  0.00  0.00    +0.181 C 
ATOM     49  O   UNL     1     -10.276   9.430  71.318  0.00  0.00    -0.220 OA
ATOM     50  C   UNL     1     -12.547   9.567  71.581  0.00  0.00    +0.038 C 
ENDBRANCH  47  48
ENDBRANCH  46  47
ENDBRANCH  45  46
ENDBRANCH  30  45
BRANCH  34  51
ATOM     51  O   UNL     1      -9.901   9.957  64.634  0.00  0.00    -0.348 OA
BRANCH  51  52
ATOM     52  C   UNL     1      -9.580   9.851  63.335  0.00  0.00    +0.175 C 
BRANCH  52  53
ATOM     53  C   UNL     1      -7.952  10.050  63.193  0.00  0.00    +0.181 C 
ATOM     54  O   UNL     1      -7.710   8.688  62.567  0.00  0.00    -0.220 OA
ATOM     55  C   UNL     1      -8.099  10.757  61.711  0.00  0.00    +0.038 C 
ENDBRANCH  52  53
ENDBRANCH  51  52
ENDBRANCH  34  51
ENDBRANCH   1  32
TORSDOF 28
ENDMDL
MODEL 9
REMARK VINA RESULT:      -5.2      1.836      4.537
REMARK  Name = 
REMARK  28 active torsions:
REMARK  status: ('A' for Active; 'I' for Inactive)
REMARK    1  A    between atoms: C_2  and  C_4
REMARK    2  A    between atoms: C_4  and  O_5
REMARK    3  A    between atoms: O_5  and  C_6
REMARK    4  A    between atoms: C_7  and  O_8
REMARK    5  A    between atoms: O_8  and  C_9
REMARK    6  A    between atoms: C_9  and  C_10
REMARK    7  A    between atoms: C_13  and  O_14
REMARK    8  A    between atoms: O_14  and  C_15
REMARK    9  A    between atoms: C_15  and  C_16
REMARK   10  A    between atoms: C_19  and  O_20
REMARK   11  A    between atoms: O_20  and  C_21
REMARK   12  A    between atoms: C_22  and  O_23
REMARK   13  A    between atoms: O_23  and  C_24
REMARK   14  A    between atoms: C_24  and  C_25
REMARK   15  A    between atoms: C_28  and  O_29
REMARK   16  A    between atoms: O_29  and  C_30
REMARK   17  A    between atoms: C_30  and  C_31
REMARK   18  A    between atoms: C_34  and  O_35
REMARK   19  A    between atoms: O_35  and  C_36
REMARK   20  A    between atoms: C_36  and  C_37
REMARK   21  A    between atoms: C_41  and  C_42
REMARK   22  A    between atoms: C_42  and  O_43
REMARK   23  A    between atoms: O_43  and  C_44
REMARK   24  A    between atoms: C_44  and  C_45
REMARK   25  A    between atoms: C_49  and  C_50
REMARK   26  A    between atoms: C_50  and  O_51
REMARK   27  A    between atoms: O_51  and  C_52
REMARK   28  A    between atoms: C_52  and  C_53
REMARK                            x       y       z     vdW  Elec       q    Type
REMARK                         _______ _______ _______ _____ _____    ______ ____
ROOT
ATOM      1  O   UNL     1      -8.860  14.002  67.902  0.00  0.00    -0.326 OA
ENDROOT
BRANCH   1   2
ATOM      2  C   UNL     1      -9.313  12.706  68.437  0.00  0.00    +0.177 C 
ATOM      3  C   UNL     1      -8.869  11.531  67.354  0.00  0.00    +0.177 C 
ATOM      4  O   UNL     1      -7.848  10.741  67.907  0.00  0.00    -0.326 OA
ATOM      5  C   UNL     1      -8.381  10.545  66.440  0.00  0.00    +0.266 C 
ATOM      6  C   UNL     1     -10.065  11.021  66.407  0.00  0.00    +0.201 C 
ATOM      7  C   UNL     1     -10.321  12.612  66.992  0.00  0.00    +0.177 C 
BRANCH   3   8
ATOM      8  C   UNL     1      -9.998  10.567  68.215  0.00  0.00    +0.174 C 
BRANCH   8   9
ATOM      9  O   UNL     1      -9.640  10.246  69.319  0.00  0.00    -0.348 OA
BRANCH   9  10
ATOM     10  C   UNL     1     -10.088   9.721  70.425  0.00  0.00    +0.175 C 
BRANCH  10  11
ATOM     11  C   UNL     1      -8.798   8.695  70.577  0.00  0.00    +0.181 C 
ATOM     12  O   UNL     1      -8.813   8.886  72.080  0.00  0.00    -0.220 OA
ATOM     13  C   UNL     1      -9.816   7.403  70.618  0.00  0.00    +0.038 C 
ENDBRANCH  10  11
ENDBRANCH   9  10
ENDBRANCH   8   9
ENDBRANCH   3   8
BRANCH   6  14
ATOM     14  O   UNL     1      -9.870  11.415  64.981  0.00  0.00    -0.346 OA
BRANCH  14  15
ATOM     15  C   UNL     1     -10.535  10.723  64.088  0.00  0.00    +0.175 C 
BRANCH  15  16
ATOM     16  C   UNL     1      -9.735  11.121  62.690  0.00  0.00    +0.181 C 
ATOM     17  O   UNL     1      -8.347  11.200  63.299  0.00  0.00    -0.220 OA
ATOM     18  C   UNL     1      -9.458   9.590  62.131  0.00  0.00    +0.038 C 
ENDBRANCH  15  16
ENDBRANCH  14  15
ENDBRANCH   6  14
BRANCH   7  19
ATOM     19  O   UNL     1      -9.457  13.389  66.058  0.00  0.00    -0.348 OA
BRANCH  19  20
ATOM     20  C   UNL     1      -9.945  14.180  65.274  0.00  0.00    +0.175 C 
BRANCH  20  21
ATOM     21  C   UNL     1     -11.298  14.992  65.513  0.00  0.00    +0.181 C 
ATOM     22  O   UNL     1     -10.799  16.137  64.631  0.00  0.00    -0.220 OA
ATOM     23  C   UNL     1     -12.070  14.257  64.251  0.00  0.00    +0.038 C 
ENDBRANCH  20  21
ENDBRANCH  19  20
ENDBRANCH   7  19
BRANCH   5  24
ATOM     24  O   UNL     1      -8.847   9.120  66.752  0.00  0.00    -0.326 OA
BRANCH  24  25
ATOM     25  C   UNL     1      -8.386   8.278  65.860  0.00  0.00    +0.178 C 
BRANCH  25  26
ATOM     26  C   UNL     1      -8.867   6.751  66.235  0.00  0.00    +0.182 C 
ATOM     27  O   UNL     1      -8.191   6.741  67.594  0.00  0.00    -0.220 OA
ATOM     28  C   UNL     1     -10.311   7.186  66.893  0.00  0.00    +0.038 C 
ENDBRANCH  25  26
ENDBRANCH  24  25
ENDBRANCH   5  24
ENDBRANCH   1   2
BRANCH   1  32
ATOM     29  C   UNL     1      -7.875  17.609  68.691  0.00  0.00    +0.174 C 
ATOM     30  C   UNL     1      -8.822  16.665  67.595  0.00  0.00    +0.177 C 
ATOM     31  O   UNL     1      -7.790  15.716  67.154  0.00  0.00    -0.326 OA
ATOM     32  C   UNL     1      -7.486  14.483  67.965  0.00  0.00    +0.266 C 
ATOM     33  C   UNL     1      -7.346  15.309  69.459  0.00  0.00    +0.201 C 
ATOM     34  C   UNL     1      -6.515  16.591  68.680  0.00  0.00    +0.177 C 
BRANCH  29  35
ATOM     35  O   UNL     1      -7.376  18.585  67.683  0.00  0.00    -0.348 OA
BRANCH  35  36
ATOM     36  C   UNL     1      -7.610  19.811  67.981  0.00  0.00    +0.175 C 
BRANCH  36  38
ATOM     37  C   UNL     1      -5.677  21.247  67.498  0.00  0.00    +0.038 C 
ATOM     38  C   UNL     1      -7.110  20.832  66.788  0.00  0.00    +0.181 C 
ATOM     39  O   UNL     1      -6.441  19.727  65.991  0.00  0.00    -0.220 OA
ENDBRANCH  36  38
ENDBRANCH  35  36
ENDBRANCH  29  35
BRANCH  33  40
ATOM     40  O   UNL     1      -6.084  14.545  69.717  0.00  0.00    -0.346 OA
BRANCH  40  41
ATOM     41  C   UNL     1      -6.042  14.066  70.979  0.00  0.00    +0.175 C 
BRANCH  41  42
ATOM     42  C   UNL     1      -4.679  13.183  71.209  0.00  0.00    +0.181 C 
ATOM     43  O   UNL     1      -5.349  12.302  72.251  0.00  0.00    -0.220 OA
ATOM     44  C   UNL     1      -5.083  12.155  69.985  0.00  0.00    +0.038 C 
ENDBRANCH  41  42
ENDBRANCH  40  41
ENDBRANCH  33  40
BRANCH  30  45
ATOM     45  C   UNL     1      -9.473  16.004  68.928  0.00  0.00    +0.174 C 
BRANCH  45  46
ATOM     46  O   UNL     1     -10.684  16.358  69.194  0.00  0.00    -0.348 OA
BRANCH  46  47
ATOM     47  C   UNL     1     -11.734  15.529  69.210  0.00  0.00    +0.175 C 
BRANCH  47  48
ATOM     48  C   UNL     1     -11.796  15.366  70.851  0.00  0.00    +0.181 C 
ATOM     49  O   UNL     1     -13.213  15.902  70.883  0.00  0.00    -0.220 OA
ATOM     50  C   UNL     1     -12.309  13.804  70.730  0.00  0.00    +0.038 C 
ENDBRANCH  47  48
ENDBRANCH  46  47
ENDBRANCH  45  46
ENDBRANCH  30  45
BRANCH  34  51
ATOM     51  O   UNL     1      -6.026  17.164  69.968  0.00  0.00    -0.348 OA
BRANCH  51  52
ATOM     52  C   UNL     1      -4.836  17.766  69.806  0.00  0.00    +0.175 C 
BRANCH  52  53
ATOM     53  C   UNL     1      -4.929  19.268  70.475  0.00  0.00    +0.181 C 
ATOM     54  O   UNL     1      -4.826  18.777  71.909  0.00  0.00    -0.220 OA
ATOM     55  C   UNL     1      -3.297  19.484  70.383  0.00  0.00    +0.038 C 
ENDBRANCH  52  53
ENDBRANCH  51  52
ENDBRANCH  34  51
ENDBRANCH   1  32
TORSDOF 28
ENDMDL
