MODEL 1
REMARK VINA RESULT:      -7.1      0.000      0.000
REMARK  Name = 
REMARK  4 active torsions:
REMARK  status: ('A' for Active; 'I' for Inactive)
REMARK    1  A    between atoms: C_3  and  C_4
REMARK    2  A    between atoms: C_4  and  C_5
REMARK    3  A    between atoms: C_16  and  C_17
REMARK    4  A    between atoms: C_20  and  S_21
REMARK                            x       y       z     vdW  Elec       q    Type
REMARK                         _______ _______ _______ _____ _____    ______ ____
ROOT
ATOM      1  C   UNL     1     -11.310  10.604  68.153  0.00  0.00    +0.031 C 
ATOM      2  C   UNL     1     -11.688  11.560  68.962  0.00  0.00    -0.025 C 
ATOM      3  C   UNL     1     -11.489  13.004  68.784  0.00  0.00    -0.004 C 
ATOM      4  C   UNL     1     -10.956  13.635  67.757  0.00  0.00    -0.000 C 
ATOM      5  C   UNL     1     -12.137  13.720  69.889  0.00  0.00    -0.000 A 
ATOM      6  C   UNL     1     -12.522  12.709  70.761  0.00  0.00    -0.002 A 
ATOM      7  C   UNL     1     -12.961  13.089  72.022  0.00  0.00    +0.029 A 
ATOM      8  C   UNL     1     -13.129  14.426  72.348  0.00  0.00    +0.140 A 
ATOM      9  C   UNL     1     -13.082  15.354  71.317  0.00  0.00    +0.030 A 
ATOM     10  F   UNL     1     -13.187  14.861  73.625  0.00  0.00    -0.204 F 
ATOM     11  C   UNL     1     -12.471  15.045  70.125  0.00  0.00    +0.002 A 
ATOM     12  C   UNL     1     -12.204  11.410  70.176  0.00  0.00    -0.015 C 
ENDROOT
BRANCH   4  13
ATOM     13  C   UNL     1     -10.379  14.962  67.985  0.00  0.00    +0.000 A 
ATOM     14  C   UNL     1     -10.938  16.093  67.431  0.00  0.00    +0.001 A 
ATOM     15  C   UNL     1     -10.329  17.299  67.704  0.00  0.00    +0.009 A 
ATOM     16  C   UNL     1      -9.030  17.347  68.169  0.00  0.00    +0.056 A 
ATOM     17  C   UNL     1      -8.573  16.247  68.879  0.00  0.00    +0.009 A 
ATOM     18  C   UNL     1      -9.209  15.028  68.716  0.00  0.00    +0.001 A 
BRANCH  16  19
ATOM     19  S   UNL     1      -8.345  18.938  68.698  0.00  0.00    +0.066 S 
ATOM     20  O   UNL     1      -9.659  19.686  69.067  0.00  0.00    -0.251 OA
ATOM     21  C   UNL     1      -7.992  19.702  67.061  0.00  0.00    +0.111 C 
ENDBRANCH  16  19
ENDBRANCH   4  13
BRANCH  12  22
ATOM     22  C   UNL     1     -12.755  10.132  70.672  0.00  0.00    +0.140 C 
BRANCH  22  23
ATOM     23  C   UNL     1     -11.851   9.492  71.656  0.00  0.00    +0.369 C 
ATOM     24  O   UNL     1     -12.316   8.487  72.502  0.00  0.00    -0.245 OA
ATOM     25  O   UNL     1     -10.617   9.437  71.374  0.00  0.00    -0.245 OA
ENDBRANCH  22  23
ENDBRANCH  12  22
TORSDOF 4
ENDMDL
MODEL 2
REMARK VINA RESULT:      -6.9      4.626      7.695
REMARK  Name = 
REMARK  4 active torsions:
REMARK  status: ('A' for Active; 'I' for Inactive)
REMARK    1  A    between atoms: C_3  and  C_4
REMARK    2  A    between atoms: C_4  and  C_5
REMARK    3  A    between atoms: C_16  and  C_17
REMARK    4  A    between atoms: C_20  and  S_21
REMARK                            x       y       z     vdW  Elec       q    Type
REMARK                         _______ _______ _______ _____ _____    ______ ____
ROOT
ATOM      1  C   UNL     1      -5.445  16.158  69.712  0.00  0.00    +0.031 C 
ATOM      2  C   UNL     1      -6.430  16.903  69.280  0.00  0.00    -0.025 C 
ATOM      3  C   UNL     1      -7.732  16.448  68.778  0.00  0.00    -0.004 C 
ATOM      4  C   UNL     1      -8.202  15.219  68.720  0.00  0.00    -0.000 C 
ATOM      5  C   UNL     1      -8.565  17.618  68.472  0.00  0.00    -0.000 A 
ATOM      6  C   UNL     1      -7.697  18.693  68.613  0.00  0.00    -0.002 A 
ATOM      7  C   UNL     1      -8.136  19.929  68.161  0.00  0.00    +0.029 A 
ATOM      8  C   UNL     1      -9.434  20.105  67.708  0.00  0.00    +0.140 A 
ATOM      9  C   UNL     1     -10.345  19.085  67.943  0.00  0.00    +0.030 A 
ATOM     10  F   UNL     1      -9.798  21.149  66.932  0.00  0.00    -0.204 F 
ATOM     11  C   UNL     1      -9.912  17.806  68.201  0.00  0.00    +0.002 A 
ATOM     12  C   UNL     1      -6.397  18.215  69.076  0.00  0.00    -0.015 C 
ENDROOT
BRANCH   4  13
ATOM     13  C   UNL     1      -9.249  14.924  67.739  0.00  0.00    +0.000 A 
ATOM     14  C   UNL     1     -10.471  14.414  68.122  0.00  0.00    +0.001 A 
ATOM     15  C   UNL     1     -11.395  14.173  67.130  0.00  0.00    +0.009 A 
ATOM     16  C   UNL     1     -11.006  14.070  65.809  0.00  0.00    +0.056 A 
ATOM     17  C   UNL     1      -9.859  14.752  65.434  0.00  0.00    +0.009 A 
ATOM     18  C   UNL     1      -8.937  15.106  66.406  0.00  0.00    +0.001 A 
BRANCH  16  19
ATOM     19  S   UNL     1     -12.278  13.948  64.525  0.00  0.00    +0.066 S 
ATOM     20  O   UNL     1     -13.557  13.982  65.412  0.00  0.00    -0.251 OA
ATOM     21  C   UNL     1     -12.196  12.147  64.154  0.00  0.00    +0.111 C 
ENDBRANCH  16  19
ENDBRANCH   4  13
BRANCH  12  22
ATOM     22  C   UNL     1      -5.351  19.097  69.631  0.00  0.00    +0.140 C 
BRANCH  22  23
ATOM     23  C   UNL     1      -5.666  19.518  71.016  0.00  0.00    +0.369 C 
ATOM     24  O   UNL     1      -5.012  18.941  72.103  0.00  0.00    -0.245 OA
ATOM     25  O   UNL     1      -6.071  20.706  71.194  0.00  0.00    -0.245 OA
ENDBRANCH  22  23
ENDBRANCH  12  22
TORSDOF 4
ENDMDL
MODEL 3
REMARK VINA RESULT:      -6.8      4.206      8.134
REMARK  Name = 
REMARK  4 active torsions:
REMARK  status: ('A' for Active; 'I' for Inactive)
REMARK    1  A    between atoms: C_3  and  C_4
REMARK    2  A    between atoms: C_4  and  C_5
REMARK    3  A    between atoms: C_16  and  C_17
REMARK    4  A    between atoms: C_20  and  S_21
REMARK                            x       y       z     vdW  Elec       q    Type
REMARK                         _______ _______ _______ _____ _____    ______ ____
ROOT
ATOM      1  C   UNL     1     -13.594  13.129  72.391  0.00  0.00    +0.031 C 
ATOM      2  C   UNL     1     -12.941  12.707  71.340  0.00  0.00    -0.025 C 
ATOM      3  C   UNL     1     -12.570  11.322  71.023  0.00  0.00    -0.004 C 
ATOM      4  C   UNL     1     -12.872  10.223  71.684  0.00  0.00    -0.000 C 
ATOM      5  C   UNL     1     -11.913  11.288  69.710  0.00  0.00    -0.000 A 
ATOM      6  C   UNL     1     -11.746  12.628  69.386  0.00  0.00    -0.002 A 
ATOM      7  C   UNL     1     -10.937  12.923  68.297  0.00  0.00    +0.029 A 
ATOM      8  C   UNL     1     -10.427  11.916  67.492  0.00  0.00    +0.140 A 
ATOM      9  C   UNL     1     -10.937  10.636  67.656  0.00  0.00    +0.030 A 
ATOM     10  F   UNL     1      -9.368  12.106  66.675  0.00  0.00    -0.204 F 
ATOM     11  C   UNL     1     -11.572  10.280  68.821  0.00  0.00    +0.002 A 
ATOM     12  C   UNL     1     -12.356  13.462  70.417  0.00  0.00    -0.015 C 
ENDROOT
BRANCH   4  13
ATOM     13  C   UNL     1     -12.002   9.056  71.519  0.00  0.00    +0.000 A 
ATOM     14  C   UNL     1     -10.637   9.147  71.695  0.00  0.00    +0.001 A 
ATOM     15  C   UNL     1      -9.900   7.996  71.523  0.00  0.00    +0.009 A 
ATOM     16  C   UNL     1     -10.421   6.916  70.839  0.00  0.00    +0.056 A 
ATOM     17  C   UNL     1     -11.800   6.773  70.843  0.00  0.00    +0.009 A 
ATOM     18  C   UNL     1     -12.592   7.878  71.106  0.00  0.00    +0.001 A 
BRANCH  16  19
ATOM     19  S   UNL     1      -9.490   5.362  70.810  0.00  0.00    +0.066 S 
ATOM     20  O   UNL     1     -10.239   4.625  69.661  0.00  0.00    -0.251 OA
ATOM     21  C   UNL     1     -10.226   4.513  72.267  0.00  0.00    +0.111 C 
ENDBRANCH  16  19
ENDBRANCH   4  13
BRANCH  12  22
ATOM     22  C   UNL     1     -12.644  14.900  70.242  0.00  0.00    +0.140 C 
BRANCH  22  23
ATOM     23  C   UNL     1     -11.550  15.747  70.772  0.00  0.00    +0.369 C 
ATOM     24  O   UNL     1     -10.684  16.414  69.909  0.00  0.00    -0.245 OA
ATOM     25  O   UNL     1     -11.726  16.297  71.900  0.00  0.00    -0.245 OA
ENDBRANCH  22  23
ENDBRANCH  12  22
TORSDOF 4
ENDMDL
MODEL 4
REMARK VINA RESULT:      -6.5      3.563      5.776
REMARK  Name = 
REMARK  4 active torsions:
REMARK  status: ('A' for Active; 'I' for Inactive)
REMARK    1  A    between atoms: C_3  and  C_4
REMARK    2  A    between atoms: C_4  and  C_5
REMARK    3  A    between atoms: C_16  and  C_17
REMARK    4  A    between atoms: C_20  and  S_21
REMARK                            x       y       z     vdW  Elec       q    Type
REMARK                         _______ _______ _______ _____ _____    ______ ____
ROOT
ATOM      1  C   UNL     1     -13.295  12.145  72.052  0.00  0.00    +0.031 C 
ATOM      2  C   UNL     1     -12.810  12.835  71.053  0.00  0.00    -0.025 C 
ATOM      3  C   UNL     1     -12.105  12.316  69.874  0.00  0.00    -0.004 C 
ATOM      4  C   UNL     1     -11.877  11.060  69.546  0.00  0.00    -0.000 C 
ATOM      5  C   UNL     1     -11.802  13.428  68.966  0.00  0.00    -0.000 A 
ATOM      6  C   UNL     1     -12.149  14.559  69.694  0.00  0.00    -0.002 A 
ATOM      7  C   UNL     1     -11.758  15.789  69.185  0.00  0.00    +0.029 A 
ATOM      8  C   UNL     1     -11.160  15.889  67.938  0.00  0.00    +0.140 A 
ATOM      9  C   UNL     1     -11.184  14.770  67.118  0.00  0.00    +0.030 A 
ATOM     10  F   UNL     1     -10.441  16.969  67.562  0.00  0.00    -0.204 F 
ATOM     11  C   UNL     1     -11.379  13.518  67.648  0.00  0.00    +0.002 A 
ATOM     12  C   UNL     1     -12.730  14.159  70.972  0.00  0.00    -0.015 C 
ENDROOT
BRANCH   4  13
ATOM     13  C   UNL     1     -10.747  10.772  68.660  0.00  0.00    +0.000 A 
ATOM     14  C   UNL     1     -10.940  10.305  67.378  0.00  0.00    +0.001 A 
ATOM     15  C   UNL     1      -9.818  10.066  66.615  0.00  0.00    +0.009 A 
ATOM     16  C   UNL     1      -8.578   9.922  67.206  0.00  0.00    +0.056 A 
ATOM     17  C   UNL     1      -8.378  10.563  68.418  0.00  0.00    +0.009 A 
ATOM     18  C   UNL     1      -9.478  10.915  69.185  0.00  0.00    +0.001 A 
BRANCH  16  19
ATOM     19  S   UNL     1      -7.111   9.806  66.150  0.00  0.00    +0.066 S 
ATOM     20  O   UNL     1      -6.522  11.232  66.353  0.00  0.00    -0.251 OA
ATOM     21  C   UNL     1      -7.883  10.012  64.493  0.00  0.00    +0.111 C 
ENDBRANCH  16  19
ENDBRANCH   4  13
BRANCH  12  22
ATOM     22  C   UNL     1     -13.493  15.073  71.847  0.00  0.00    +0.140 C 
BRANCH  22  23
ATOM     23  C   UNL     1     -12.635  15.668  72.898  0.00  0.00    +0.369 C 
ATOM     24  O   UNL     1     -12.280  14.935  74.028  0.00  0.00    -0.245 OA
ATOM     25  O   UNL     1     -11.806  16.560  72.546  0.00  0.00    -0.245 OA
ENDBRANCH  22  23
ENDBRANCH  12  22
TORSDOF 4
ENDMDL
MODEL 5
REMARK VINA RESULT:      -6.5      5.051      8.472
REMARK  Name = 
REMARK  4 active torsions:
REMARK  status: ('A' for Active; 'I' for Inactive)
REMARK    1  A    between atoms: C_3  and  C_4
REMARK    2  A    between atoms: C_4  and  C_5
REMARK    3  A    between atoms: C_16  and  C_17
REMARK    4  A    between atoms: C_20  and  S_21
REMARK                            x       y       z     vdW  Elec       q    Type
REMARK                         _______ _______ _______ _____ _____    ______ ____
ROOT
ATOM      1  C   UNL     1      -9.471   9.939  63.073  0.00  0.00    +0.031 C 
ATOM      2  C   UNL     1      -9.794  10.377  64.262  0.00  0.00    -0.025 C 
ATOM      3  C   UNL     1      -9.600   9.690  65.544  0.00  0.00    -0.004 C 
ATOM      4  C   UNL     1      -9.008   8.535  65.771  0.00  0.00    -0.000 C 
ATOM      5  C   UNL     1     -10.034  10.573  66.634  0.00  0.00    -0.000 A 
ATOM      6  C   UNL     1     -10.630  11.643  65.980  0.00  0.00    -0.002 A 
ATOM      7  C   UNL     1     -11.349  12.542  66.755  0.00  0.00    +0.029 A 
ATOM      8  C   UNL     1     -11.361  12.444  68.138  0.00  0.00    +0.140 A 
ATOM      9  C   UNL     1     -10.450  11.584  68.733  0.00  0.00    +0.030 A 
ATOM     10  F   UNL     1     -12.308  13.033  68.900  0.00  0.00    -0.204 F 
ATOM     11  C   UNL     1      -9.878  10.563  68.012  0.00  0.00    +0.002 A 
ATOM     12  C   UNL     1     -10.492  11.473  64.537  0.00  0.00    -0.015 C 
ENDROOT
BRANCH   4  13
ATOM     13  C   UNL     1      -9.374   7.798  66.983  0.00  0.00    +0.000 A 
ATOM     14  C   UNL     1      -8.477   7.621  68.015  0.00  0.00    +0.001 A 
ATOM     15  C   UNL     1      -8.911   6.918  69.117  0.00  0.00    +0.009 A 
ATOM     16  C   UNL     1     -10.024   6.104  69.044  0.00  0.00    +0.056 A 
ATOM     17  C   UNL     1     -10.986   6.433  68.102  0.00  0.00    +0.009 A 
ATOM     18  C   UNL     1     -10.628   7.220  67.020  0.00  0.00    +0.001 A 
BRANCH  16  19
ATOM     19  S   UNL     1     -10.667   5.357  70.565  0.00  0.00    +0.066 S 
ATOM     20  O   UNL     1     -11.851   6.324  70.857  0.00  0.00    -0.251 OA
ATOM     21  C   UNL     1      -9.437   5.983  71.781  0.00  0.00    +0.111 C 
ENDBRANCH  16  19
ENDBRANCH   4  13
BRANCH  12  22
ATOM     22  C   UNL     1     -10.721  12.557  63.559  0.00  0.00    +0.140 C 
BRANCH  22  23
ATOM     23  C   UNL     1     -12.165  12.821  63.360  0.00  0.00    +0.369 C 
ATOM     24  O   UNL     1     -13.096  11.789  63.446  0.00  0.00    -0.245 OA
ATOM     25  O   UNL     1     -12.600  13.973  63.662  0.00  0.00    -0.245 OA
ENDBRANCH  22  23
ENDBRANCH  12  22
TORSDOF 4
ENDMDL
MODEL 6
REMARK VINA RESULT:      -6.4      4.546      5.502
REMARK  Name = 
REMARK  4 active torsions:
REMARK  status: ('A' for Active; 'I' for Inactive)
REMARK    1  A    between atoms: C_3  and  C_4
REMARK    2  A    between atoms: C_4  and  C_5
REMARK    3  A    between atoms: C_16  and  C_17
REMARK    4  A    between atoms: C_20  and  S_21
REMARK                            x       y       z     vdW  Elec       q    Type
REMARK                         _______ _______ _______ _____ _____    ______ ____
ROOT
ATOM      1  C   UNL     1     -11.523  15.883  64.310  0.00  0.00    +0.031 C 
ATOM      2  C   UNL     1     -10.698  15.507  65.252  0.00  0.00    -0.025 C 
ATOM      3  C   UNL     1     -10.013  16.365  66.227  0.00  0.00    -0.004 C 
ATOM      4  C   UNL     1     -10.137  17.665  66.400  0.00  0.00    -0.000 C 
ATOM      5  C   UNL     1      -9.241  15.523  67.150  0.00  0.00    -0.000 A 
ATOM      6  C   UNL     1      -9.332  14.252  66.598  0.00  0.00    -0.002 A 
ATOM      7  C   UNL     1      -8.504  13.270  67.125  0.00  0.00    +0.029 A 
ATOM      8  C   UNL     1      -7.717  13.519  68.238  0.00  0.00    +0.140 A 
ATOM      9  C   UNL     1      -7.956  14.685  68.951  0.00  0.00    +0.030 A 
ATOM     10  F   UNL     1      -6.649  12.757  68.558  0.00  0.00    -0.204 F 
ATOM     11  C   UNL     1      -8.610  15.742  68.365  0.00  0.00    +0.002 A 
ATOM     12  C   UNL     1     -10.201  14.287  65.426  0.00  0.00    -0.015 C 
ENDROOT
BRANCH   4  13
ATOM     13  C   UNL     1      -9.027  18.387  67.027  0.00  0.00    +0.000 A 
ATOM     14  C   UNL     1      -9.153  18.954  68.276  0.00  0.00    +0.001 A 
ATOM     15  C   UNL     1      -8.055  19.610  68.788  0.00  0.00    +0.009 A 
ATOM     16  C   UNL     1      -7.027  20.019  67.962  0.00  0.00    +0.056 A 
ATOM     17  C   UNL     1      -6.829  19.299  66.794  0.00  0.00    +0.009 A 
ATOM     18  C   UNL     1      -7.872  18.543  66.285  0.00  0.00    +0.001 A 
BRANCH  16  19
ATOM     19  S   UNL     1      -5.521  20.700  68.705  0.00  0.00    +0.066 S 
ATOM     20  O   UNL     1      -4.493  19.618  68.263  0.00  0.00    -0.251 OA
ATOM     21  C   UNL     1      -5.771  20.204  70.460  0.00  0.00    +0.111 C 
ENDBRANCH  16  19
ENDBRANCH   4  13
BRANCH  12  22
ATOM     22  C   UNL     1     -10.770  13.080  64.792  0.00  0.00    +0.140 C 
BRANCH  22  23
ATOM     23  C   UNL     1     -12.025  12.653  65.454  0.00  0.00    +0.369 C 
ATOM     24  O   UNL     1     -13.210  12.544  64.730  0.00  0.00    -0.245 OA
ATOM     25  O   UNL     1     -11.929  11.888  66.460  0.00  0.00    -0.245 OA
ENDBRANCH  22  23
ENDBRANCH  12  22
TORSDOF 4
ENDMDL
MODEL 7
REMARK VINA RESULT:      -6.4      1.601      2.043
REMARK  Name = 
REMARK  4 active torsions:
REMARK  status: ('A' for Active; 'I' for Inactive)
REMARK    1  A    between atoms: C_3  and  C_4
REMARK    2  A    between atoms: C_4  and  C_5
REMARK    3  A    between atoms: C_16  and  C_17
REMARK    4  A    between atoms: C_20  and  S_21
REMARK                            x       y       z     vdW  Elec       q    Type
REMARK                         _______ _______ _______ _____ _____    ______ ____
ROOT
ATOM      1  C   UNL     1     -10.767  11.526  66.330  0.00  0.00    +0.031 C 
ATOM      2  C   UNL     1     -11.074  12.372  67.278  0.00  0.00    -0.025 C 
ATOM      3  C   UNL     1     -10.923  13.833  67.247  0.00  0.00    -0.004 C 
ATOM      4  C   UNL     1     -10.518  14.591  66.249  0.00  0.00    -0.000 C 
ATOM      5  C   UNL     1     -11.462  14.398  68.490  0.00  0.00    -0.000 A 
ATOM      6  C   UNL     1     -11.730  13.284  69.276  0.00  0.00    -0.002 A 
ATOM      7  C   UNL     1     -12.037  13.507  70.611  0.00  0.00    +0.029 A 
ATOM      8  C   UNL     1     -12.195  14.792  71.104  0.00  0.00    +0.140 A 
ATOM      9  C   UNL     1     -12.279  15.831  70.187  0.00  0.00    +0.030 A 
ATOM     10  F   UNL     1     -12.123  15.079  72.422  0.00  0.00    -0.204 F 
ATOM     11  C   UNL     1     -11.795  15.677  68.910  0.00  0.00    +0.002 A 
ATOM     12  C   UNL     1     -11.452  12.070  68.515  0.00  0.00    -0.015 C 
ENDROOT
BRANCH   4  13
ATOM     13  C   UNL     1      -9.946  15.902  66.567  0.00  0.00    +0.000 A 
ATOM     14  C   UNL     1     -10.515  17.067  66.097  0.00  0.00    +0.001 A 
ATOM     15  C   UNL     1      -9.911  18.253  66.450  0.00  0.00    +0.009 A 
ATOM     16  C   UNL     1      -8.608  18.276  66.909  0.00  0.00    +0.056 A 
ATOM     17  C   UNL     1      -8.140  17.132  67.536  0.00  0.00    +0.009 A 
ATOM     18  C   UNL     1      -8.771  15.923  67.292  0.00  0.00    +0.001 A 
BRANCH  16  19
ATOM     19  S   UNL     1      -7.927  19.830  67.544  0.00  0.00    +0.066 S 
ATOM     20  O   UNL     1      -7.004  20.223  66.353  0.00  0.00    -0.251 OA
ATOM     21  C   UNL     1      -6.671  19.179  68.720  0.00  0.00    +0.111 C 
ENDBRANCH  16  19
ENDBRANCH   4  13
BRANCH  12  22
ATOM     22  C   UNL     1     -11.919  10.728  68.916  0.00  0.00    +0.140 C 
BRANCH  22  23
ATOM     23  C   UNL     1     -10.967  10.069  69.839  0.00  0.00    +0.369 C 
ATOM     24  O   UNL     1      -9.596  10.101  69.592  0.00  0.00    -0.245 OA
ATOM     25  O   UNL     1     -11.297   9.977  71.060  0.00  0.00    -0.245 OA
ENDBRANCH  22  23
ENDBRANCH  12  22
TORSDOF 4
ENDMDL
MODEL 8
REMARK VINA RESULT:      -6.3      4.834      8.512
REMARK  Name = 
REMARK  4 active torsions:
REMARK  status: ('A' for Active; 'I' for Inactive)
REMARK    1  A    between atoms: C_3  and  C_4
REMARK    2  A    between atoms: C_4  and  C_5
REMARK    3  A    between atoms: C_16  and  C_17
REMARK    4  A    between atoms: C_20  and  S_21
REMARK                            x       y       z     vdW  Elec       q    Type
REMARK                         _______ _______ _______ _____ _____    ______ ____
ROOT
ATOM      1  C   UNL     1     -12.062  13.661  69.066  0.00  0.00    +0.031 C 
ATOM      2  C   UNL     1     -11.638  12.550  68.523  0.00  0.00    -0.025 C 
ATOM      3  C   UNL     1     -11.631  11.212  69.128  0.00  0.00    -0.004 C 
ATOM      4  C   UNL     1     -12.105  10.843  70.301  0.00  0.00    -0.000 C 
ATOM      5  C   UNL     1     -11.141  10.240  68.143  0.00  0.00    -0.000 A 
ATOM      6  C   UNL     1     -10.705  11.028  67.085  0.00  0.00    -0.002 A 
ATOM      7  C   UNL     1      -9.970  10.403  66.087  0.00  0.00    +0.029 A 
ATOM      8  C   UNL     1      -9.792   9.029  66.085  0.00  0.00    +0.140 A 
ATOM      9  C   UNL     1     -10.562   8.275  66.959  0.00  0.00    +0.030 A 
ATOM     10  F   UNL     1      -8.810   8.424  65.381  0.00  0.00    -0.204 F 
ATOM     11  C   UNL     1     -11.136   8.856  68.065  0.00  0.00    +0.002 A 
ATOM     12  C   UNL     1     -10.996  12.431  67.367  0.00  0.00    -0.015 C 
ENDROOT
BRANCH   4  13
ATOM     13  C   UNL     1     -11.549   9.640  70.924  0.00  0.00    +0.000 A 
ATOM     14  C   UNL     1     -10.191   9.490  71.111  0.00  0.00    +0.001 A 
ATOM     15  C   UNL     1      -9.760   8.327  71.709  0.00  0.00    +0.009 A 
ATOM     16  C   UNL     1     -10.575   7.214  71.763  0.00  0.00    +0.056 A 
ATOM     17  C   UNL     1     -11.944   7.432  71.750  0.00  0.00    +0.009 A 
ATOM     18  C   UNL     1     -12.430   8.628  71.247  0.00  0.00    +0.001 A 
BRANCH  16  19
ATOM     19  S   UNL     1     -10.039   5.777  72.729  0.00  0.00    +0.066 S 
ATOM     20  O   UNL     1     -11.412   5.080  72.955  0.00  0.00    -0.251 OA
ATOM     21  C   UNL     1      -9.804   6.562  74.376  0.00  0.00    +0.111 C 
ENDBRANCH  16  19
ENDBRANCH   4  13
BRANCH  12  22
ATOM     22  C   UNL     1     -10.962  13.495  66.342  0.00  0.00    +0.140 C 
BRANCH  22  23
ATOM     23  C   UNL     1     -12.024  13.311  65.326  0.00  0.00    +0.369 C 
ATOM     24  O   UNL     1     -13.195  14.063  65.374  0.00  0.00    -0.245 OA
ATOM     25  O   UNL     1     -11.672  12.925  64.170  0.00  0.00    -0.245 OA
ENDBRANCH  22  23
ENDBRANCH  12  22
TORSDOF 4
ENDMDL
MODEL 9
REMARK VINA RESULT:      -6.1      2.765      4.038
REMARK  Name = 
REMARK  4 active torsions:
REMARK  status: ('A' for Active; 'I' for Inactive)
REMARK    1  A    between atoms: C_3  and  C_4
REMARK    2  A    between atoms: C_4  and  C_5
REMARK    3  A    between atoms: C_16  and  C_17
REMARK    4  A    between atoms: C_20  and  S_21
REMARK                            x       y       z     vdW  Elec       q    Type
REMARK                         _______ _______ _______ _____ _____    ______ ____
ROOT
ATOM      1  C   UNL     1     -10.634  14.828  64.624  0.00  0.00    +0.031 C 
ATOM      2  C   UNL     1     -10.825  14.987  65.908  0.00  0.00    -0.025 C 
ATOM      3  C   UNL     1     -10.355  16.098  66.745  0.00  0.00    -0.004 C 
ATOM      4  C   UNL     1      -9.712  17.186  66.372  0.00  0.00    -0.000 C 
ATOM      5  C   UNL     1     -10.857  15.917  68.112  0.00  0.00    -0.000 A 
ATOM      6  C   UNL     1     -11.427  14.650  68.094  0.00  0.00    -0.002 A 
ATOM      7  C   UNL     1     -11.786  14.096  69.315  0.00  0.00    +0.029 A 
ATOM      8  C   UNL     1     -11.698  14.831  70.487  0.00  0.00    +0.140 A 
ATOM      9  C   UNL     1     -11.476  16.197  70.379  0.00  0.00    +0.030 A 
ATOM     10  F   UNL     1     -11.673  14.252  71.707  0.00  0.00    -0.204 F 
ATOM     11  C   UNL     1     -10.934  16.729  69.234  0.00  0.00    +0.002 A 
ATOM     12  C   UNL     1     -11.360  14.103  66.742  0.00  0.00    -0.015 C 
ENDROOT
BRANCH   4  13
ATOM     13  C   UNL     1      -8.895  17.881  67.370  0.00  0.00    +0.000 A 
ATOM     14  C   UNL     1      -9.243  19.128  67.842  0.00  0.00    +0.001 A 
ATOM     15  C   UNL     1      -8.416  19.702  68.782  0.00  0.00    +0.009 A 
ATOM     16  C   UNL     1      -7.123  19.252  68.957  0.00  0.00    +0.056 A 
ATOM     17  C   UNL     1      -6.865  17.930  68.631  0.00  0.00    +0.009 A 
ATOM     18  C   UNL     1      -7.720  17.271  67.763  0.00  0.00    +0.001 A 
BRANCH  16  19
ATOM     19  S   UNL     1      -6.144  19.906  70.335  0.00  0.00    +0.066 S 
ATOM     20  O   UNL     1      -5.398  21.062  69.607  0.00  0.00    -0.251 OA
ATOM     21  C   UNL     1      -4.799  18.652  70.403  0.00  0.00    +0.111 C 
ENDBRANCH  16  19
ENDBRANCH   4  13
BRANCH  12  22
ATOM     22  C   UNL     1     -12.143  12.933  66.293  0.00  0.00    +0.140 C 
BRANCH  22  23
ATOM     23  C   UNL     1     -11.336  11.691  66.320  0.00  0.00    +0.369 C 
ATOM     24  O   UNL     1     -10.423  11.412  65.307  0.00  0.00    -0.245 OA
ATOM     25  O   UNL     1     -11.061  11.192  67.453  0.00  0.00    -0.245 OA
ENDBRANCH  22  23
ENDBRANCH  12  22
TORSDOF 4
ENDMDL
