MODEL 1
REMARK VINA RESULT:      -7.9      0.000      0.000
REMARK  Name = 
REMARK  9 active torsions:
REMARK  status: ('A' for Active; 'I' for Inactive)
REMARK    1  A    between atoms: C_2  and  C_3
REMARK    2  A    between atoms: C_7  and  O_8
REMARK    3  A    between atoms: O_8  and  C_9
REMARK    4  A    between atoms: C_12  and  N_13
REMARK    5  A    between atoms: C_31  and  O_32
REMARK    6  A    between atoms: O_32  and  C_33
REMARK    7  A    between atoms: C_37  and  O_38
REMARK    8  A    between atoms: C_40  and  O_41
REMARK    9  A    between atoms: C_43  and  O_44
REMARK                            x       y       z     vdW  Elec       q    Type
REMARK                         _______ _______ _______ _____ _____    ______ ____
ROOT
ATOM      1  C   UNL     1      -9.876   7.313  70.426  0.00  0.00    +0.169 C 
ATOM      2  O   UNL     1     -10.703   8.246  69.505  0.00  0.00    -0.452 OA
ATOM      3  C   UNL     1     -10.724   9.522  69.896  0.00  0.00    +0.317 C 
ATOM      4  O   UNL     1     -11.649  10.241  70.292  0.00  0.00    -0.250 OA
ATOM      5  C   UNL     1      -9.477  10.037  69.368  0.00  0.00    +0.114 C 
ATOM      6  C   UNL     1      -9.740  10.281  67.769  0.00  0.00    +0.040 C 
ATOM      7  C   UNL     1      -8.275  10.855  67.559  0.00  0.00    +0.009 C 
ATOM      8  C   UNL     1      -8.132  11.784  68.369  0.00  0.00    -0.028 C 
ATOM      9  C   UNL     1      -9.260  12.749  67.848  0.00  0.00    +0.027 C 
ATOM     10  C   UNL     1      -9.145  12.550  66.172  0.00  0.00    +0.011 C 
ATOM     11  C   UNL     1     -10.533  11.803  66.645  0.00  0.00    +0.025 C 
ATOM     12  C   UNL     1     -11.038  13.071  67.678  0.00  0.00    +0.034 C 
ATOM     13  C   UNL     1     -11.082  14.258  66.641  0.00  0.00    +0.116 C 
ATOM     14  C   UNL     1     -11.607  12.237  65.697  0.00  0.00    -0.031 C 
ATOM     15  C   UNL     1     -11.528  11.688  66.893  0.00  0.00    -0.030 C 
ATOM     16  C   UNL     1      -9.907  13.823  65.611  0.00  0.00    +0.030 C 
ATOM     17  C   UNL     1      -7.492   9.595  67.585  0.00  0.00    +0.171 C 
ATOM     18  O   UNL     1      -6.230   9.761  67.643  0.00  0.00    -0.292 OA
ATOM     19  C   UNL     1      -7.781   8.575  66.388  0.00  0.00    +0.089 C 
ATOM     20  C   UNL     1      -9.346   8.972  66.130  0.00  0.00    +0.011 C 
ATOM     21  C   UNL     1      -8.541   7.346  67.327  0.00  0.00    +0.125 C 
ATOM     22  C   UNL     1      -7.198   6.493  67.762  0.00  0.00    +0.030 C 
ATOM     23  C   UNL     1      -7.699   6.375  69.238  0.00  0.00    +0.006 C 
ATOM     24  C   UNL     1     -10.551  11.675  68.165  0.00  0.00    +0.030 C 
ATOM     25  C   UNL     1      -8.492   7.453  69.589  0.00  0.00    +0.044 C 
ENDROOT
BRANCH   1  27
ATOM     26  C   UNL     1     -11.304   6.179  69.491  0.00  0.00    +0.004 C 
ATOM     27  C   UNL     1     -10.524   6.017  69.618  0.00  0.00    +0.044 C 
ENDBRANCH   1  27
BRANCH  21  28
ATOM     28  O   UNL     1      -9.052   6.586  66.180  0.00  0.00    -0.333 OA
BRANCH  28  29
ATOM     29  C   UNL     1      -8.348   5.428  65.564  0.00  0.00    +0.235 C 
ATOM     30  O   UNL     1      -8.865   5.396  64.110  0.00  0.00    -0.332 OA
ATOM     31  C   UNL     1      -7.778   4.345  63.901  0.00  0.00    +0.132 C 
ATOM     32  C   UNL     1      -8.107   4.274  62.295  0.00  0.00    +0.034 C 
ATOM     33  C   UNL     1      -8.699   2.915  64.193  0.00  0.00    +0.085 C 
ATOM     34  C   UNL     1     -10.007   3.616  64.846  0.00  0.00    +0.024 C 
ATOM     35  C   UNL     1      -9.557   4.357  66.054  0.00  0.00    +0.063 C 
BRANCH  33  36
ATOM     36  N   UNL     1      -8.173   2.636  65.633  0.00  0.00    -0.269 NA
ATOM     37  C   UNL     1      -6.899   2.448  65.847  0.00  0.00    +0.090 C 
ATOM     38  C   UNL     1      -9.036   1.561  66.094  0.00  0.00    +0.090 C 
ENDBRANCH  33  36
ENDBRANCH  28  29
ENDBRANCH  21  28
BRANCH  13  39
ATOM     39  O   UNL     1     -10.061  14.972  67.546  0.00  0.00    -0.356 OA
BRANCH  39  40
ATOM     40  C   UNL     1     -10.127  16.361  67.001  0.00  0.00    +0.145 C 
ATOM     41  C   UNL     1      -9.756  16.925  68.591  0.00  0.00    +0.172 C 
ATOM     42  C   UNL     1      -9.664  18.575  68.115  0.00  0.00    +0.172 C 
ATOM     43  C   UNL     1      -8.041  18.500  67.546  0.00  0.00    +0.145 C 
ATOM     44  C   UNL     1      -7.766  16.842  67.826  0.00  0.00    +0.032 C 
ATOM     45  C   UNL     1      -6.353  16.929  67.034  0.00  0.00    +0.003 C 
ATOM     46  C   UNL     1      -8.565  16.432  66.482  0.00  0.00    +0.035 C 
BRANCH  41  47
ATOM     47  O   UNL     1     -11.212  17.034  68.929  0.00  0.00    -0.349 OA
ATOM     48  C   UNL     1     -11.250  16.304  70.109  0.00  0.00    +0.174 C 
ENDBRANCH  41  47
BRANCH  43  49
ATOM     49  O   UNL     1      -7.539  18.849  68.927  0.00  0.00    -0.351 OA
ATOM     50  C   UNL     1      -6.743  19.936  68.803  0.00  0.00    +0.174 C 
ENDBRANCH  43  49
BRANCH  42  51
ATOM     51  O   UNL     1     -10.212  18.365  66.754  0.00  0.00    -0.349 OA
ATOM     52  C   UNL     1     -10.644  19.141  65.974  0.00  0.00    +0.174 C 
ENDBRANCH  42  51
ENDBRANCH  39  40
ENDBRANCH  13  39
TORSDOF 9
ENDMDL
MODEL 2
REMARK VINA RESULT:      -7.5      4.054     10.872
REMARK  Name = 
REMARK  9 active torsions:
REMARK  status: ('A' for Active; 'I' for Inactive)
REMARK    1  A    between atoms: C_2  and  C_3
REMARK    2  A    between atoms: C_7  and  O_8
REMARK    3  A    between atoms: O_8  and  C_9
REMARK    4  A    between atoms: C_12  and  N_13
REMARK    5  A    between atoms: C_31  and  O_32
REMARK    6  A    between atoms: O_32  and  C_33
REMARK    7  A    between atoms: C_37  and  O_38
REMARK    8  A    between atoms: C_40  and  O_41
REMARK    9  A    between atoms: C_43  and  O_44
REMARK                            x       y       z     vdW  Elec       q    Type
REMARK                         _______ _______ _______ _____ _____    ______ ____
ROOT
ATOM      1  C   UNL     1      -9.073   8.440  65.550  0.00  0.00    +0.169 C 
ATOM      2  O   UNL     1     -10.110   8.275  66.691  0.00  0.00    -0.452 OA
ATOM      3  C   UNL     1     -10.126   7.061  67.245  0.00  0.00    +0.317 C 
ATOM      4  O   UNL     1     -10.997   6.182  67.264  0.00  0.00    -0.250 OA
ATOM      5  C   UNL     1      -9.033   7.128  68.192  0.00  0.00    +0.114 C 
ATOM      6  C   UNL     1      -9.608   7.974  69.473  0.00  0.00    +0.040 C 
ATOM      7  C   UNL     1      -8.244   7.807  70.267  0.00  0.00    +0.009 C 
ATOM      8  C   UNL     1      -8.000   6.591  70.314  0.00  0.00    -0.028 C 
ATOM      9  C   UNL     1      -9.258   6.113  71.130  0.00  0.00    +0.027 C 
ATOM     10  C   UNL     1      -9.453   7.373  72.242  0.00  0.00    +0.011 C 
ATOM     11  C   UNL     1     -10.683   7.503  71.157  0.00  0.00    +0.025 C 
ATOM     12  C   UNL     1     -11.051   5.831  71.149  0.00  0.00    +0.034 C 
ATOM     13  C   UNL     1     -11.356   5.619  72.681  0.00  0.00    +0.116 C 
ATOM     14  C   UNL     1     -11.940   7.709  71.943  0.00  0.00    -0.031 C 
ATOM     15  C   UNL     1     -11.605   7.341  70.721  0.00  0.00    -0.030 C 
ATOM     16  C   UNL     1     -10.377   6.722  73.356  0.00  0.00    +0.030 C 
ATOM     17  C   UNL     1      -7.402   8.800  69.555  0.00  0.00    +0.171 C 
ATOM     18  O   UNL     1      -6.163   8.746  69.849  0.00  0.00    -0.292 OA
ATOM     19  C   UNL     1      -7.858  10.327  69.704  0.00  0.00    +0.089 C 
ATOM     20  C   UNL     1      -9.462  10.064  69.875  0.00  0.00    +0.011 C 
ATOM     21  C   UNL     1      -8.356  10.565  68.072  0.00  0.00    +0.125 C 
ATOM     22  C   UNL     1      -6.910  11.034  67.431  0.00  0.00    +0.030 C 
ATOM     23  C   UNL     1      -7.114  10.109  66.187  0.00  0.00    +0.006 C 
ATOM     24  C   UNL     1     -10.405   6.599  69.960  0.00  0.00    +0.030 C 
ATOM     25  C   UNL     1      -7.884   9.003  66.501  0.00  0.00    +0.044 C 
ENDROOT
BRANCH   1  27
ATOM     26  C   UNL     1      -9.813   9.938  64.364  0.00  0.00    +0.004 C 
ATOM     27  C   UNL     1      -9.791   9.886  65.169  0.00  0.00    +0.044 C 
ENDBRANCH   1  27
BRANCH  21  28
ATOM     28  O   UNL     1      -9.034  11.844  68.316  0.00  0.00    -0.333 OA
BRANCH  28  29
ATOM     29  C   UNL     1      -9.370  12.828  67.251  0.00  0.00    +0.235 C 
ATOM     30  O   UNL     1      -9.503  14.171  68.001  0.00  0.00    -0.332 OA
ATOM     31  C   UNL     1      -9.576  14.777  66.601  0.00  0.00    +0.132 C 
ATOM     32  C   UNL     1      -9.596  16.296  67.223  0.00  0.00    +0.034 C 
ATOM     33  C   UNL     1     -11.288  14.801  66.386  0.00  0.00    +0.085 C 
ATOM     34  C   UNL     1     -11.687  13.845  67.633  0.00  0.00    +0.024 C 
ATOM     35  C   UNL     1     -11.023  12.532  67.417  0.00  0.00    +0.063 C 
BRANCH  33  36
ATOM     36  N   UNL     1     -11.382  13.558  65.449  0.00  0.00    -0.269 NA
ATOM     37  C   UNL     1     -10.762  13.548  64.300  0.00  0.00    +0.090 C 
ATOM     38  C   UNL     1     -12.812  13.313  65.375  0.00  0.00    +0.090 C 
ENDBRANCH  33  36
ENDBRANCH  28  29
ENDBRANCH  21  28
BRANCH  13  39
ATOM     39  O   UNL     1     -10.222   4.578  72.676  0.00  0.00    -0.356 OA
BRANCH  39  40
ATOM     40  C   UNL     1     -10.944   3.374  73.184  0.00  0.00    +0.145 C 
ATOM     41  C   UNL     1      -9.576   2.438  72.699  0.00  0.00    +0.172 C 
ATOM     42  C   UNL     1     -10.199   0.971  73.346  0.00  0.00    +0.172 C 
ATOM     43  C   UNL     1      -9.680   1.261  74.962  0.00  0.00    +0.145 C 
ATOM     44  C   UNL     1      -8.994   2.802  74.719  0.00  0.00    +0.032 C 
ATOM     45  C   UNL     1      -8.804   2.983  76.320  0.00  0.00    +0.003 C 
ATOM     46  C   UNL     1     -10.447   3.507  74.750  0.00  0.00    +0.035 C 
BRANCH  41  47
ATOM     47  O   UNL     1     -10.186   2.181  71.354  0.00  0.00    -0.349 OA
ATOM     48  C   UNL     1      -9.058   2.268  70.549  0.00  0.00    +0.174 C 
ENDBRANCH  41  47
BRANCH  43  49
ATOM     49  O   UNL     1      -8.360   0.590  74.658  0.00  0.00    -0.351 OA
ATOM     50  C   UNL     1      -8.258  -0.484  75.476  0.00  0.00    +0.174 C 
ENDBRANCH  43  49
BRANCH  42  51
ATOM     51  O   UNL     1     -11.556   1.499  73.626  0.00  0.00    -0.349 OA
ATOM     52  C   UNL     1     -12.604   0.955  73.625  0.00  0.00    +0.174 C 
ENDBRANCH  42  51
ENDBRANCH  39  40
ENDBRANCH  13  39
TORSDOF 9
ENDMDL
MODEL 3
REMARK VINA RESULT:      -7.3      3.436      5.028
REMARK  Name = 
REMARK  9 active torsions:
REMARK  status: ('A' for Active; 'I' for Inactive)
REMARK    1  A    between atoms: C_2  and  C_3
REMARK    2  A    between atoms: C_7  and  O_8
REMARK    3  A    between atoms: O_8  and  C_9
REMARK    4  A    between atoms: C_12  and  N_13
REMARK    5  A    between atoms: C_31  and  O_32
REMARK    6  A    between atoms: O_32  and  C_33
REMARK    7  A    between atoms: C_37  and  O_38
REMARK    8  A    between atoms: C_40  and  O_41
REMARK    9  A    between atoms: C_43  and  O_44
REMARK                            x       y       z     vdW  Elec       q    Type
REMARK                         _______ _______ _______ _____ _____    ______ ____
ROOT
ATOM      1  C   UNL     1     -10.562   6.134  73.783  0.00  0.00    +0.169 C 
ATOM      2  O   UNL     1     -10.927   6.302  72.286  0.00  0.00    -0.452 OA
ATOM      3  C   UNL     1     -11.199   7.558  71.926  0.00  0.00    +0.317 C 
ATOM      4  O   UNL     1     -12.244   8.085  71.525  0.00  0.00    -0.250 OA
ATOM      5  C   UNL     1      -9.883   8.121  71.712  0.00  0.00    +0.114 C 
ATOM      6  C   UNL     1      -9.396   7.563  70.249  0.00  0.00    +0.040 C 
ATOM      7  C   UNL     1      -8.035   8.376  70.331  0.00  0.00    +0.009 C 
ATOM      8  C   UNL     1      -8.335   9.563  70.535  0.00  0.00    -0.028 C 
ATOM      9  C   UNL     1      -9.152   9.846  69.221  0.00  0.00    +0.027 C 
ATOM     10  C   UNL     1      -8.269   8.983  68.066  0.00  0.00    +0.011 C 
ATOM     11  C   UNL     1      -9.672   8.158  68.305  0.00  0.00    +0.025 C 
ATOM     12  C   UNL     1     -10.669   9.549  68.271  0.00  0.00    +0.034 C 
ATOM     13  C   UNL     1     -10.302  10.104  66.841  0.00  0.00    +0.116 C 
ATOM     14  C   UNL     1     -10.215   7.817  66.952  0.00  0.00    -0.031 C 
ATOM     15  C   UNL     1     -10.662   7.887  68.191  0.00  0.00    -0.030 C 
ATOM     16  C   UNL     1      -8.762   9.616  66.697  0.00  0.00    +0.030 C 
ATOM     17  C   UNL     1      -7.278   7.529  71.286  0.00  0.00    +0.171 C 
ATOM     18  O   UNL     1      -6.196   8.051  71.709  0.00  0.00    -0.292 OA
ATOM     19  C   UNL     1      -6.925   6.055  70.774  0.00  0.00    +0.089 C 
ATOM     20  C   UNL     1      -8.217   5.844  69.794  0.00  0.00    +0.011 C 
ATOM     21  C   UNL     1      -7.957   5.196  71.853  0.00  0.00    +0.125 C 
ATOM     22  C   UNL     1      -6.916   5.031  73.122  0.00  0.00    +0.030 C 
ATOM     23  C   UNL     1      -8.031   5.429  74.143  0.00  0.00    +0.006 C 
ATOM     24  C   UNL     1     -10.379   8.701  69.543  0.00  0.00    +0.030 C 
ATOM     25  C   UNL     1      -8.959   6.281  73.570  0.00  0.00    +0.044 C 
ENDROOT
BRANCH   1  27
ATOM     26  C   UNL     1     -11.410   4.347  73.250  0.00  0.00    +0.004 C 
ATOM     27  C   UNL     1     -10.689   4.492  73.583  0.00  0.00    +0.044 C 
ENDBRANCH   1  27
BRANCH  21  28
ATOM     28  O   UNL     1      -7.839   3.905  71.165  0.00  0.00    -0.333 OA
BRANCH  28  29
ATOM     29  C   UNL     1      -8.008   2.584  71.832  0.00  0.00    +0.235 C 
ATOM     30  O   UNL     1      -7.230   1.601  70.932  0.00  0.00    -0.332 OA
ATOM     31  C   UNL     1      -7.475   0.603  72.061  0.00  0.00    +0.132 C 
ATOM     32  C   UNL     1      -6.565  -0.532  71.302  0.00  0.00    +0.034 C 
ATOM     33  C   UNL     1      -8.931  -0.127  71.490  0.00  0.00    +0.085 C 
ATOM     34  C   UNL     1      -9.286   0.951  70.331  0.00  0.00    +0.024 C 
ATOM     35  C   UNL     1      -9.437   2.276  70.990  0.00  0.00    +0.063 C 
BRANCH  33  36
ATOM     36  N   UNL     1      -9.911   0.625  72.442  0.00  0.00    -0.269 NA
ATOM     37  C   UNL     1      -9.784   0.523  73.736  0.00  0.00    +0.090 C 
ATOM     38  C   UNL     1     -11.217   0.256  71.923  0.00  0.00    +0.090 C 
ENDBRANCH  33  36
ENDBRANCH  28  29
ENDBRANCH  21  28
BRANCH  13  39
ATOM     39  O   UNL     1      -9.853  11.395  67.552  0.00  0.00    -0.356 OA
BRANCH  39  40
ATOM     40  C   UNL     1     -10.692  12.409  66.846  0.00  0.00    +0.145 C 
ATOM     41  C   UNL     1     -10.868  13.213  68.364  0.00  0.00    +0.172 C 
ATOM     42  C   UNL     1     -11.742  14.537  67.698  0.00  0.00    +0.172 C 
ATOM     43  C   UNL     1     -10.356  15.410  67.169  0.00  0.00    +0.145 C 
ATOM     44  C   UNL     1      -9.169  14.286  67.648  0.00  0.00    +0.032 C 
ATOM     45  C   UNL     1      -8.028  15.143  66.875  0.00  0.00    +0.003 C 
ATOM     46  C   UNL     1      -9.446  13.366  66.349  0.00  0.00    +0.035 C 
BRANCH  41  47
ATOM     47  O   UNL     1     -12.122  12.448  68.662  0.00  0.00    -0.349 OA
ATOM     48  C   UNL     1     -12.062  12.403  70.048  0.00  0.00    +0.174 C 
ENDBRANCH  41  47
BRANCH  43  49
ATOM     49  O   UNL     1     -10.283  16.106  68.508  0.00  0.00    -0.351 OA
ATOM     50  C   UNL     1     -10.443  17.431  68.282  0.00  0.00    +0.174 C 
ENDBRANCH  43  49
BRANCH  42  51
ATOM     51  O   UNL     1     -11.938  13.924  66.362  0.00  0.00    -0.349 OA
ATOM     52  C   UNL     1     -12.810  14.062  65.577  0.00  0.00    +0.174 C 
ENDBRANCH  42  51
ENDBRANCH  39  40
ENDBRANCH  13  39
TORSDOF 9
ENDMDL
MODEL 4
REMARK VINA RESULT:      -7.3      3.605      5.733
REMARK  Name = 
REMARK  9 active torsions:
REMARK  status: ('A' for Active; 'I' for Inactive)
REMARK    1  A    between atoms: C_2  and  C_3
REMARK    2  A    between atoms: C_7  and  O_8
REMARK    3  A    between atoms: O_8  and  C_9
REMARK    4  A    between atoms: C_12  and  N_13
REMARK    5  A    between atoms: C_31  and  O_32
REMARK    6  A    between atoms: O_32  and  C_33
REMARK    7  A    between atoms: C_37  and  O_38
REMARK    8  A    between atoms: C_40  and  O_41
REMARK    9  A    between atoms: C_43  and  O_44
REMARK                            x       y       z     vdW  Elec       q    Type
REMARK                         _______ _______ _______ _____ _____    ______ ____
ROOT
ATOM      1  C   UNL     1      -9.257   7.301  74.011  0.00  0.00    +0.169 C 
ATOM      2  O   UNL     1      -9.996   7.246  72.650  0.00  0.00    -0.452 OA
ATOM      3  C   UNL     1     -10.111   8.428  72.040  0.00  0.00    +0.317 C 
ATOM      4  O   UNL     1     -11.104   9.112  71.765  0.00  0.00    -0.250 OA
ATOM      5  C   UNL     1      -8.828   8.575  71.385  0.00  0.00    +0.114 C 
ATOM      6  C   UNL     1      -8.898   7.622  70.054  0.00  0.00    +0.040 C 
ATOM      7  C   UNL     1      -7.441   8.054  69.599  0.00  0.00    +0.009 C 
ATOM      8  C   UNL     1      -7.433   9.294  69.543  0.00  0.00    -0.028 C 
ATOM      9  C   UNL     1      -8.522   9.503  68.426  0.00  0.00    +0.027 C 
ATOM     10  C   UNL     1      -8.192   8.222  67.371  0.00  0.00    +0.011 C 
ATOM     11  C   UNL     1      -9.600   7.854  68.139  0.00  0.00    +0.025 C 
ATOM     12  C   UNL     1     -10.276   9.417  67.966  0.00  0.00    +0.034 C 
ATOM     13  C   UNL     1     -10.233   9.552  66.395  0.00  0.00    +0.116 C 
ATOM     14  C   UNL     1     -10.563   7.393  67.089  0.00  0.00    -0.031 C 
ATOM     15  C   UNL     1     -10.613   7.830  68.333  0.00  0.00    -0.030 C 
ATOM     16  C   UNL     1      -8.924   8.664  66.035  0.00  0.00    +0.030 C 
ATOM     17  C   UNL     1      -6.621   7.256  70.544  0.00  0.00    +0.171 C 
ATOM     18  O   UNL     1      -5.383   7.557  70.551  0.00  0.00    -0.292 OA
ATOM     19  C   UNL     1      -6.723   5.669  70.377  0.00  0.00    +0.089 C 
ATOM     20  C   UNL     1      -8.256   5.601  69.815  0.00  0.00    +0.011 C 
ATOM     21  C   UNL     1      -7.548   5.346  71.854  0.00  0.00    +0.125 C 
ATOM     22  C   UNL     1      -6.240   5.183  72.846  0.00  0.00    +0.030 C 
ATOM     23  C   UNL     1      -6.916   6.057  73.952  0.00  0.00    +0.006 C 
ATOM     24  C   UNL     1      -9.803   8.804  69.315  0.00  0.00    +0.030 C 
ATOM     25  C   UNL     1      -7.785   6.982  73.403  0.00  0.00    +0.044 C 
ENDROOT
BRANCH   1  27
ATOM     26  C   UNL     1     -10.531   5.699  74.087  0.00  0.00    +0.004 C 
ATOM     27  C   UNL     1      -9.752   5.743  74.291  0.00  0.00    +0.044 C 
ENDBRANCH   1  27
BRANCH  21  28
ATOM     28  O   UNL     1      -7.884   3.955  71.529  0.00  0.00    -0.333 OA
BRANCH  28  29
ATOM     29  C   UNL     1      -8.222   2.918  72.542  0.00  0.00    +0.235 C 
ATOM     30  O   UNL     1      -7.823   1.586  71.870  0.00  0.00    -0.332 OA
ATOM     31  C   UNL     1      -8.093   0.981  73.246  0.00  0.00    +0.132 C 
ATOM     32  C   UNL     1      -7.577  -0.491  72.739  0.00  0.00    +0.034 C 
ATOM     33  C   UNL     1      -9.742   0.518  73.040  0.00  0.00    +0.085 C 
ATOM     34  C   UNL     1     -10.040   1.339  71.673  0.00  0.00    +0.024 C 
ATOM     35  C   UNL     1      -9.800   2.778  71.959  0.00  0.00    +0.063 C 
BRANCH  33  36
ATOM     36  N   UNL     1     -10.376   1.694  73.843  0.00  0.00    -0.269 NA
ATOM     37  C   UNL     1     -10.138   1.828  75.119  0.00  0.00    +0.090 C 
ATOM     38  C   UNL     1     -11.783   1.611  73.489  0.00  0.00    +0.090 C 
ENDBRANCH  33  36
ENDBRANCH  28  29
ENDBRANCH  21  28
BRANCH  13  39
ATOM     39  O   UNL     1      -9.358  10.801  66.612  0.00  0.00    -0.356 OA
BRANCH  39  40
ATOM     40  C   UNL     1     -10.372  11.765  67.134  0.00  0.00    +0.145 C 
ATOM     41  C   UNL     1      -9.332  13.036  66.598  0.00  0.00    +0.172 C 
ATOM     42  C   UNL     1     -10.438  14.284  67.021  0.00  0.00    +0.172 C 
ATOM     43  C   UNL     1     -11.377  14.175  65.583  0.00  0.00    +0.145 C 
ATOM     44  C   UNL     1     -10.545  12.882  64.851  0.00  0.00    +0.032 C 
ATOM     45  C   UNL     1     -11.682  12.786  63.697  0.00  0.00    +0.003 C 
ATOM     46  C   UNL     1     -11.309  11.801  65.778  0.00  0.00    +0.035 C 
BRANCH  41  47
ATOM     47  O   UNL     1      -8.655  13.091  67.935  0.00  0.00    -0.349 OA
ATOM     48  C   UNL     1      -7.356  13.385  67.545  0.00  0.00    +0.174 C 
ENDBRANCH  41  47
BRANCH  43  49
ATOM     49  O   UNL     1     -10.469  15.181  64.913  0.00  0.00    -0.351 OA
ATOM     50  C   UNL     1     -11.227  16.255  64.592  0.00  0.00    +0.174 C 
ENDBRANCH  43  49
BRANCH  42  51
ATOM     51  O   UNL     1     -11.371  13.404  67.766  0.00  0.00    -0.349 OA
ATOM     52  C   UNL     1     -11.987  13.604  68.754  0.00  0.00    +0.174 C 
ENDBRANCH  42  51
ENDBRANCH  39  40
ENDBRANCH  13  39
TORSDOF 9
ENDMDL
MODEL 5
REMARK VINA RESULT:      -7.2      3.137     10.706
REMARK  Name = 
REMARK  9 active torsions:
REMARK  status: ('A' for Active; 'I' for Inactive)
REMARK    1  A    between atoms: C_2  and  C_3
REMARK    2  A    between atoms: C_7  and  O_8
REMARK    3  A    between atoms: O_8  and  C_9
REMARK    4  A    between atoms: C_12  and  N_13
REMARK    5  A    between atoms: C_31  and  O_32
REMARK    6  A    between atoms: O_32  and  C_33
REMARK    7  A    between atoms: C_37  and  O_38
REMARK    8  A    between atoms: C_40  and  O_41
REMARK    9  A    between atoms: C_43  and  O_44
REMARK                            x       y       z     vdW  Elec       q    Type
REMARK                         _______ _______ _______ _____ _____    ______ ____
ROOT
ATOM      1  C   UNL     1     -12.389  13.334  68.626  0.00  0.00    +0.169 C 
ATOM      2  O   UNL     1     -11.216  12.686  69.406  0.00  0.00    -0.452 OA
ATOM      3  C   UNL     1     -11.360  11.378  69.623  0.00  0.00    +0.317 C 
ATOM      4  O   UNL     1     -11.499  10.734  70.670  0.00  0.00    -0.250 OA
ATOM      5  C   UNL     1     -10.908  10.795  68.377  0.00  0.00    +0.114 C 
ATOM      6  C   UNL     1      -9.270  10.859  68.427  0.00  0.00    +0.040 C 
ATOM      7  C   UNL     1      -9.144  10.137  67.019  0.00  0.00    +0.009 C 
ATOM      8  C   UNL     1      -9.782   9.075  67.100  0.00  0.00    -0.028 C 
ATOM      9  C   UNL     1      -8.955   8.370  68.238  0.00  0.00    +0.027 C 
ATOM     10  C   UNL     1      -7.372   8.828  67.856  0.00  0.00    +0.011 C 
ATOM     11  C   UNL     1      -7.795   9.665  69.209  0.00  0.00    +0.025 C 
ATOM     12  C   UNL     1      -8.507   8.323  69.996  0.00  0.00    +0.034 C 
ATOM     13  C   UNL     1      -7.273   7.342  70.017  0.00  0.00    +0.116 C 
ATOM     14  C   UNL     1      -6.657   9.543  70.173  0.00  0.00    -0.031 C 
ATOM     15  C   UNL     1      -7.934   9.870  70.211  0.00  0.00    -0.030 C 
ATOM     16  C   UNL     1      -6.495   7.781  68.663  0.00  0.00    +0.030 C 
ATOM     17  C   UNL     1      -9.499  11.258  66.115  0.00  0.00    +0.171 C 
ATOM     18  O   UNL     1      -9.683  10.917  64.901  0.00  0.00    -0.292 OA
ATOM     19  C   UNL     1      -8.483  12.493  66.111  0.00  0.00    +0.089 C 
ATOM     20  C   UNL     1      -7.962  12.358  67.655  0.00  0.00    +0.011 C 
ATOM     21  C   UNL     1      -9.528  13.639  66.861  0.00  0.00    +0.125 C 
ATOM     22  C   UNL     1     -10.278  14.220  65.511  0.00  0.00    +0.030 C 
ATOM     23  C   UNL     1     -11.676  14.156  66.208  0.00  0.00    +0.006 C 
ATOM     24  C   UNL     1      -9.299   9.539  69.436  0.00  0.00    +0.030 C 
ATOM     25  C   UNL     1     -11.720  13.150  67.157  0.00  0.00    +0.044 C 
ENDROOT
BRANCH   1  27
ATOM     26  C   UNL     1     -11.978  14.990  69.759  0.00  0.00    +0.004 C 
ATOM     27  C   UNL     1     -11.758  14.821  69.002  0.00  0.00    +0.044 C 
ENDBRANCH   1  27
BRANCH  21  28
ATOM     28  O   UNL     1      -8.486  14.641  67.111  0.00  0.00    -0.333 OA
BRANCH  28  29
ATOM     29  C   UNL     1      -8.550  16.050  66.636  0.00  0.00    +0.235 C 
ATOM     30  O   UNL     1      -7.076  16.507  66.597  0.00  0.00    -0.332 OA
ATOM     31  C   UNL     1      -7.630  17.742  65.891  0.00  0.00    +0.132 C 
ATOM     32  C   UNL     1      -6.116  18.323  65.645  0.00  0.00    +0.034 C 
ATOM     33  C   UNL     1      -7.849  18.779  67.253  0.00  0.00    +0.085 C 
ATOM     34  C   UNL     1      -7.673  17.664  68.418  0.00  0.00    +0.024 C 
ATOM     35  C   UNL     1      -8.725  16.635  68.209  0.00  0.00    +0.063 C 
BRANCH  33  36
ATOM     36  N   UNL     1      -9.394  18.613  67.377  0.00  0.00    -0.269 NA
ATOM     37  C   UNL     1     -10.181  19.010  66.414  0.00  0.00    +0.090 C 
ATOM     38  C   UNL     1      -9.681  19.190  68.679  0.00  0.00    +0.090 C 
ENDBRANCH  33  36
ENDBRANCH  28  29
ENDBRANCH  21  28
BRANCH  13  39
ATOM     39  O   UNL     1      -8.151   6.356  69.225  0.00  0.00    -0.356 OA
BRANCH  39  40
ATOM     40  C   UNL     1      -8.076   5.148  70.099  0.00  0.00    +0.145 C 
ATOM     41  C   UNL     1      -9.557   4.625  69.380  0.00  0.00    +0.172 C 
ATOM     42  C   UNL     1      -9.568   3.118  70.210  0.00  0.00    +0.172 C 
ATOM     43  C   UNL     1      -8.517   2.309  69.112  0.00  0.00    +0.145 C 
ATOM     44  C   UNL     1      -8.211   3.619  68.066  0.00  0.00    +0.032 C 
ATOM     45  C   UNL     1      -7.071   2.756  67.299  0.00  0.00    +0.003 C 
ATOM     46  C   UNL     1      -7.132   4.248  69.091  0.00  0.00    +0.035 C 
BRANCH  41  47
ATOM     47  O   UNL     1     -10.356   5.299  70.455  0.00  0.00    -0.349 OA
ATOM     48  C   UNL     1     -11.312   5.946  69.686  0.00  0.00    +0.174 C 
ENDBRANCH  41  47
BRANCH  43  49
ATOM     49  O   UNL     1      -9.708   1.885  68.285  0.00  0.00    -0.351 OA
ATOM     50  C   UNL     1      -9.726   0.532  68.273  0.00  0.00    +0.174 C 
ENDBRANCH  43  49
BRANCH  42  51
ATOM     51  O   UNL     1      -8.450   3.449  71.127  0.00  0.00    -0.349 OA
ATOM     52  C   UNL     1      -8.243   3.102  72.237  0.00  0.00    +0.174 C 
ENDBRANCH  42  51
ENDBRANCH  39  40
ENDBRANCH  13  39
TORSDOF 9
ENDMDL
MODEL 6
REMARK VINA RESULT:      -7.2      3.839     10.593
REMARK  Name = 
REMARK  9 active torsions:
REMARK  status: ('A' for Active; 'I' for Inactive)
REMARK    1  A    between atoms: C_2  and  C_3
REMARK    2  A    between atoms: C_7  and  O_8
REMARK    3  A    between atoms: O_8  and  C_9
REMARK    4  A    between atoms: C_12  and  N_13
REMARK    5  A    between atoms: C_31  and  O_32
REMARK    6  A    between atoms: O_32  and  C_33
REMARK    7  A    between atoms: C_37  and  O_38
REMARK    8  A    between atoms: C_40  and  O_41
REMARK    9  A    between atoms: C_43  and  O_44
REMARK                            x       y       z     vdW  Elec       q    Type
REMARK                         _______ _______ _______ _____ _____    ______ ____
ROOT
ATOM      1  C   UNL     1      -6.081  17.244  69.831  0.00  0.00    +0.169 C 
ATOM      2  O   UNL     1      -6.168  15.956  68.973  0.00  0.00    -0.452 OA
ATOM      3  C   UNL     1      -6.740  14.922  69.593  0.00  0.00    +0.317 C 
ATOM      4  O   UNL     1      -6.287  13.827  69.944  0.00  0.00    -0.250 OA
ATOM      5  C   UNL     1      -8.153  15.186  69.414  0.00  0.00    +0.114 C 
ATOM      6  C   UNL     1      -8.494  14.748  67.872  0.00  0.00    +0.040 C 
ATOM      7  C   UNL     1     -10.030  15.106  68.051  0.00  0.00    +0.009 C 
ATOM      8  C   UNL     1     -10.435  14.473  69.039  0.00  0.00    -0.028 C 
ATOM      9  C   UNL     1     -10.193  13.008  68.516  0.00  0.00    +0.027 C 
ATOM     10  C   UNL     1     -10.617  13.144  66.884  0.00  0.00    +0.011 C 
ATOM     11  C   UNL     1      -8.980  12.986  66.938  0.00  0.00    +0.025 C 
ATOM     12  C   UNL     1      -8.992  11.717  68.088  0.00  0.00    +0.034 C 
ATOM     13  C   UNL     1      -9.872  10.664  67.311  0.00  0.00    +0.116 C 
ATOM     14  C   UNL     1      -8.605  11.963  65.911  0.00  0.00    -0.031 C 
ATOM     15  C   UNL     1      -8.057  12.524  66.972  0.00  0.00    -0.030 C 
ATOM     16  C   UNL     1     -10.845  11.635  66.450  0.00  0.00    +0.030 C 
ATOM     17  C   UNL     1      -9.966  16.586  67.976  0.00  0.00    +0.171 C 
ATOM     18  O   UNL     1     -11.049  17.176  68.296  0.00  0.00    -0.292 OA
ATOM     19  C   UNL     1      -9.496  17.189  66.571  0.00  0.00    +0.089 C 
ATOM     20  C   UNL     1      -8.529  15.953  66.112  0.00  0.00    +0.011 C 
ATOM     21  C   UNL     1      -7.978  17.810  67.097  0.00  0.00    +0.125 C 
ATOM     22  C   UNL     1      -8.474  19.302  67.598  0.00  0.00    +0.030 C 
ATOM     23  C   UNL     1      -7.624  19.192  68.905  0.00  0.00    +0.006 C 
ATOM     24  C   UNL     1      -8.498  13.164  68.375  0.00  0.00    +0.030 C 
ATOM     25  C   UNL     1      -7.482  17.876  69.306  0.00  0.00    +0.044 C 
ENDROOT
BRANCH   1  27
ATOM     26  C   UNL     1      -4.316  17.767  68.933  0.00  0.00    +0.004 C 
ATOM     27  C   UNL     1      -5.073  17.888  68.682  0.00  0.00    +0.044 C 
ENDBRANCH   1  27
BRANCH  21  28
ATOM     28  O   UNL     1      -7.458  18.076  65.751  0.00  0.00    -0.333 OA
BRANCH  28  29
ATOM     29  C   UNL     1      -6.473  19.145  65.430  0.00  0.00    +0.235 C 
ATOM     30  O   UNL     1      -6.438  19.181  63.888  0.00  0.00    -0.332 OA
ATOM     31  C   UNL     1      -5.599  20.442  64.083  0.00  0.00    +0.132 C 
ATOM     32  C   UNL     1      -5.566  20.713  62.465  0.00  0.00    +0.034 C 
ATOM     33  C   UNL     1      -4.020  19.748  64.039  0.00  0.00    +0.085 C 
ATOM     34  C   UNL     1      -4.451  18.191  64.183  0.00  0.00    +0.024 C 
ATOM     35  C   UNL     1      -5.187  18.052  65.467  0.00  0.00    +0.063 C 
BRANCH  33  36
ATOM     36  N   UNL     1      -3.751  19.779  65.574  0.00  0.00    -0.269 NA
ATOM     37  C   UNL     1      -3.673  20.917  66.209  0.00  0.00    +0.090 C 
ATOM     38  C   UNL     1      -2.591  18.916  65.720  0.00  0.00    +0.090 C 
ENDBRANCH  33  36
ENDBRANCH  28  29
ENDBRANCH  21  28
BRANCH  13  39
ATOM     39  O   UNL     1     -10.838  10.715  68.509  0.00  0.00    -0.356 OA
BRANCH  39  40
ATOM     40  C   UNL     1     -10.042   9.986  69.541  0.00  0.00    +0.145 C 
ATOM     41  C   UNL     1     -11.540   9.559  70.289  0.00  0.00    +0.172 C 
ATOM     42  C   UNL     1     -10.799   8.568  71.484  0.00  0.00    +0.172 C 
ATOM     43  C   UNL     1     -10.667   7.169  70.489  0.00  0.00    +0.145 C 
ATOM     44  C   UNL     1     -11.312   7.832  69.058  0.00  0.00    +0.032 C 
ATOM     45  C   UNL     1     -10.886   6.501  68.235  0.00  0.00    +0.003 C 
ATOM     46  C   UNL     1      -9.916   8.568  68.712  0.00  0.00    +0.035 C 
BRANCH  41  47
ATOM     47  O   UNL     1     -11.486  10.773  71.167  0.00  0.00    -0.349 OA
ATOM     48  C   UNL     1     -12.842  11.013  71.343  0.00  0.00    +0.174 C 
ENDBRANCH  41  47
BRANCH  43  49
ATOM     49  O   UNL     1     -12.038   6.720  70.938  0.00  0.00    -0.351 OA
ATOM     50  C   UNL     1     -11.862   5.866  71.973  0.00  0.00    +0.174 C 
ENDBRANCH  43  49
BRANCH  42  51
ATOM     51  O   UNL     1      -9.410   8.987  71.180  0.00  0.00    -0.349 OA
ATOM     52  C   UNL     1      -8.408   8.812  71.782  0.00  0.00    +0.174 C 
ENDBRANCH  42  51
ENDBRANCH  39  40
ENDBRANCH  13  39
TORSDOF 9
ENDMDL
MODEL 7
REMARK VINA RESULT:      -7.1      3.113     10.754
REMARK  Name = 
REMARK  9 active torsions:
REMARK  status: ('A' for Active; 'I' for Inactive)
REMARK    1  A    between atoms: C_2  and  C_3
REMARK    2  A    between atoms: C_7  and  O_8
REMARK    3  A    between atoms: O_8  and  C_9
REMARK    4  A    between atoms: C_12  and  N_13
REMARK    5  A    between atoms: C_31  and  O_32
REMARK    6  A    between atoms: O_32  and  C_33
REMARK    7  A    between atoms: C_37  and  O_38
REMARK    8  A    between atoms: C_40  and  O_41
REMARK    9  A    between atoms: C_43  and  O_44
REMARK                            x       y       z     vdW  Elec       q    Type
REMARK                         _______ _______ _______ _____ _____    ______ ____
ROOT
ATOM      1  C   UNL     1     -12.400  13.206  68.695  0.00  0.00    +0.169 C 
ATOM      2  O   UNL     1     -11.296  12.505  69.528  0.00  0.00    -0.452 OA
ATOM      3  C   UNL     1     -11.529  11.213  69.769  0.00  0.00    +0.317 C 
ATOM      4  O   UNL     1     -11.743  10.604  70.824  0.00  0.00    -0.250 OA
ATOM      5  C   UNL     1     -11.074  10.575  68.552  0.00  0.00    +0.114 C 
ATOM      6  C   UNL     1      -9.438  10.538  68.656  0.00  0.00    +0.040 C 
ATOM      7  C   UNL     1      -9.311   9.776  67.270  0.00  0.00    +0.009 C 
ATOM      8  C   UNL     1     -10.017   8.758  67.351  0.00  0.00    -0.028 C 
ATOM      9  C   UNL     1      -9.274   8.031  68.532  0.00  0.00    +0.027 C 
ATOM     10  C   UNL     1      -7.653   8.380  68.195  0.00  0.00    +0.011 C 
ATOM     11  C   UNL     1      -8.068   9.273  69.514  0.00  0.00    +0.025 C 
ATOM     12  C   UNL     1      -8.888   7.997  70.306  0.00  0.00    +0.034 C 
ATOM     13  C   UNL     1      -7.719   6.941  70.390  0.00  0.00    +0.116 C 
ATOM     14  C   UNL     1      -6.971   9.104  70.519  0.00  0.00    -0.031 C 
ATOM     15  C   UNL     1      -8.226   9.510  70.506  0.00  0.00    -0.030 C 
ATOM     16  C   UNL     1      -6.872   7.299  69.054  0.00  0.00    +0.030 C 
ATOM     17  C   UNL     1      -9.565  10.895  66.329  0.00  0.00    +0.171 C 
ATOM     18  O   UNL     1      -9.730  10.538  65.118  0.00  0.00    -0.292 OA
ATOM     19  C   UNL     1      -8.474  12.065  66.334  0.00  0.00    +0.089 C 
ATOM     20  C   UNL     1      -8.014  11.933  67.898  0.00  0.00    +0.011 C 
ATOM     21  C   UNL     1      -9.469  13.290  67.023  0.00  0.00    +0.125 C 
ATOM     22  C   UNL     1     -10.136  13.885  65.636  0.00  0.00    +0.030 C 
ATOM     23  C   UNL     1     -11.557  13.924  66.285  0.00  0.00    +0.006 C 
ATOM     24  C   UNL     1      -9.583   9.247  69.692  0.00  0.00    +0.030 C 
ATOM     25  C   UNL     1     -11.696  12.946  67.254  0.00  0.00    +0.044 C 
ENDROOT
BRANCH   1  27
ATOM     26  C   UNL     1     -11.931  14.865  69.802  0.00  0.00    +0.004 C 
ATOM     27  C   UNL     1     -11.689  14.660  69.060  0.00  0.00    +0.044 C 
ENDBRANCH   1  27
BRANCH  21  28
ATOM     28  O   UNL     1      -8.374  14.231  67.287  0.00  0.00    -0.333 OA
BRANCH  28  29
ATOM     29  C   UNL     1      -8.332  15.629  66.777  0.00  0.00    +0.235 C 
ATOM     30  O   UNL     1      -6.840  16.015  66.845  0.00  0.00    -0.332 OA
ATOM     31  C   UNL     1      -7.277  17.257  66.071  0.00  0.00    +0.132 C 
ATOM     32  C   UNL     1      -5.721  17.760  65.932  0.00  0.00    +0.034 C 
ATOM     33  C   UNL     1      -7.550  18.337  67.389  0.00  0.00    +0.085 C 
ATOM     34  C   UNL     1      -7.519  17.246  68.588  0.00  0.00    +0.024 C 
ATOM     35  C   UNL     1      -8.601  16.261  68.319  0.00  0.00    +0.063 C 
BRANCH  33  36
ATOM     36  N   UNL     1      -9.106  18.247  67.393  0.00  0.00    -0.269 NA
ATOM     37  C   UNL     1      -9.795  18.637  66.355  0.00  0.00    +0.090 C 
ATOM     38  C   UNL     1      -9.467  18.892  68.645  0.00  0.00    +0.090 C 
ENDBRANCH  33  36
ENDBRANCH  28  29
ENDBRANCH  21  28
BRANCH  13  39
ATOM     39  O   UNL     1      -8.632   5.994  69.589  0.00  0.00    -0.356 OA
BRANCH  39  40
ATOM     40  C   UNL     1      -7.745   4.801  69.451  0.00  0.00    +0.145 C 
ATOM     41  C   UNL     1      -9.084   3.837  69.961  0.00  0.00    +0.172 C 
ATOM     42  C   UNL     1      -8.253   2.348  69.736  0.00  0.00    +0.172 C 
ATOM     43  C   UNL     1      -8.558   2.235  68.046  0.00  0.00    +0.145 C 
ATOM     44  C   UNL     1      -9.400   3.704  67.856  0.00  0.00    +0.032 C 
ATOM     45  C   UNL     1      -9.373   3.525  66.244  0.00  0.00    +0.003 C 
ATOM     46  C   UNL     1      -8.022   4.548  67.847  0.00  0.00    +0.035 C 
BRANCH  41  47
ATOM     47  O   UNL     1      -8.654   3.937  71.394  0.00  0.00    -0.349 OA
ATOM     48  C   UNL     1      -9.890   4.015  72.020  0.00  0.00    +0.174 C 
ENDBRANCH  41  47
BRANCH  43  49
ATOM     49  O   UNL     1      -9.846   1.496  68.327  0.00  0.00    -0.351 OA
ATOM     50  C   UNL     1      -9.705   0.242  67.839  0.00  0.00    +0.174 C 
ENDBRANCH  43  49
BRANCH  42  51
ATOM     51  O   UNL     1      -6.920   2.957  69.513  0.00  0.00    -0.349 OA
ATOM     52  C   UNL     1      -5.840   2.548  69.762  0.00  0.00    +0.174 C 
ENDBRANCH  42  51
ENDBRANCH  39  40
ENDBRANCH  13  39
TORSDOF 9
ENDMDL
MODEL 8
REMARK VINA RESULT:      -6.9      3.036     10.640
REMARK  Name = 
REMARK  9 active torsions:
REMARK  status: ('A' for Active; 'I' for Inactive)
REMARK    1  A    between atoms: C_2  and  C_3
REMARK    2  A    between atoms: C_7  and  O_8
REMARK    3  A    between atoms: O_8  and  C_9
REMARK    4  A    between atoms: C_12  and  N_13
REMARK    5  A    between atoms: C_31  and  O_32
REMARK    6  A    between atoms: O_32  and  C_33
REMARK    7  A    between atoms: C_37  and  O_38
REMARK    8  A    between atoms: C_40  and  O_41
REMARK    9  A    between atoms: C_43  and  O_44
REMARK                            x       y       z     vdW  Elec       q    Type
REMARK                         _______ _______ _______ _____ _____    ______ ____
ROOT
ATOM      1  C   UNL     1     -12.414  13.581  68.525  0.00  0.00    +0.169 C 
ATOM      2  O   UNL     1     -11.162  12.941  69.178  0.00  0.00    -0.452 OA
ATOM      3  C   UNL     1     -11.305  11.650  69.486  0.00  0.00    +0.317 C 
ATOM      4  O   UNL     1     -11.317  11.067  70.577  0.00  0.00    -0.250 OA
ATOM      5  C   UNL     1     -11.036  10.990  68.226  0.00  0.00    +0.114 C 
ATOM      6  C   UNL     1      -9.406  11.007  68.056  0.00  0.00    +0.040 C 
ATOM      7  C   UNL     1      -9.484  10.208  66.687  0.00  0.00    +0.009 C 
ATOM      8  C   UNL     1     -10.130   9.172  66.911  0.00  0.00    -0.028 C 
ATOM      9  C   UNL     1      -9.174   8.504  67.968  0.00  0.00    +0.027 C 
ATOM     10  C   UNL     1      -7.647   8.894  67.355  0.00  0.00    +0.011 C 
ATOM     11  C   UNL     1      -7.867   9.813  68.702  0.00  0.00    +0.025 C 
ATOM     12  C   UNL     1      -8.498   8.536  69.651  0.00  0.00    +0.034 C 
ATOM     13  C   UNL     1      -7.294   7.521  69.565  0.00  0.00    +0.116 C 
ATOM     14  C   UNL     1      -6.613   9.709  69.513  0.00  0.00    -0.031 C 
ATOM     15  C   UNL     1      -7.866  10.075  69.700  0.00  0.00    -0.030 C 
ATOM     16  C   UNL     1      -6.694   7.864  68.097  0.00  0.00    +0.030 C 
ATOM     17  C   UNL     1      -9.932  11.290  65.775  0.00  0.00    +0.171 C 
ATOM     18  O   UNL     1     -10.284  10.891  64.618  0.00  0.00    -0.292 OA
ATOM     19  C   UNL     1      -8.898  12.493  65.568  0.00  0.00    +0.089 C 
ATOM     20  C   UNL     1      -8.179  12.423  67.035  0.00  0.00    +0.011 C 
ATOM     21  C   UNL     1      -9.808  13.707  66.383  0.00  0.00    +0.125 C 
ATOM     22  C   UNL     1     -10.718  14.238  65.113  0.00  0.00    +0.030 C 
ATOM     23  C   UNL     1     -12.011  14.252  65.991  0.00  0.00    +0.006 C 
ATOM     24  C   UNL     1      -9.329   9.744  69.133  0.00  0.00    +0.030 C 
ATOM     25  C   UNL     1     -11.951  13.300  66.994  0.00  0.00    +0.044 C 
ENDROOT
BRANCH   1  27
ATOM     26  C   UNL     1     -11.898  15.324  69.469  0.00  0.00    +0.004 C 
ATOM     27  C   UNL     1     -11.705  15.067  68.729  0.00  0.00    +0.044 C 
ENDBRANCH   1  27
BRANCH  21  28
ATOM     28  O   UNL     1      -8.719  14.689  66.437  0.00  0.00    -0.333 OA
BRANCH  28  29
ATOM     29  C   UNL     1      -8.840  16.038  67.054  0.00  0.00    +0.235 C 
ATOM     30  O   UNL     1      -9.459  16.912  65.942  0.00  0.00    -0.332 OA
ATOM     31  C   UNL     1      -9.590  17.962  67.044  0.00  0.00    +0.132 C 
ATOM     32  C   UNL     1     -10.386  18.977  66.029  0.00  0.00    +0.034 C 
ATOM     33  C   UNL     1      -8.111  18.818  66.804  0.00  0.00    +0.085 C 
ATOM     34  C   UNL     1      -7.386  17.748  65.824  0.00  0.00    +0.024 C 
ATOM     35  C   UNL     1      -7.281  16.465  66.568  0.00  0.00    +0.063 C 
BRANCH  33  36
ATOM     36  N   UNL     1      -7.331  18.196  68.002  0.00  0.00    -0.269 NA
ATOM     37  C   UNL     1      -7.688  18.456  69.230  0.00  0.00    +0.090 C 
ATOM     38  C   UNL     1      -5.947  18.509  67.688  0.00  0.00    +0.090 C 
ENDBRANCH  33  36
ENDBRANCH  28  29
ENDBRANCH  21  28
BRANCH  13  39
ATOM     39  O   UNL     1      -8.292   6.521  68.951  0.00  0.00    -0.356 OA
BRANCH  39  40
ATOM     40  C   UNL     1      -8.135   5.363  69.880  0.00  0.00    +0.145 C 
ATOM     41  C   UNL     1      -9.633   4.762  69.267  0.00  0.00    +0.172 C 
ATOM     42  C   UNL     1      -9.556   3.301  70.172  0.00  0.00    +0.172 C 
ATOM     43  C   UNL     1      -8.537   2.466  69.063  0.00  0.00    +0.145 C 
ATOM     44  C   UNL     1      -8.325   3.727  67.938  0.00  0.00    +0.032 C 
ATOM     45  C   UNL     1      -7.199   2.858  67.157  0.00  0.00    +0.003 C 
ATOM     46  C   UNL     1      -7.216   4.440  68.872  0.00  0.00    +0.035 C 
BRANCH  41  47
ATOM     47  O   UNL     1     -10.398   5.468  70.346  0.00  0.00    -0.349 OA
ATOM     48  C   UNL     1     -11.379   6.092  69.590  0.00  0.00    +0.174 C 
ENDBRANCH  41  47
BRANCH  43  49
ATOM     49  O   UNL     1      -9.754   1.965  68.322  0.00  0.00    -0.351 OA
ATOM     50  C   UNL     1      -9.726   0.613  68.369  0.00  0.00    +0.174 C 
ENDBRANCH  43  49
BRANCH  42  51
ATOM     51  O   UNL     1      -8.404   3.710  71.011  0.00  0.00    -0.349 OA
ATOM     52  C   UNL     1      -8.124   3.418  72.121  0.00  0.00    +0.174 C 
ENDBRANCH  42  51
ENDBRANCH  39  40
ENDBRANCH  13  39
TORSDOF 9
ENDMDL
MODEL 9
REMARK VINA RESULT:      -6.7      3.880     10.467
REMARK  Name = 
REMARK  9 active torsions:
REMARK  status: ('A' for Active; 'I' for Inactive)
REMARK    1  A    between atoms: C_2  and  C_3
REMARK    2  A    between atoms: C_7  and  O_8
REMARK    3  A    between atoms: O_8  and  C_9
REMARK    4  A    between atoms: C_12  and  N_13
REMARK    5  A    between atoms: C_31  and  O_32
REMARK    6  A    between atoms: O_32  and  C_33
REMARK    7  A    between atoms: C_37  and  O_38
REMARK    8  A    between atoms: C_40  and  O_41
REMARK    9  A    between atoms: C_43  and  O_44
REMARK                            x       y       z     vdW  Elec       q    Type
REMARK                         _______ _______ _______ _____ _____    ______ ____
ROOT
ATOM      1  C   UNL     1      -9.084   9.078  64.922  0.00  0.00    +0.169 C 
ATOM      2  O   UNL     1      -9.899   9.094  66.241  0.00  0.00    -0.452 OA
ATOM      3  C   UNL     1     -10.028   7.897  66.818  0.00  0.00    +0.317 C 
ATOM      4  O   UNL     1     -11.023   7.192  67.024  0.00  0.00    -0.250 OA
ATOM      5  C   UNL     1      -8.782   7.756  67.541  0.00  0.00    +0.114 C 
ATOM      6  C   UNL     1      -8.941   8.680  68.886  0.00  0.00    +0.040 C 
ATOM      7  C   UNL     1      -7.504   8.260  69.413  0.00  0.00    +0.009 C 
ATOM      8  C   UNL     1      -7.480   7.020  69.444  0.00  0.00    -0.028 C 
ATOM      9  C   UNL     1      -8.625   6.771  70.494  0.00  0.00    +0.027 C 
ATOM     10  C   UNL     1      -8.375   8.034  71.591  0.00  0.00    +0.011 C 
ATOM     11  C   UNL     1      -9.745   8.397  70.753  0.00  0.00    +0.025 C 
ATOM     12  C   UNL     1     -10.403   6.820  70.857  0.00  0.00    +0.034 C 
ATOM     13  C   UNL     1     -10.445   6.652  72.424  0.00  0.00    +0.116 C 
ATOM     14  C   UNL     1     -10.772   8.820  71.756  0.00  0.00    -0.031 C 
ATOM     15  C   UNL     1     -10.746   8.409  70.503  0.00  0.00    -0.030 C 
ATOM     16  C   UNL     1      -9.173   7.552  72.874  0.00  0.00    +0.030 C 
ATOM     17  C   UNL     1      -6.647   9.090  68.531  0.00  0.00    +0.171 C 
ATOM     18  O   UNL     1      -5.406   8.809  68.587  0.00  0.00    -0.292 OA
ATOM     19  C   UNL     1      -6.784  10.673  68.724  0.00  0.00    +0.089 C 
ATOM     20  C   UNL     1      -8.347  10.704  69.200  0.00  0.00    +0.011 C 
ATOM     21  C   UNL     1      -7.531  11.013  67.210  0.00  0.00    +0.125 C 
ATOM     22  C   UNL     1      -6.172  11.217  66.296  0.00  0.00    +0.030 C 
ATOM     23  C   UNL     1      -6.771  10.357  65.136  0.00  0.00    +0.006 C 
ATOM     24  C   UNL     1      -9.866   7.468  69.548  0.00  0.00    +0.030 C 
ATOM     25  C   UNL     1      -7.654   9.407  65.618  0.00  0.00    +0.044 C 
ENDROOT
BRANCH   1  27
ATOM     26  C   UNL     1     -10.368  10.600  64.440  0.00  0.00    +0.004 C 
ATOM     27  C   UNL     1      -9.589  10.634  64.646  0.00  0.00    +0.044 C 
ENDBRANCH   1  27
BRANCH  21  28
ATOM     28  O   UNL     1      -7.908  12.392  67.544  0.00  0.00    -0.333 OA
BRANCH  28  29
ATOM     29  C   UNL     1      -9.300  12.915  67.484  0.00  0.00    +0.235 C 
ATOM     30  O   UNL     1      -9.353  13.707  66.160  0.00  0.00    -0.332 OA
ATOM     31  C   UNL     1     -10.853  13.785  66.437  0.00  0.00    +0.132 C 
ATOM     32  C   UNL     1     -11.115  14.525  64.996  0.00  0.00    +0.034 C 
ATOM     33  C   UNL     1     -10.915  15.296  67.268  0.00  0.00    +0.085 C 
ATOM     34  C   UNL     1      -9.325  15.475  67.534  0.00  0.00    +0.024 C 
ATOM     35  C   UNL     1      -8.876  14.307  68.339  0.00  0.00    +0.063 C 
BRANCH  33  36
ATOM     36  N   UNL     1     -11.056  14.718  68.709  0.00  0.00    -0.269 NA
ATOM     37  C   UNL     1     -12.062  13.946  69.017  0.00  0.00    +0.090 C 
ATOM     38  C   UNL     1     -10.907  15.894  69.549  0.00  0.00    +0.090 C 
ENDBRANCH  33  36
ENDBRANCH  28  29
ENDBRANCH  21  28
BRANCH  13  39
ATOM     39  O   UNL     1      -9.539   5.422  72.231  0.00  0.00    -0.356 OA
BRANCH  39  40
ATOM     40  C   UNL     1     -10.411   4.343  72.784  0.00  0.00    +0.145 C 
ATOM     41  C   UNL     1      -8.969   3.472  73.164  0.00  0.00    +0.172 C 
ATOM     42  C   UNL     1      -9.804   2.195  73.957  0.00  0.00    +0.172 C 
ATOM     43  C   UNL     1      -9.954   3.002  75.471  0.00  0.00    +0.145 C 
ATOM     44  C   UNL     1      -9.217   4.473  75.031  0.00  0.00    +0.032 C 
ATOM     45  C   UNL     1      -9.665   5.134  76.443  0.00  0.00    +0.003 C 
ATOM     46  C   UNL     1     -10.563   4.983  74.295  0.00  0.00    +0.035 C 
BRANCH  41  47
ATOM     47  O   UNL     1      -9.007   2.766  71.842  0.00  0.00    -0.349 OA
ATOM     48  C   UNL     1      -7.650   2.676  71.568  0.00  0.00    +0.174 C 
ENDBRANCH  41  47
BRANCH  43  49
ATOM     49  O   UNL     1      -8.625   2.430  75.907  0.00  0.00    -0.351 OA
ATOM     50  C   UNL     1      -8.856   1.666  77.000  0.00  0.00    +0.174 C 
ENDBRANCH  43  49
BRANCH  42  51
ATOM     51  O   UNL     1     -11.159   2.620  73.531  0.00  0.00    -0.349 OA
ATOM     52  C   UNL     1     -12.116   1.979  73.269  0.00  0.00    +0.174 C 
ENDBRANCH  42  51
ENDBRANCH  39  40
ENDBRANCH  13  39
TORSDOF 9
ENDMDL
