MODEL 1
REMARK VINA RESULT:      -8.6      0.000      0.000
REMARK  Name = 
REMARK  6 active torsions:
REMARK  status: ('A' for Active; 'I' for Inactive)
REMARK    1  A    between atoms: O_2  and  C_3
REMARK    2  A    between atoms: C_15  and  C_16
REMARK    3  A    between atoms: N_17  and  N_18
REMARK    4  A    between atoms: N_21  and  C_22
REMARK    5  A    between atoms: C_55  and  O_56
REMARK    6  A    between atoms: O_56  and  C_57
REMARK                            x       y       z     vdW  Elec       q    Type
REMARK                         _______ _______ _______ _____ _____    ______ ____
ROOT
ATOM      1  C   UNL     1      -9.169   5.082  70.301  0.00  0.00    +0.144 C 
ATOM      2  C   UNL     1      -7.583   5.756  70.273  0.00  0.00    +0.072 C 
ATOM      3  C   UNL     1      -7.176   4.939  71.593  0.00  0.00    +0.007 C 
ATOM      4  C   UNL     1      -7.111   4.497  69.231  0.00  0.00    +0.174 C 
ATOM      5  C   UNL     1      -5.670   5.241  68.693  0.00  0.00    +0.071 C 
ATOM      6  C   UNL     1      -5.102   5.620  70.151  0.00  0.00    +0.006 C 
ATOM      7  C   UNL     1      -6.338   6.795  68.447  0.00  0.00    +0.158 C 
ATOM      8  O   UNL     1      -6.288   6.578  66.940  0.00  0.00    -0.223 OA
ATOM      9  C   UNL     1      -4.766   7.468  68.483  0.00  0.00    +0.061 C 
ATOM     10  C   UNL     1      -5.125   8.466  69.695  0.00  0.00    +0.005 C 
ATOM     11  C   UNL     1      -5.043   8.567  67.198  0.00  0.00    +0.158 C 
ATOM     12  O   UNL     1      -6.309   9.159  67.794  0.00  0.00    -0.223 OA
ATOM     13  C   UNL     1      -4.039   9.781  67.908  0.00  0.00    +0.053 C 
ATOM     14  C   UNL     1      -2.693   9.159  67.214  0.00  0.00    +0.007 C 
ATOM     15  C   UNL     1      -4.293  10.760  66.657  0.00  0.00    -0.024 C 
ATOM     16  C   UNL     1      -5.331  11.543  66.965  0.00  0.00    -0.005 C 
ATOM     17  C   UNL     1      -5.200  12.251  68.199  0.00  0.00    -0.000 C 
ATOM     18  C   UNL     1      -6.154  12.568  69.069  0.00  0.00    +0.033 C 
ATOM     19  C   UNL     1      -5.764  12.274  70.494  0.00  0.00    +0.036 C 
ATOM     20  C   UNL     1      -7.058  13.724  68.877  0.00  0.00    +0.265 C 
ATOM     21  O   UNL     1      -6.707  14.766  69.535  0.00  0.00    -0.268 OA
ATOM     22  N   UNL     1      -7.968  13.650  67.873  0.00  0.00    -0.172 NA
ATOM     23  C   UNL     1      -9.330  13.799  67.595  0.00  0.00    +0.117 A 
ATOM     24  C   UNL     1      -9.837  12.956  66.601  0.00  0.00    +0.214 A 
ATOM     25  C   UNL     1     -10.768  11.995  67.007  0.00  0.00    +0.082 A 
ATOM     26  C   UNL     1     -11.277  11.998  68.319  0.00  0.00    +0.051 A 
ATOM     27  C   UNL     1     -11.267  13.257  68.917  0.00  0.00    +0.199 A 
ATOM     28  O   UNL     1     -12.437  13.886  69.403  0.00  0.00    -0.286 OA
ATOM     29  C   UNL     1     -11.233  10.764  68.903  0.00  0.00    +0.079 A 
ATOM     30  C   UNL     1     -11.796  10.175  70.062  0.00  0.00    +0.251 C 
ATOM     31  C   UNL     1     -10.922   8.981  70.330  0.00  0.00    +0.326 C 
ATOM     32  O   UNL     1     -10.046   8.892  69.221  0.00  0.00    -0.443 OA
ATOM     33  C   UNL     1     -10.258   9.270  71.630  0.00  0.00    +0.100 C 
ATOM     34  O   UNL     1     -11.627   7.770  70.308  0.00  0.00    -0.440 OA
ATOM     35  C   UNL     1     -11.084   6.569  69.843  0.00  0.00    +0.174 C 
ATOM     36  O   UNL     1     -12.913  10.173  70.667  0.00  0.00    -0.284 OA
ATOM     37  C   UNL     1     -10.654   9.675  68.235  0.00  0.00    +0.145 A 
ATOM     38  C   UNL     1     -10.721   9.564  66.842  0.00  0.00    +0.051 A 
ATOM     39  C   UNL     1     -10.188   8.391  66.125  0.00  0.00    +0.038 C 
ATOM     40  C   UNL     1     -10.865  10.822  66.257  0.00  0.00    +0.198 A 
ATOM     41  O   UNL     1     -10.785  10.913  64.883  0.00  0.00    -0.287 OA
ATOM     42  O   UNL     1      -9.811  13.155  65.216  0.00  0.00    -0.285 OA
ATOM     43  C   UNL     1     -10.317  14.217  68.506  0.00  0.00    +0.078 A 
ATOM     44  C   UNL     1      -9.826   6.376  69.532  0.00  0.00    +0.043 C 
ENDROOT
BRANCH  43  45
ATOM     45  C   UNL     1     -10.562  15.657  68.781  0.00  0.00    +0.122 C 
ATOM     46  N   UNL     1     -10.799  16.512  67.861  0.00  0.00    -0.180 NA
BRANCH  46  47
ATOM     47  N   UNL     1     -10.465  17.858  68.110  0.00  0.00    -0.230 N 
ATOM     48  C   UNL     1     -10.918  18.930  67.250  0.00  0.00    +0.128 C 
ATOM     49  C   UNL     1      -9.835  19.660  66.550  0.00  0.00    +0.096 C 
ATOM     50  N   UNL     1      -8.544  19.634  67.163  0.00  0.00    -0.271 NA
ATOM     51  C   UNL     1      -8.187  18.335  67.728  0.00  0.00    +0.096 C 
ATOM     52  C   UNL     1      -9.218  18.076  68.826  0.00  0.00    +0.128 C 
BRANCH  50  53
ATOM     53  C   UNL     1      -7.578  20.002  66.129  0.00  0.00    +0.058 C 
ATOM     54  C   UNL     1      -6.431  20.817  66.712  0.00  0.00    +0.016 C 
ATOM     55  C   UNL     1      -5.450  20.774  65.542  0.00  0.00    +0.001 C 
ATOM     56  C   UNL     1      -5.674  19.439  64.868  0.00  0.00    +0.001 C 
ATOM     57  C   UNL     1      -6.812  18.780  65.635  0.00  0.00    +0.016 C 
ENDBRANCH  50  53
ENDBRANCH  46  47
ENDBRANCH  43  45
BRANCH   1  59
ATOM     58  C   UNL     1     -10.122   5.076  72.075  0.00  0.00    +0.174 C 
ATOM     59  O   UNL     1      -9.485   5.699  71.678  0.00  0.00    -0.349 OA
ENDBRANCH   1  59
BRANCH   4  60
ATOM     60  O   UNL     1      -7.938   5.062  68.050  0.00  0.00    -0.452 OA
BRANCH  60  61
ATOM     61  C   UNL     1      -8.446   4.021  67.295  0.00  0.00    +0.317 C 
ATOM     62  O   UNL     1      -7.991   2.868  67.526  0.00  0.00    -0.250 OA
ATOM     63  C   UNL     1      -9.709   4.086  66.501  0.00  0.00    +0.121 C 
ENDBRANCH  60  61
ENDBRANCH   4  60
TORSDOF 6
ENDMDL
MODEL 2
REMARK VINA RESULT:      -8.6      3.017      6.589
REMARK  Name = 
REMARK  6 active torsions:
REMARK  status: ('A' for Active; 'I' for Inactive)
REMARK    1  A    between atoms: O_2  and  C_3
REMARK    2  A    between atoms: C_15  and  C_16
REMARK    3  A    between atoms: N_17  and  N_18
REMARK    4  A    between atoms: N_21  and  C_22
REMARK    5  A    between atoms: C_55  and  O_56
REMARK    6  A    between atoms: O_56  and  C_57
REMARK                            x       y       z     vdW  Elec       q    Type
REMARK                         _______ _______ _______ _____ _____    ______ ____
ROOT
ATOM      1  C   UNL     1      -8.024   1.221  68.574  0.00  0.00    +0.144 C 
ATOM      2  C   UNL     1      -8.947   1.711  69.945  0.00  0.00    +0.072 C 
ATOM      3  C   UNL     1      -9.925   0.450  69.779  0.00  0.00    +0.007 C 
ATOM      4  C   UNL     1      -7.856   0.856  70.932  0.00  0.00    +0.174 C 
ATOM      5  C   UNL     1      -8.319   1.602  72.398  0.00  0.00    +0.071 C 
ATOM      6  C   UNL     1      -9.905   1.394  72.219  0.00  0.00    +0.006 C 
ATOM      7  C   UNL     1      -8.367   3.200  71.791  0.00  0.00    +0.158 C 
ATOM      8  O   UNL     1      -7.073   3.519  72.530  0.00  0.00    -0.223 OA
ATOM      9  C   UNL     1      -9.335   3.668  73.121  0.00  0.00    +0.061 C 
ATOM     10  C   UNL     1     -10.524   4.209  72.179  0.00  0.00    +0.005 C 
ATOM     11  C   UNL     1      -8.542   5.168  73.366  0.00  0.00    +0.158 C 
ATOM     12  O   UNL     1      -8.677   5.629  71.924  0.00  0.00    -0.223 OA
ATOM     13  C   UNL     1     -10.002   5.958  73.845  0.00  0.00    +0.053 C 
ATOM     14  C   UNL     1      -9.812   5.493  75.404  0.00  0.00    +0.007 C 
ATOM     15  C   UNL     1      -9.206   7.330  74.104  0.00  0.00    -0.024 C 
ATOM     16  C   UNL     1      -9.272   8.050  72.980  0.00  0.00    -0.005 C 
ATOM     17  C   UNL     1     -10.596   8.267  72.487  0.00  0.00    -0.000 C 
ATOM     18  C   UNL     1     -10.998   8.349  71.222  0.00  0.00    +0.033 C 
ATOM     19  C   UNL     1     -12.240   7.541  70.953  0.00  0.00    +0.036 C 
ATOM     20  C   UNL     1     -10.844   9.579  70.413  0.00  0.00    +0.265 C 
ATOM     21  O   UNL     1     -11.909  10.287  70.347  0.00  0.00    -0.268 OA
ATOM     22  N   UNL     1      -9.586   9.946  70.060  0.00  0.00    -0.172 NA
ATOM     23  C   UNL     1      -8.803  10.309  68.960  0.00  0.00    +0.117 A 
ATOM     24  C   UNL     1      -7.461   9.917  69.022  0.00  0.00    +0.214 A 
ATOM     25  C   UNL     1      -7.041   8.967  68.086  0.00  0.00    +0.082 A 
ATOM     26  C   UNL     1      -7.894   8.559  67.044  0.00  0.00    +0.051 A 
ATOM     27  C   UNL     1      -8.834   9.524  66.685  0.00  0.00    +0.199 A 
ATOM     28  O   UNL     1      -8.934  10.050  65.376  0.00  0.00    -0.286 OA
ATOM     29  C   UNL     1      -7.959   7.201  66.918  0.00  0.00    +0.079 A 
ATOM     30  C   UNL     1      -8.453   6.299  65.942  0.00  0.00    +0.251 C 
ATOM     31  C   UNL     1      -8.642   5.011  66.694  0.00  0.00    +0.326 C 
ATOM     32  O   UNL     1      -8.089   5.233  67.979  0.00  0.00    -0.443 OA
ATOM     33  C   UNL     1     -10.109   4.764  66.678  0.00  0.00    +0.100 C 
ATOM     34  O   UNL     1      -7.882   3.956  66.172  0.00  0.00    -0.440 OA
ATOM     35  C   UNL     1      -7.318   2.947  66.958  0.00  0.00    +0.174 C 
ATOM     36  O   UNL     1      -8.451   6.191  64.677  0.00  0.00    -0.284 OA
ATOM     37  C   UNL     1      -7.283   6.364  67.819  0.00  0.00    +0.145 A 
ATOM     38  C   UNL     1      -6.068   6.753  68.393  0.00  0.00    +0.051 A 
ATOM     39  C   UNL     1      -5.303   5.860  69.282  0.00  0.00    +0.038 C 
ATOM     40  C   UNL     1      -5.967   8.144  68.429  0.00  0.00    +0.198 A 
ATOM     41  O   UNL     1      -4.904   8.701  69.110  0.00  0.00    -0.287 OA
ATOM     42  O   UNL     1      -6.404  10.584  69.651  0.00  0.00    -0.285 OA
ATOM     43  C   UNL     1      -9.258  10.473  67.640  0.00  0.00    +0.078 A 
ATOM     44  C   UNL     1      -7.555   2.757  68.233  0.00  0.00    +0.043 C 
ENDROOT
BRANCH  43  45
ATOM     45  C   UNL     1      -9.884  11.743  67.186  0.00  0.00    +0.122 C 
ATOM     46  N   UNL     1      -9.676  12.866  67.758  0.00  0.00    -0.180 NA
BRANCH  46  47
ATOM     47  N   UNL     1     -10.676  13.853  67.656  0.00  0.00    -0.230 N 
ATOM     48  C   UNL     1     -10.381  15.260  67.822  0.00  0.00    +0.128 C 
ATOM     49  C   UNL     1     -11.043  15.896  68.986  0.00  0.00    +0.096 C 
ATOM     50  N   UNL     1     -12.245  15.282  69.455  0.00  0.00    -0.271 NA
ATOM     51  C   UNL     1     -12.198  13.822  69.457  0.00  0.00    +0.096 C 
ATOM     52  C   UNL     1     -12.024  13.422  67.993  0.00  0.00    +0.128 C 
BRANCH  50  53
ATOM     53  C   UNL     1     -12.465  15.769  70.816  0.00  0.00    +0.058 C 
ATOM     54  C   UNL     1     -13.742  15.188  71.410  0.00  0.00    +0.016 C 
ATOM     55  C   UNL     1     -13.555  15.570  72.875  0.00  0.00    +0.001 C 
ATOM     56  C   UNL     1     -12.063  15.534  73.121  0.00  0.00    +0.001 C 
ATOM     57  C   UNL     1     -11.435  15.187  71.779  0.00  0.00    +0.016 C 
ENDBRANCH  50  53
ENDBRANCH  46  47
ENDBRANCH  43  45
BRANCH   1  59
ATOM     58  C   UNL     1      -9.062   0.677  66.936  0.00  0.00    +0.174 C 
ATOM     59  O   UNL     1      -9.233   1.345  67.626  0.00  0.00    -0.349 OA
ENDBRANCH   1  59
BRANCH   4  60
ATOM     60  O   UNL     1      -6.715   1.873  70.682  0.00  0.00    -0.452 OA
BRANCH  60  61
ATOM     61  C   UNL     1      -5.495   1.221  70.701  0.00  0.00    +0.317 C 
ATOM     62  O   UNL     1      -5.518  -0.036  70.789  0.00  0.00    -0.250 OA
ATOM     63  C   UNL     1      -4.201   1.832  70.277  0.00  0.00    +0.121 C 
ENDBRANCH  60  61
ENDBRANCH   4  60
TORSDOF 6
ENDMDL
MODEL 3
REMARK VINA RESULT:      -8.3      2.983      4.959
REMARK  Name = 
REMARK  6 active torsions:
REMARK  status: ('A' for Active; 'I' for Inactive)
REMARK    1  A    between atoms: O_2  and  C_3
REMARK    2  A    between atoms: C_15  and  C_16
REMARK    3  A    between atoms: N_17  and  N_18
REMARK    4  A    between atoms: N_21  and  C_22
REMARK    5  A    between atoms: C_55  and  O_56
REMARK    6  A    between atoms: O_56  and  C_57
REMARK                            x       y       z     vdW  Elec       q    Type
REMARK                         _______ _______ _______ _____ _____    ______ ____
ROOT
ATOM      1  C   UNL     1      -9.061   3.396  74.100  0.00  0.00    +0.144 C 
ATOM      2  C   UNL     1      -7.465   3.997  73.849  0.00  0.00    +0.072 C 
ATOM      3  C   UNL     1      -7.147   3.903  75.419  0.00  0.00    +0.007 C 
ATOM      4  C   UNL     1      -6.956   2.400  73.553  0.00  0.00    +0.174 C 
ATOM      5  C   UNL     1      -5.474   2.819  72.813  0.00  0.00    +0.071 C 
ATOM      6  C   UNL     1      -4.983   3.848  73.949  0.00  0.00    +0.006 C 
ATOM      7  C   UNL     1      -6.102   4.066  71.824  0.00  0.00    +0.158 C 
ATOM      8  O   UNL     1      -5.970   3.164  70.603  0.00  0.00    -0.223 OA
ATOM      9  C   UNL     1      -4.522   4.694  71.630  0.00  0.00    +0.061 C 
ATOM     10  C   UNL     1      -4.932   6.141  72.205  0.00  0.00    +0.005 C 
ATOM     11  C   UNL     1      -4.708   5.054  69.964  0.00  0.00    +0.158 C 
ATOM     12  O   UNL     1      -5.995   5.842  70.137  0.00  0.00    -0.223 OA
ATOM     13  C   UNL     1      -3.725   6.471  70.074  0.00  0.00    +0.053 C 
ATOM     14  C   UNL     1      -2.352   5.610  69.835  0.00  0.00    +0.007 C 
ATOM     15  C   UNL     1      -3.891   6.740  68.498  0.00  0.00    -0.024 C 
ATOM     16  C   UNL     1      -4.932   7.564  68.339  0.00  0.00    -0.005 C 
ATOM     17  C   UNL     1      -4.858   8.772  69.099  0.00  0.00    -0.000 C 
ATOM     18  C   UNL     1      -5.854   9.451  69.660  0.00  0.00    +0.033 C 
ATOM     19  C   UNL     1      -5.550   9.869  71.074  0.00  0.00    +0.036 C 
ATOM     20  C   UNL     1      -6.726  10.369  68.893  0.00  0.00    +0.265 C 
ATOM     21  O   UNL     1      -6.396  11.601  69.001  0.00  0.00    -0.268 OA
ATOM     22  N   UNL     1      -7.579   9.820  67.992  0.00  0.00    -0.172 NA
ATOM     23  C   UNL     1      -8.921   9.804  67.599  0.00  0.00    +0.117 A 
ATOM     24  C   UNL     1      -9.385   8.585  67.093  0.00  0.00    +0.214 A 
ATOM     25  C   UNL     1     -10.354   7.919  67.849  0.00  0.00    +0.082 A 
ATOM     26  C   UNL     1     -10.936   8.535  68.973  0.00  0.00    +0.051 A 
ATOM     27  C   UNL     1     -10.938   9.927  68.905  0.00  0.00    +0.199 A 
ATOM     28  O   UNL     1     -12.123  10.698  68.969  0.00  0.00    -0.286 OA
ATOM     29  C   UNL     1     -10.945   7.723  70.071  0.00  0.00    +0.079 A 
ATOM     30  C   UNL     1     -11.583   7.744  71.336  0.00  0.00    +0.251 C 
ATOM     31  C   UNL     1     -10.746   6.828  72.185  0.00  0.00    +0.326 C 
ATOM     32  O   UNL     1      -9.811   6.236  71.302  0.00  0.00    -0.443 OA
ATOM     33  C   UNL     1     -10.152   7.703  73.231  0.00  0.00    +0.100 C 
ATOM     34  O   UNL     1     -11.469   5.742  72.696  0.00  0.00    -0.440 OA
ATOM     35  C   UNL     1     -10.922   4.470  72.885  0.00  0.00    +0.174 C 
ATOM     36  O   UNL     1     -12.733   8.014  71.805  0.00  0.00    -0.284 OA
ATOM     37  C   UNL     1     -10.349   6.454  70.030  0.00  0.00    +0.145 A 
ATOM     38  C   UNL     1     -10.339   5.698  68.853  0.00  0.00    +0.051 A 
ATOM     39  C   UNL     1      -9.786   4.332  68.806  0.00  0.00    +0.038 C 
ATOM     40  C   UNL     1     -10.428   6.530  67.736  0.00  0.00    +0.198 A 
ATOM     41  O   UNL     1     -10.269   5.962  66.490  0.00  0.00    -0.287 OA
ATOM     42  O   UNL     1      -9.278   8.108  65.781  0.00  0.00    -0.285 OA
ATOM     43  C   UNL     1      -9.951  10.590  68.146  0.00  0.00    +0.078 A 
ATOM     44  C   UNL     1      -9.651   4.167  72.775  0.00  0.00    +0.043 C 
ENDROOT
BRANCH  43  45
ATOM     45  C   UNL     1     -10.186  11.987  67.695  0.00  0.00    +0.122 C 
ATOM     46  N   UNL     1      -9.594  12.995  68.211  0.00  0.00    -0.180 NA
BRANCH  46  47
ATOM     47  N   UNL     1     -10.242  14.244  68.148  0.00  0.00    -0.230 N 
ATOM     48  C   UNL     1      -9.695  15.423  68.785  0.00  0.00    +0.128 C 
ATOM     49  C   UNL     1     -10.532  15.981  69.874  0.00  0.00    +0.096 C 
ATOM     50  N   UNL     1     -11.930  15.691  69.820  0.00  0.00    -0.271 NA
ATOM     51  C   UNL     1     -12.232  14.321  69.410  0.00  0.00    +0.096 C 
ATOM     52  C   UNL     1     -11.687  14.197  67.988  0.00  0.00    +0.128 C 
BRANCH  50  53
ATOM     53  C   UNL     1     -12.464  15.931  71.161  0.00  0.00    +0.058 C 
ATOM     54  C   UNL     1     -13.789  15.209  71.364  0.00  0.00    +0.016 C 
ATOM     55  C   UNL     1     -13.939  15.345  72.877  0.00  0.00    +0.001 C 
ATOM     56  C   UNL     1     -12.532  15.326  73.432  0.00  0.00    +0.001 C 
ATOM     57  C   UNL     1     -11.615  15.236  72.220  0.00  0.00    +0.016 C 
ENDBRANCH  50  53
ENDBRANCH  46  47
ENDBRANCH  43  45
BRANCH   1  59
ATOM     58  C   UNL     1     -10.056   4.200  75.655  0.00  0.00    +0.174 C 
ATOM     59  O   UNL     1      -9.444   4.586  75.002  0.00  0.00    -0.349 OA
ENDBRANCH   1  59
BRANCH   4  60
ATOM     60  O   UNL     1      -7.705   2.332  72.200  0.00  0.00    -0.452 OA
BRANCH  60  61
ATOM     61  C   UNL     1      -8.168   1.046  71.987  0.00  0.00    +0.317 C 
ATOM     62  O   UNL     1      -7.870   0.178  72.850  0.00  0.00    -0.250 OA
ATOM     63  C   UNL     1      -9.261   0.685  71.036  0.00  0.00    +0.121 C 
ENDBRANCH  60  61
ENDBRANCH   4  60
TORSDOF 6
ENDMDL
MODEL 4
REMARK VINA RESULT:      -8.2      2.448      6.070
REMARK  Name = 
REMARK  6 active torsions:
REMARK  status: ('A' for Active; 'I' for Inactive)
REMARK    1  A    between atoms: O_2  and  C_3
REMARK    2  A    between atoms: C_15  and  C_16
REMARK    3  A    between atoms: N_17  and  N_18
REMARK    4  A    between atoms: N_21  and  C_22
REMARK    5  A    between atoms: C_55  and  O_56
REMARK    6  A    between atoms: O_56  and  C_57
REMARK                            x       y       z     vdW  Elec       q    Type
REMARK                         _______ _______ _______ _____ _____    ______ ____
ROOT
ATOM      1  C   UNL     1      -7.827   1.268  68.483  0.00  0.00    +0.144 C 
ATOM      2  C   UNL     1      -8.804   1.591  69.866  0.00  0.00    +0.072 C 
ATOM      3  C   UNL     1      -9.679   0.273  69.597  0.00  0.00    +0.007 C 
ATOM      4  C   UNL     1      -7.663   0.757  70.813  0.00  0.00    +0.174 C 
ATOM      5  C   UNL     1      -8.202   1.363  72.317  0.00  0.00    +0.071 C 
ATOM      6  C   UNL     1      -9.764   1.047  72.095  0.00  0.00    +0.006 C 
ATOM      7  C   UNL     1      -8.365   2.991  71.818  0.00  0.00    +0.158 C 
ATOM      8  O   UNL     1      -7.110   3.356  72.600  0.00  0.00    -0.223 OA
ATOM      9  C   UNL     1      -9.385   3.290  73.159  0.00  0.00    +0.061 C 
ATOM     10  C   UNL     1     -10.599   3.801  72.234  0.00  0.00    +0.005 C 
ATOM     11  C   UNL     1      -8.714   4.826  73.518  0.00  0.00    +0.158 C 
ATOM     12  O   UNL     1      -8.865   5.374  72.109  0.00  0.00    -0.223 OA
ATOM     13  C   UNL     1     -10.237   5.467  74.023  0.00  0.00    +0.053 C 
ATOM     14  C   UNL     1     -10.032   4.913  75.550  0.00  0.00    +0.007 C 
ATOM     15  C   UNL     1      -9.553   6.876  74.388  0.00  0.00    -0.024 C 
ATOM     16  C   UNL     1      -9.660   7.664  73.314  0.00  0.00    -0.005 C 
ATOM     17  C   UNL     1     -10.990   7.812  72.813  0.00  0.00    -0.000 C 
ATOM     18  C   UNL     1     -11.380   7.949  71.549  0.00  0.00    +0.033 C 
ATOM     19  C   UNL     1     -12.552   7.069  71.203  0.00  0.00    +0.036 C 
ATOM     20  C   UNL     1     -11.312   9.240  70.827  0.00  0.00    +0.265 C 
ATOM     21  O   UNL     1     -12.427   9.867  70.790  0.00  0.00    -0.268 OA
ATOM     22  N   UNL     1     -10.082   9.725  70.523  0.00  0.00    -0.172 NA
ATOM     23  C   UNL     1      -9.314  10.222  69.464  0.00  0.00    +0.117 A 
ATOM     24  C   UNL     1      -7.947   9.930  69.524  0.00  0.00    +0.214 A 
ATOM     25  C   UNL     1      -7.442   9.081  68.535  0.00  0.00    +0.082 A 
ATOM     26  C   UNL     1      -8.247   8.682  67.452  0.00  0.00    +0.051 A 
ATOM     27  C   UNL     1      -9.255   9.595  67.142  0.00  0.00    +0.199 A 
ATOM     28  O   UNL     1      -9.378  10.200  65.869  0.00  0.00    -0.286 OA
ATOM     29  C   UNL     1      -8.205   7.335  67.234  0.00  0.00    +0.079 A 
ATOM     30  C   UNL     1      -8.615   6.467  66.191  0.00  0.00    +0.251 C 
ATOM     31  C   UNL     1      -8.713   5.120  66.851  0.00  0.00    +0.326 C 
ATOM     32  O   UNL     1      -8.196   5.295  68.157  0.00  0.00    -0.443 OA
ATOM     33  C   UNL     1     -10.156   4.763  66.791  0.00  0.00    +0.100 C 
ATOM     34  O   UNL     1      -7.866   4.164  66.273  0.00  0.00    -0.440 OA
ATOM     35  C   UNL     1      -7.236   3.150  66.999  0.00  0.00    +0.174 C 
ATOM     36  O   UNL     1      -8.588   6.447  64.921  0.00  0.00    -0.284 OA
ATOM     37  C   UNL     1      -7.478   6.493  68.089  0.00  0.00    +0.145 A 
ATOM     38  C   UNL     1      -6.304   6.933  68.710  0.00  0.00    +0.051 A 
ATOM     39  C   UNL     1      -5.484   6.043  69.551  0.00  0.00    +0.038 C 
ATOM     40  C   UNL     1      -6.312   8.322  68.842  0.00  0.00    +0.198 A 
ATOM     41  O   UNL     1      -5.305   8.910  69.578  0.00  0.00    -0.287 OA
ATOM     42  O   UNL     1      -6.953  10.632  70.217  0.00  0.00    -0.285 OA
ATOM     43  C   UNL     1      -9.764  10.440  68.150  0.00  0.00    +0.078 A 
ATOM     44  C   UNL     1      -7.475   2.856  68.254  0.00  0.00    +0.043 C 
ENDROOT
BRANCH  43  45
ATOM     45  C   UNL     1     -10.480  11.687  67.771  0.00  0.00    +0.122 C 
ATOM     46  N   UNL     1     -10.032  12.855  68.031  0.00  0.00    -0.180 NA
BRANCH  46  47
ATOM     47  N   UNL     1     -10.963  13.905  68.161  0.00  0.00    -0.230 N 
ATOM     48  C   UNL     1     -11.244  14.817  67.073  0.00  0.00    +0.128 C 
ATOM     49  C   UNL     1     -10.874  16.227  67.339  0.00  0.00    +0.096 C 
ATOM     50  N   UNL     1     -10.819  16.628  68.710  0.00  0.00    -0.271 NA
ATOM     51  C   UNL     1     -10.225  15.627  69.592  0.00  0.00    +0.096 C 
ATOM     52  C   UNL     1     -11.152  14.415  69.510  0.00  0.00    +0.128 C 
BRANCH  50  53
ATOM     53  C   UNL     1     -10.029  17.857  68.759  0.00  0.00    +0.058 C 
ATOM     54  C   UNL     1      -8.572  17.591  68.399  0.00  0.00    +0.016 C 
ATOM     55  C   UNL     1      -8.079  19.023  68.206  0.00  0.00    +0.001 C 
ATOM     56  C   UNL     1      -9.263  19.797  67.672  0.00  0.00    +0.001 C 
ATOM     57  C   UNL     1     -10.415  18.803  67.627  0.00  0.00    +0.016 C 
ENDBRANCH  50  53
ENDBRANCH  46  47
ENDBRANCH  43  45
BRANCH   1  59
ATOM     58  C   UNL     1      -8.802   0.754  66.797  0.00  0.00    +0.174 C 
ATOM     59  O   UNL     1      -9.030   1.364  67.523  0.00  0.00    -0.349 OA
ENDBRANCH   1  59
BRANCH   4  60
ATOM     60  O   UNL     1      -6.601   1.872  70.653  0.00  0.00    -0.452 OA
BRANCH  60  61
ATOM     61  C   UNL     1      -5.335   1.315  70.643  0.00  0.00    +0.317 C 
ATOM     62  O   UNL     1      -5.252   0.075  70.852  0.00  0.00    -0.250 OA
ATOM     63  C   UNL     1      -4.124   1.972  70.066  0.00  0.00    +0.121 C 
ENDBRANCH  60  61
ENDBRANCH   4  60
TORSDOF 6
ENDMDL
MODEL 5
REMARK VINA RESULT:      -7.9      1.282      1.543
REMARK  Name = 
REMARK  6 active torsions:
REMARK  status: ('A' for Active; 'I' for Inactive)
REMARK    1  A    between atoms: O_2  and  C_3
REMARK    2  A    between atoms: C_15  and  C_16
REMARK    3  A    between atoms: N_17  and  N_18
REMARK    4  A    between atoms: N_21  and  C_22
REMARK    5  A    between atoms: C_55  and  O_56
REMARK    6  A    between atoms: O_56  and  C_57
REMARK                            x       y       z     vdW  Elec       q    Type
REMARK                         _______ _______ _______ _____ _____    ______ ____
ROOT
ATOM      1  C   UNL     1     -10.015   4.566  71.482  0.00  0.00    +0.144 C 
ATOM      2  C   UNL     1      -8.346   4.995  71.532  0.00  0.00    +0.072 C 
ATOM      3  C   UNL     1      -8.186   4.341  72.988  0.00  0.00    +0.007 C 
ATOM      4  C   UNL     1      -7.990   3.537  70.731  0.00  0.00    +0.174 C 
ATOM      5  C   UNL     1      -6.410   3.976  70.253  0.00  0.00    +0.071 C 
ATOM      6  C   UNL     1      -5.915   4.490  71.696  0.00  0.00    +0.006 C 
ATOM      7  C   UNL     1      -6.803   5.554  69.723  0.00  0.00    +0.158 C 
ATOM      8  O   UNL     1      -6.660   5.103  68.275  0.00  0.00    -0.223 OA
ATOM      9  C   UNL     1      -5.154   5.994  69.834  0.00  0.00    +0.061 C 
ATOM     10  C   UNL     1      -5.454   7.206  70.850  0.00  0.00    +0.005 C 
ATOM     11  C   UNL     1      -5.145   6.911  68.386  0.00  0.00    +0.158 C 
ATOM     12  O   UNL     1      -6.349   7.761  68.755  0.00  0.00    -0.223 OA
ATOM     13  C   UNL     1      -4.027   8.064  69.023  0.00  0.00    +0.053 C 
ATOM     14  C   UNL     1      -2.741   7.157  68.571  0.00  0.00    +0.007 C 
ATOM     15  C   UNL     1      -4.017   8.865  67.630  0.00  0.00    -0.024 C 
ATOM     16  C   UNL     1      -4.943   9.826  67.713  0.00  0.00    -0.005 C 
ATOM     17  C   UNL     1      -4.807  10.689  68.843  0.00  0.00    -0.000 C 
ATOM     18  C   UNL     1      -5.770  11.268  69.554  0.00  0.00    +0.033 C 
ATOM     19  C   UNL     1      -5.554  11.144  71.039  0.00  0.00    +0.036 C 
ATOM     20  C   UNL     1      -6.462  12.498  69.107  0.00  0.00    +0.265 C 
ATOM     21  O   UNL     1      -6.010  13.567  69.648  0.00  0.00    -0.268 OA
ATOM     22  N   UNL     1      -7.284  12.401  68.031  0.00  0.00    -0.172 NA
ATOM     23  C   UNL     1      -8.578  12.698  67.592  0.00  0.00    +0.117 A 
ATOM     24  C   UNL     1      -9.124  11.793  66.676  0.00  0.00    +0.214 A 
ATOM     25  C   UNL     1     -10.225  11.049  67.109  0.00  0.00    +0.082 A 
ATOM     26  C   UNL     1     -10.837  11.325  68.346  0.00  0.00    +0.051 A 
ATOM     27  C   UNL     1     -10.681  12.647  68.760  0.00  0.00    +0.199 A 
ATOM     28  O   UNL     1     -11.775  13.504  69.027  0.00  0.00    -0.286 OA
ATOM     29  C   UNL     1     -11.036  10.202  69.097  0.00  0.00    +0.079 A 
ATOM     30  C   UNL     1     -11.782   9.884  70.259  0.00  0.00    +0.251 C 
ATOM     31  C   UNL     1     -11.131   8.633  70.782  0.00  0.00    +0.326 C 
ATOM     32  O   UNL     1     -10.189   8.251  69.796  0.00  0.00    -0.443 OA
ATOM     33  C   UNL     1     -10.543   9.020  72.093  0.00  0.00    +0.100 C 
ATOM     34  O   UNL     1     -12.013   7.546  70.853  0.00  0.00    -0.440 OA
ATOM     35  C   UNL     1     -11.627   6.223  70.620  0.00  0.00    +0.174 C 
ATOM     36  O   UNL     1     -12.933  10.134  70.735  0.00  0.00    -0.284 OA
ATOM     37  C   UNL     1     -10.581   8.952  68.652  0.00  0.00    +0.145 A 
ATOM     38  C   UNL     1     -10.546   8.639  67.289  0.00  0.00    +0.051 A 
ATOM     39  C   UNL     1     -10.144   7.307  66.803  0.00  0.00    +0.038 C 
ATOM     40  C   UNL     1     -10.440   9.801  66.523  0.00  0.00    +0.198 A 
ATOM     41  O   UNL     1     -10.231   9.667  65.166  0.00  0.00    -0.287 OA
ATOM     42  O   UNL     1      -8.950  11.772  65.287  0.00  0.00    -0.285 OA
ATOM     43  C   UNL     1      -9.561  13.387  68.324  0.00  0.00    +0.078 A 
ATOM     44  C   UNL     1     -10.393   5.807  70.476  0.00  0.00    +0.043 C 
ENDROOT
BRANCH  43  45
ATOM     45  C   UNL     1      -9.599  14.872  68.369  0.00  0.00    +0.122 C 
ATOM     46  N   UNL     1      -8.601  15.605  68.052  0.00  0.00    -0.180 NA
BRANCH  46  47
ATOM     47  N   UNL     1      -8.513  16.886  68.632  0.00  0.00    -0.230 N 
ATOM     48  C   UNL     1      -9.402  17.962  68.249  0.00  0.00    +0.128 C 
ATOM     49  C   UNL     1      -8.730  19.119  67.609  0.00  0.00    +0.096 C 
ATOM     50  N   UNL     1      -7.349  19.310  67.921  0.00  0.00    -0.271 NA
ATOM     51  C   UNL     1      -6.581  18.069  67.978  0.00  0.00    +0.096 C 
ATOM     52  C   UNL     1      -7.198  17.266  69.123  0.00  0.00    +0.128 C 
BRANCH  50  53
ATOM     53  C   UNL     1      -6.798  20.181  66.882  0.00  0.00    +0.058 C 
ATOM     54  C   UNL     1      -5.285  20.038  66.789  0.00  0.00    +0.016 C 
ATOM     55  C   UNL     1      -5.029  20.761  65.469  0.00  0.00    +0.001 C 
ATOM     56  C   UNL     1      -6.253  20.507  64.618  0.00  0.00    +0.001 C 
ATOM     57  C   UNL     1      -7.198  19.696  65.493  0.00  0.00    +0.016 C 
ENDBRANCH  50  53
ENDBRANCH  46  47
ENDBRANCH  43  45
BRANCH   1  59
ATOM     58  C   UNL     1     -11.096   4.962  73.135  0.00  0.00    +0.174 C 
ATOM     59  O   UNL     1     -10.346   5.425  72.719  0.00  0.00    -0.349 OA
ENDBRANCH   1  59
BRANCH   4  60
ATOM     60  O   UNL     1      -8.615   4.026  69.402  0.00  0.00    -0.452 OA
BRANCH  60  61
ATOM     61  C   UNL     1      -9.053   2.941  68.664  0.00  0.00    +0.317 C 
ATOM     62  O   UNL     1      -9.438   1.928  69.307  0.00  0.00    -0.250 OA
ATOM     63  C   UNL     1      -9.439   2.996  67.222  0.00  0.00    +0.121 C 
ENDBRANCH  60  61
ENDBRANCH   4  60
TORSDOF 6
ENDMDL
MODEL 6
REMARK VINA RESULT:      -7.8      2.195      3.617
REMARK  Name = 
REMARK  6 active torsions:
REMARK  status: ('A' for Active; 'I' for Inactive)
REMARK    1  A    between atoms: O_2  and  C_3
REMARK    2  A    between atoms: C_15  and  C_16
REMARK    3  A    between atoms: N_17  and  N_18
REMARK    4  A    between atoms: N_21  and  C_22
REMARK    5  A    between atoms: C_55  and  O_56
REMARK    6  A    between atoms: O_56  and  C_57
REMARK                            x       y       z     vdW  Elec       q    Type
REMARK                         _______ _______ _______ _____ _____    ______ ____
ROOT
ATOM      1  C   UNL     1      -8.924   3.830  73.787  0.00  0.00    +0.144 C 
ATOM      2  C   UNL     1      -7.359   4.524  73.587  0.00  0.00    +0.072 C 
ATOM      3  C   UNL     1      -7.086   4.448  75.166  0.00  0.00    +0.007 C 
ATOM      4  C   UNL     1      -6.748   2.961  73.308  0.00  0.00    +0.174 C 
ATOM      5  C   UNL     1      -5.271   3.468  72.615  0.00  0.00    +0.071 C 
ATOM      6  C   UNL     1      -4.878   4.523  73.765  0.00  0.00    +0.006 C 
ATOM      7  C   UNL     1      -5.939   4.676  71.606  0.00  0.00    +0.158 C 
ATOM      8  O   UNL     1      -5.716   3.784  70.390  0.00  0.00    -0.223 OA
ATOM      9  C   UNL     1      -4.395   5.397  71.460  0.00  0.00    +0.061 C 
ATOM     10  C   UNL     1      -4.908   6.817  72.021  0.00  0.00    +0.005 C 
ATOM     11  C   UNL     1      -4.549   5.747  69.789  0.00  0.00    +0.158 C 
ATOM     12  O   UNL     1      -5.885   6.457  69.921  0.00  0.00    -0.223 OA
ATOM     13  C   UNL     1      -3.656   7.219  69.929  0.00  0.00    +0.053 C 
ATOM     14  C   UNL     1      -2.228   6.442  69.734  0.00  0.00    +0.007 C 
ATOM     15  C   UNL     1      -3.788   7.480  68.348  0.00  0.00    -0.024 C 
ATOM     16  C   UNL     1      -4.870   8.241  68.156  0.00  0.00    -0.005 C 
ATOM     17  C   UNL     1      -4.892   9.450  68.916  0.00  0.00    -0.000 C 
ATOM     18  C   UNL     1      -5.943  10.069  69.445  0.00  0.00    +0.033 C 
ATOM     19  C   UNL     1      -5.710  10.502  70.868  0.00  0.00    +0.036 C 
ATOM     20  C   UNL     1      -6.844  10.934  68.650  0.00  0.00    +0.265 C 
ATOM     21  O   UNL     1      -6.591  12.184  68.767  0.00  0.00    -0.268 OA
ATOM     22  N   UNL     1      -7.633  10.336  67.723  0.00  0.00    -0.172 NA
ATOM     23  C   UNL     1      -8.959  10.241  67.288  0.00  0.00    +0.117 A 
ATOM     24  C   UNL     1      -9.334   8.997  66.768  0.00  0.00    +0.214 A 
ATOM     25  C   UNL     1     -10.285   8.274  67.495  0.00  0.00    +0.082 A 
ATOM     26  C   UNL     1     -10.938   8.853  68.599  0.00  0.00    +0.051 A 
ATOM     27  C   UNL     1     -11.020  10.243  68.530  0.00  0.00    +0.199 A 
ATOM     28  O   UNL     1     -12.250  10.942  68.556  0.00  0.00    -0.286 OA
ATOM     29  C   UNL     1     -10.934   8.042  69.696  0.00  0.00    +0.079 A 
ATOM     30  C   UNL     1     -11.612   8.023  70.941  0.00  0.00    +0.251 C 
ATOM     31  C   UNL     1     -10.748   7.158  71.817  0.00  0.00    +0.326 C 
ATOM     32  O   UNL     1      -9.753   6.623  70.964  0.00  0.00    -0.443 OA
ATOM     33  C   UNL     1     -10.241   8.066  72.880  0.00  0.00    +0.100 C 
ATOM     34  O   UNL     1     -11.422   6.030  72.306  0.00  0.00    -0.440 OA
ATOM     35  C   UNL     1     -10.806   4.792  72.513  0.00  0.00    +0.174 C 
ATOM     36  O   UNL     1     -12.789   8.224  71.373  0.00  0.00    -0.284 OA
ATOM     37  C   UNL     1     -10.262   6.810  69.676  0.00  0.00    +0.145 A 
ATOM     38  C   UNL     1     -10.170   6.057  68.500  0.00  0.00    +0.051 A 
ATOM     39  C   UNL     1      -9.536   4.727  68.472  0.00  0.00    +0.038 C 
ATOM     40  C   UNL     1     -10.273   6.883  67.380  0.00  0.00    +0.198 A 
ATOM     41  O   UNL     1     -10.042   6.327  66.140  0.00  0.00    -0.287 OA
ATOM     42  O   UNL     1      -9.157   8.529  65.461  0.00  0.00    -0.285 OA
ATOM     43  C   UNL     1     -10.051  10.964  67.802  0.00  0.00    +0.078 A 
ATOM     44  C   UNL     1      -9.517   4.566  72.444  0.00  0.00    +0.043 C 
ENDROOT
BRANCH  43  45
ATOM     45  C   UNL     1     -10.353  12.345  67.342  0.00  0.00    +0.122 C 
ATOM     46  N   UNL     1     -10.346  13.357  68.122  0.00  0.00    -0.180 NA
BRANCH  46  47
ATOM     47  N   UNL     1     -11.152  14.460  67.779  0.00  0.00    -0.230 N 
ATOM     48  C   UNL     1     -10.938  15.215  66.563  0.00  0.00    +0.128 C 
ATOM     49  C   UNL     1     -10.545  16.629  66.775  0.00  0.00    +0.096 C 
ATOM     50  N   UNL     1     -10.938  17.224  68.014  0.00  0.00    -0.271 NA
ATOM     51  C   UNL     1     -10.797  16.335  69.165  0.00  0.00    +0.096 C 
ATOM     52  C   UNL     1     -11.753  15.173  68.895  0.00  0.00    +0.128 C 
BRANCH  50  53
ATOM     53  C   UNL     1     -10.096  18.405  68.200  0.00  0.00    +0.058 C 
ATOM     54  C   UNL     1      -8.659  18.130  67.777  0.00  0.00    +0.016 C 
ATOM     55  C   UNL     1      -8.109  19.554  67.755  0.00  0.00    +0.001 C 
ATOM     56  C   UNL     1      -9.269  20.435  67.350  0.00  0.00    +0.001 C 
ATOM     57  C   UNL     1     -10.462  19.501  67.206  0.00  0.00    +0.016 C 
ENDBRANCH  50  53
ENDBRANCH  46  47
ENDBRANCH  43  45
BRANCH   1  59
ATOM     58  C   UNL     1     -10.098   4.595  75.234  0.00  0.00    +0.174 C 
ATOM     59  O   UNL     1      -9.406   4.994  74.676  0.00  0.00    -0.349 OA
ENDBRANCH   1  59
BRANCH   4  60
ATOM     60  O   UNL     1      -7.449   2.849  71.932  0.00  0.00    -0.452 OA
BRANCH  60  61
ATOM     61  C   UNL     1      -7.828   1.539  71.705  0.00  0.00    +0.317 C 
ATOM     62  O   UNL     1      -7.523   0.692  72.588  0.00  0.00    -0.250 OA
ATOM     63  C   UNL     1      -8.852   1.113  70.706  0.00  0.00    +0.121 C 
ENDBRANCH  60  61
ENDBRANCH   4  60
TORSDOF 6
ENDMDL
MODEL 7
REMARK VINA RESULT:      -7.2      2.055      3.186
REMARK  Name = 
REMARK  6 active torsions:
REMARK  status: ('A' for Active; 'I' for Inactive)
REMARK    1  A    between atoms: O_2  and  C_3
REMARK    2  A    between atoms: C_15  and  C_16
REMARK    3  A    between atoms: N_17  and  N_18
REMARK    4  A    between atoms: N_21  and  C_22
REMARK    5  A    between atoms: C_55  and  O_56
REMARK    6  A    between atoms: O_56  and  C_57
REMARK                            x       y       z     vdW  Elec       q    Type
REMARK                         _______ _______ _______ _____ _____    ______ ____
ROOT
ATOM      1  C   UNL     1     -10.094   4.311  71.382  0.00  0.00    +0.144 C 
ATOM      2  C   UNL     1      -8.383   4.380  71.577  0.00  0.00    +0.072 C 
ATOM      3  C   UNL     1      -8.500   3.856  73.089  0.00  0.00    +0.007 C 
ATOM      4  C   UNL     1      -8.290   2.806  70.937  0.00  0.00    +0.174 C 
ATOM      5  C   UNL     1      -6.615   2.850  70.598  0.00  0.00    +0.071 C 
ATOM      6  C   UNL     1      -6.148   3.390  72.040  0.00  0.00    +0.006 C 
ATOM      7  C   UNL     1      -6.603   4.414  69.906  0.00  0.00    +0.158 C 
ATOM      8  O   UNL     1      -6.436   3.800  68.521  0.00  0.00    -0.223 OA
ATOM      9  C   UNL     1      -4.913   4.503  70.158  0.00  0.00    +0.061 C 
ATOM     10  C   UNL     1      -5.025   5.847  71.037  0.00  0.00    +0.005 C 
ATOM     11  C   UNL     1      -4.575   5.247  68.651  0.00  0.00    +0.158 C 
ATOM     12  O   UNL     1      -5.589   6.366  68.821  0.00  0.00    -0.223 OA
ATOM     13  C   UNL     1      -3.290   6.195  69.312  0.00  0.00    +0.053 C 
ATOM     14  C   UNL     1      -2.202   4.995  69.073  0.00  0.00    +0.007 C 
ATOM     15  C   UNL     1      -2.981   6.831  67.868  0.00  0.00    -0.024 C 
ATOM     16  C   UNL     1      -3.675   7.970  67.775  0.00  0.00    -0.005 C 
ATOM     17  C   UNL     1      -3.452   8.894  68.842  0.00  0.00    -0.000 C 
ATOM     18  C   UNL     1      -4.322   9.733  69.397  0.00  0.00    +0.033 C 
ATOM     19  C   UNL     1      -4.269   9.715  70.901  0.00  0.00    +0.036 C 
ATOM     20  C   UNL     1      -4.683  11.030  68.782  0.00  0.00    +0.265 C 
ATOM     21  O   UNL     1      -4.055  12.028  69.282  0.00  0.00    -0.268 OA
ATOM     22  N   UNL     1      -5.408  11.002  67.635  0.00  0.00    -0.172 NA
ATOM     23  C   UNL     1      -6.561  11.521  67.037  0.00  0.00    +0.117 A 
ATOM     24  C   UNL     1      -7.211  10.664  66.142  0.00  0.00    +0.214 A 
ATOM     25  C   UNL     1      -8.483  10.218  66.512  0.00  0.00    +0.082 A 
ATOM     26  C   UNL     1      -9.125  10.741  67.650  0.00  0.00    +0.051 A 
ATOM     27  C   UNL     1      -8.717  12.034  67.973  0.00  0.00    +0.199 A 
ATOM     28  O   UNL     1      -9.614  13.126  68.052  0.00  0.00    -0.286 OA
ATOM     29  C   UNL     1      -9.632   9.767  68.462  0.00  0.00    +0.079 A 
ATOM     30  C   UNL     1     -10.528   9.732  69.559  0.00  0.00    +0.251 C 
ATOM     31  C   UNL     1     -10.219   8.431  70.246  0.00  0.00    +0.326 C 
ATOM     32  O   UNL     1      -9.302   7.761  69.401  0.00  0.00    -0.443 OA
ATOM     33  C   UNL     1      -9.677   8.815  71.578  0.00  0.00    +0.100 C 
ATOM     34  O   UNL     1     -11.322   7.569  70.308  0.00  0.00    -0.440 OA
ATOM     35  C   UNL     1     -11.219   6.177  70.223  0.00  0.00    +0.174 C 
ATOM     36  O   UNL     1     -11.633  10.267  69.887  0.00  0.00    -0.284 OA
ATOM     37  C   UNL     1      -9.427   8.410  68.169  0.00  0.00    +0.145 A 
ATOM     38  C   UNL     1      -9.343   7.962  66.846  0.00  0.00    +0.051 A 
ATOM     39  C   UNL     1      -9.204   6.532  66.514  0.00  0.00    +0.038 C 
ATOM     40  C   UNL     1      -8.916   8.991  66.007  0.00  0.00    +0.198 A 
ATOM     41  O   UNL     1      -8.624   8.680  64.696  0.00  0.00    -0.287 OA
ATOM     42  O   UNL     1      -6.925  10.467  64.786  0.00  0.00    -0.285 OA
ATOM     43  C   UNL     1      -7.428  12.472  67.603  0.00  0.00    +0.078 A 
ATOM     44  C   UNL     1     -10.099   5.497  70.246  0.00  0.00    +0.043 C 
ENDROOT
BRANCH  43  45
ATOM     45  C   UNL     1      -7.141  13.928  67.525  0.00  0.00    +0.122 C 
ATOM     46  N   UNL     1      -5.963  14.413  67.628  0.00  0.00    -0.180 NA
BRANCH  46  47
ATOM     47  N   UNL     1      -5.831  15.734  68.099  0.00  0.00    -0.230 N 
ATOM     48  C   UNL     1      -6.687  16.264  69.139  0.00  0.00    +0.128 C 
ATOM     49  C   UNL     1      -7.553  17.388  68.712  0.00  0.00    +0.096 C 
ATOM     50  N   UNL     1      -7.102  18.157  67.595  0.00  0.00    -0.271 NA
ATOM     51  C   UNL     1      -6.514  17.353  66.526  0.00  0.00    +0.096 C 
ATOM     52  C   UNL     1      -5.286  16.691  67.149  0.00  0.00    +0.128 C 
BRANCH  50  53
ATOM     53  C   UNL     1      -8.265  18.880  67.082  0.00  0.00    +0.058 C 
ATOM     54  C   UNL     1      -9.227  17.941  66.367  0.00  0.00    +0.016 C 
ATOM     55  C   UNL     1     -10.446  18.851  66.241  0.00  0.00    +0.001 C 
ATOM     56  C   UNL     1     -10.418  19.744  67.461  0.00  0.00    +0.001 C 
ATOM     57  C   UNL     1      -9.157  19.360  68.221  0.00  0.00    +0.016 C 
ENDBRANCH  50  53
ENDBRANCH  46  47
ENDBRANCH  43  45
BRANCH   1  59
ATOM     58  C   UNL     1     -11.202   5.092  72.872  0.00  0.00    +0.174 C 
ATOM     59  O   UNL     1     -10.335   5.342  72.504  0.00  0.00    -0.349 OA
ENDBRANCH   1  59
BRANCH   4  60
ATOM     60  O   UNL     1      -8.672   3.280  69.513  0.00  0.00    -0.452 OA
BRANCH  60  61
ATOM     61  C   UNL     1      -9.107   2.203  68.762  0.00  0.00    +0.317 C 
ATOM     62  O   UNL     1      -9.661   1.257  69.384  0.00  0.00    -0.250 OA
ATOM     63  C   UNL     1      -9.295   2.222  67.281  0.00  0.00    +0.121 C 
ENDBRANCH  60  61
ENDBRANCH   4  60
TORSDOF 6
ENDMDL
MODEL 8
REMARK VINA RESULT:      -7.2      2.563      4.388
REMARK  Name = 
REMARK  6 active torsions:
REMARK  status: ('A' for Active; 'I' for Inactive)
REMARK    1  A    between atoms: O_2  and  C_3
REMARK    2  A    between atoms: C_15  and  C_16
REMARK    3  A    between atoms: N_17  and  N_18
REMARK    4  A    between atoms: N_21  and  C_22
REMARK    5  A    between atoms: C_55  and  O_56
REMARK    6  A    between atoms: O_56  and  C_57
REMARK                            x       y       z     vdW  Elec       q    Type
REMARK                         _______ _______ _______ _____ _____    ______ ____
ROOT
ATOM      1  C   UNL     1      -5.736   4.332  74.252  0.00  0.00    +0.144 C 
ATOM      2  C   UNL     1      -4.630   5.290  73.342  0.00  0.00    +0.072 C 
ATOM      3  C   UNL     1      -3.694   5.493  74.628  0.00  0.00    +0.007 C 
ATOM      4  C   UNL     1      -3.841   3.858  72.873  0.00  0.00    +0.174 C 
ATOM      5  C   UNL     1      -2.978   4.548  71.569  0.00  0.00    +0.071 C 
ATOM      6  C   UNL     1      -2.396   5.811  72.379  0.00  0.00    +0.006 C 
ATOM      7  C   UNL     1      -4.287   5.444  70.929  0.00  0.00    +0.158 C 
ATOM      8  O   UNL     1      -4.401   4.454  69.776  0.00  0.00    -0.223 OA
ATOM      9  C   UNL     1      -3.181   6.432  70.075  0.00  0.00    +0.061 C 
ATOM     10  C   UNL     1      -3.728   7.785  70.756  0.00  0.00    +0.005 C 
ATOM     11  C   UNL     1      -4.120   6.506  68.643  0.00  0.00    +0.158 C 
ATOM     12  O   UNL     1      -5.397   6.946  69.339  0.00  0.00    -0.223 OA
ATOM     13  C   UNL     1      -3.639   8.132  68.312  0.00  0.00    +0.053 C 
ATOM     14  C   UNL     1      -2.294   7.637  67.520  0.00  0.00    +0.007 C 
ATOM     15  C   UNL     1      -4.499   8.138  66.953  0.00  0.00    -0.024 C 
ATOM     16  C   UNL     1      -5.706   8.632  67.244  0.00  0.00    -0.005 C 
ATOM     17  C   UNL     1      -5.689   9.907  67.888  0.00  0.00    -0.000 C 
ATOM     18  C   UNL     1      -6.525  10.370  68.813  0.00  0.00    +0.033 C 
ATOM     19  C   UNL     1      -5.813  11.036  69.961  0.00  0.00    +0.036 C 
ATOM     20  C   UNL     1      -7.860  10.917  68.481  0.00  0.00    +0.265 C 
ATOM     21  O   UNL     1      -7.891  12.196  68.427  0.00  0.00    -0.268 OA
ATOM     22  N   UNL     1      -8.802  10.049  68.033  0.00  0.00    -0.172 NA
ATOM     23  C   UNL     1     -10.119   9.631  68.247  0.00  0.00    +0.117 A 
ATOM     24  C   UNL     1     -10.368   8.277  67.998  0.00  0.00    +0.214 A 
ATOM     25  C   UNL     1     -10.706   7.488  69.101  0.00  0.00    +0.082 A 
ATOM     26  C   UNL     1     -10.938   8.073  70.359  0.00  0.00    +0.051 A 
ATOM     27  C   UNL     1     -11.376   9.395  70.286  0.00  0.00    +0.199 A 
ATOM     28  O   UNL     1     -12.602   9.830  70.840  0.00  0.00    -0.286 OA
ATOM     29  C   UNL     1     -10.265   7.440  71.365  0.00  0.00    +0.079 A 
ATOM     30  C   UNL     1     -10.313   7.461  72.781  0.00  0.00    +0.251 C 
ATOM     31  C   UNL     1      -8.976   6.918  73.202  0.00  0.00    +0.326 C 
ATOM     32  O   UNL     1      -8.349   6.479  72.011  0.00  0.00    -0.443 OA
ATOM     33  C   UNL     1      -8.296   8.049  73.889  0.00  0.00    +0.100 C 
ATOM     34  O   UNL     1      -9.078   5.758  73.983  0.00  0.00    -0.440 OA
ATOM     35  C   UNL     1      -8.154   4.710  73.933  0.00  0.00    +0.174 C 
ATOM     36  O   UNL     1     -11.199   7.481  73.691  0.00  0.00    -0.284 OA
ATOM     37  C   UNL     1      -9.392   6.378  71.087  0.00  0.00    +0.145 A 
ATOM     38  C   UNL     1      -9.638   5.501  70.024  0.00  0.00    +0.051 A 
ATOM     39  C   UNL     1      -8.777   4.334  69.759  0.00  0.00    +0.038 C 
ATOM     40  C   UNL     1     -10.409   6.125  69.043  0.00  0.00    +0.198 A 
ATOM     41  O   UNL     1     -10.609   5.459  67.853  0.00  0.00    -0.287 OA
ATOM     42  O   UNL     1     -10.665   7.675  66.770  0.00  0.00    -0.285 OA
ATOM     43  C   UNL     1     -11.021  10.186  69.173  0.00  0.00    +0.078 A 
ATOM     44  C   UNL     1      -7.009   4.738  73.297  0.00  0.00    +0.043 C 
ENDROOT
BRANCH  43  45
ATOM     45  C   UNL     1     -11.816  11.400  68.851  0.00  0.00    +0.122 C 
ATOM     46  N   UNL     1     -11.791  11.966  67.705  0.00  0.00    -0.180 NA
BRANCH  46  47
ATOM     47  N   UNL     1     -12.086  13.342  67.643  0.00  0.00    -0.230 N 
ATOM     48  C   UNL     1     -11.970  14.095  66.412  0.00  0.00    +0.128 C 
ATOM     49  C   UNL     1     -10.946  15.166  66.438  0.00  0.00    +0.096 C 
ATOM     50  N   UNL     1     -10.605  15.695  67.721  0.00  0.00    -0.271 NA
ATOM     51  C   UNL     1     -10.506  14.682  68.769  0.00  0.00    +0.096 C 
ATOM     52  C   UNL     1     -11.906  14.082  68.882  0.00  0.00    +0.128 C 
BRANCH  50  53
ATOM     53  C   UNL     1      -9.317  16.373  67.570  0.00  0.00    +0.058 C 
ATOM     54  C   UNL     1      -8.726  16.130  66.187  0.00  0.00    +0.016 C 
ATOM     55  C   UNL     1      -7.613  17.174  66.184  0.00  0.00    +0.001 C 
ATOM     56  C   UNL     1      -8.129  18.325  67.019  0.00  0.00    +0.001 C 
ATOM     57  C   UNL     1      -9.497  17.886  67.521  0.00  0.00    +0.016 C 
ENDBRANCH  50  53
ENDBRANCH  46  47
ENDBRANCH  43  45
BRANCH   1  59
ATOM     58  C   UNL     1      -6.259   5.043  76.062  0.00  0.00    +0.174 C 
ATOM     59  O   UNL     1      -6.053   5.489  75.220  0.00  0.00    -0.349 OA
ENDBRANCH   1  59
BRANCH   4  60
ATOM     60  O   UNL     1      -5.016   3.417  71.967  0.00  0.00    -0.452 OA
BRANCH  60  61
ATOM     61  C   UNL     1      -5.081   2.036  71.924  0.00  0.00    +0.317 C 
ATOM     62  O   UNL     1      -5.487   1.513  70.851  0.00  0.00    -0.250 OA
ATOM     63  C   UNL     1      -4.391   1.124  72.884  0.00  0.00    +0.121 C 
ENDBRANCH  60  61
ENDBRANCH   4  60
TORSDOF 6
ENDMDL
MODEL 9
REMARK VINA RESULT:      -6.8      3.170     10.717
REMARK  Name = 
REMARK  6 active torsions:
REMARK  status: ('A' for Active; 'I' for Inactive)
REMARK    1  A    between atoms: O_2  and  C_3
REMARK    2  A    between atoms: C_15  and  C_16
REMARK    3  A    between atoms: N_17  and  N_18
REMARK    4  A    between atoms: N_21  and  C_22
REMARK    5  A    between atoms: C_55  and  O_56
REMARK    6  A    between atoms: O_56  and  C_57
REMARK                            x       y       z     vdW  Elec       q    Type
REMARK                         _______ _______ _______ _____ _____    ______ ____
ROOT
ATOM      1  C   UNL     1      -4.853  18.651  69.785  0.00  0.00    +0.144 C 
ATOM      2  C   UNL     1      -6.463  18.638  69.170  0.00  0.00    +0.072 C 
ATOM      3  C   UNL     1      -6.848  19.919  70.057  0.00  0.00    +0.007 C 
ATOM      4  C   UNL     1      -5.927  19.584  67.862  0.00  0.00    +0.174 C 
ATOM      5  C   UNL     1      -7.284  19.296  66.865  0.00  0.00    +0.071 C 
ATOM      6  C   UNL     1      -8.403  19.634  67.972  0.00  0.00    +0.006 C 
ATOM      7  C   UNL     1      -7.377  17.613  67.151  0.00  0.00    +0.158 C 
ATOM      8  O   UNL     1      -6.826  17.345  65.756  0.00  0.00    -0.223 OA
ATOM      9  C   UNL     1      -8.996  17.616  66.599  0.00  0.00    +0.061 C 
ATOM     10  C   UNL     1      -9.559  16.994  67.973  0.00  0.00    +0.005 C 
ATOM     11  C   UNL     1      -8.861  16.147  65.726  0.00  0.00    +0.158 C 
ATOM     12  O   UNL     1      -8.288  15.351  66.887  0.00  0.00    -0.223 OA
ATOM     13  C   UNL     1     -10.483  15.681  66.095  0.00  0.00    +0.053 C 
ATOM     14  C   UNL     1     -11.076  16.503  64.809  0.00  0.00    +0.007 C 
ATOM     15  C   UNL     1     -10.322  14.337  65.227  0.00  0.00    -0.024 C 
ATOM     16  C   UNL     1      -9.932  13.367  66.059  0.00  0.00    -0.005 C 
ATOM     17  C   UNL     1     -10.772  13.186  67.201  0.00  0.00    -0.000 C 
ATOM     18  C   UNL     1     -10.417  12.831  68.433  0.00  0.00    +0.033 C 
ATOM     19  C   UNL     1     -11.065  13.682  69.493  0.00  0.00    +0.036 C 
ATOM     20  C   UNL     1     -10.148  11.426  68.813  0.00  0.00    +0.265 C 
ATOM     21  O   UNL     1     -11.135  10.853  69.393  0.00  0.00    -0.268 OA
ATOM     22  N   UNL     1      -9.038  10.838  68.300  0.00  0.00    -0.172 NA
ATOM     23  C   UNL     1      -7.895  10.117  68.662  0.00  0.00    +0.117 A 
ATOM     24  C   UNL     1      -6.762  10.354  67.876  0.00  0.00    +0.214 A 
ATOM     25  C   UNL     1      -5.681  10.978  68.506  0.00  0.00    +0.082 A 
ATOM     26  C   UNL     1      -5.690  11.202  69.895  0.00  0.00    +0.051 A 
ATOM     27  C   UNL     1      -6.479  10.293  70.599  0.00  0.00    +0.199 A 
ATOM     28  O   UNL     1      -5.967   9.465  71.626  0.00  0.00    -0.286 OA
ATOM     29  C   UNL     1      -5.343  12.481  70.224  0.00  0.00    +0.079 A 
ATOM     30  C   UNL     1      -4.982  13.154  71.418  0.00  0.00    +0.251 C 
ATOM     31  C   UNL     1      -5.234  14.604  71.112  0.00  0.00    +0.326 C 
ATOM     32  O   UNL     1      -5.552  14.655  69.733  0.00  0.00    -0.443 OA
ATOM     33  C   UNL     1      -6.337  15.007  72.025  0.00  0.00    +0.100 C 
ATOM     34  O   UNL     1      -4.083  15.396  71.227  0.00  0.00    -0.440 OA
ATOM     35  C   UNL     1      -3.820  16.499  70.411  0.00  0.00    +0.174 C 
ATOM     36  O   UNL     1      -4.259  12.934  72.438  0.00  0.00    -0.284 OA
ATOM     37  C   UNL     1      -5.095  13.436  69.226  0.00  0.00    +0.145 A 
ATOM     38  C   UNL     1      -4.534  13.068  67.998  0.00  0.00    +0.051 A 
ATOM     39  C   UNL     1      -4.195  14.063  66.965  0.00  0.00    +0.038 C 
ATOM     40  C   UNL     1      -4.811  11.730  67.714  0.00  0.00    +0.198 A 
ATOM     41  O   UNL     1      -4.472  11.247  66.469  0.00  0.00    -0.287 OA
ATOM     42  O   UNL     1      -6.425   9.751  66.658  0.00  0.00    -0.285 OA
ATOM     43  C   UNL     1      -7.573   9.675  69.957  0.00  0.00    +0.078 A 
ATOM     44  C   UNL     1      -4.664  17.035  69.564  0.00  0.00    +0.043 C 
ENDROOT
BRANCH  43  45
ATOM     45  C   UNL     1      -8.132   8.413  70.509  0.00  0.00    +0.122 C 
ATOM     46  N   UNL     1      -8.140   7.312  69.861  0.00  0.00    -0.180 NA
BRANCH  46  47
ATOM     47  N   UNL     1      -9.134   6.366  70.179  0.00  0.00    -0.230 N 
ATOM     48  C   UNL     1     -10.358   6.257  69.416  0.00  0.00    +0.128 C 
ATOM     49  C   UNL     1     -11.590   6.570  70.179  0.00  0.00    +0.096 C 
ATOM     50  N   UNL     1     -11.527   6.402  71.597  0.00  0.00    -0.271 NA
ATOM     51  C   UNL     1     -10.269   6.853  72.187  0.00  0.00    +0.096 C 
ATOM     52  C   UNL     1      -9.192   5.959  71.574  0.00  0.00    +0.128 C 
BRANCH  50  53
ATOM     53  C   UNL     1     -12.638   7.167  72.163  0.00  0.00    +0.058 C 
ATOM     54  C   UNL     1     -12.465   8.659  71.911  0.00  0.00    +0.016 C 
ATOM     55  C   UNL     1     -13.858   9.157  72.285  0.00  0.00    +0.001 C 
ATOM     56  C   UNL     1     -14.807   8.039  71.914  0.00  0.00    +0.001 C 
ATOM     57  C   UNL     1     -13.927   6.913  71.390  0.00  0.00    +0.016 C 
ENDBRANCH  50  53
ENDBRANCH  46  47
ENDBRANCH  43  45
BRANCH   1  59
ATOM     58  C   UNL     1      -4.864  19.120  71.743  0.00  0.00    +0.174 C 
ATOM     59  O   UNL     1      -5.328  18.430  71.235  0.00  0.00    -0.349 OA
ENDBRANCH   1  59
BRANCH   4  60
ATOM     60  O   UNL     1      -5.125  18.412  67.245  0.00  0.00    -0.452 OA
BRANCH  60  61
ATOM     61  C   UNL     1      -4.014  18.903  66.583  0.00  0.00    +0.317 C 
ATOM     62  O   UNL     1      -3.413  18.112  65.807  0.00  0.00    -0.250 OA
ATOM     63  C   UNL     1      -3.685  20.352  66.437  0.00  0.00    +0.121 C 
ENDBRANCH  60  61
ENDBRANCH   4  60
TORSDOF 6
ENDMDL
