MODEL 1
REMARK VINA RESULT:      -6.3      0.000      0.000
REMARK  Name = 
REMARK  2 active torsions:
REMARK  status: ('A' for Active; 'I' for Inactive)
REMARK    1  A    between atoms: C_10  and  C_11
REMARK    2  A    between atoms: C_11  and  C_12
REMARK                            x       y       z     vdW  Elec       q    Type
REMARK                         _______ _______ _______ _____ _____    ______ ____
ROOT
ATOM      1  C   UNL     1     -14.067  14.660  72.092  0.00  0.00    -0.000 A 
ATOM      2  C   UNL     1     -13.633  13.346  72.212  0.00  0.00    -0.000 A 
ATOM      3  C   UNL     1     -12.746  12.878  71.251  0.00  0.00    -0.000 A 
ATOM      4  C   UNL     1     -12.607  11.507  71.087  0.00  0.00    -0.000 A 
ATOM      5  C   UNL     1     -11.853  11.034  70.025  0.00  0.00    -0.000 A 
ATOM      6  C   UNL     1     -11.633  11.856  68.938  0.00  0.00    -0.004 A 
ATOM      7  C   UNL     1     -11.851  13.226  69.018  0.00  0.00    -0.010 A 
ATOM      8  C   UNL     1     -12.223  13.690  70.269  0.00  0.00    -0.003 A 
ATOM      9  C   UNL     1     -12.365  15.055  70.474  0.00  0.00    -0.000 A 
ATOM     10  C   UNL     1     -13.193  15.545  71.473  0.00  0.00    -0.000 A 
ENDROOT
BRANCH   7  11
ATOM     11  C   UNL     1     -11.986  14.068  67.800  0.00  0.00    +0.147 C 
BRANCH  11  12
ATOM     12  C   UNL     1     -11.557  13.325  66.577  0.00  0.00    +0.336 C 
ATOM     13  N   UNL     1     -12.363  12.515  65.712  0.00  0.00    -0.030 NA
ATOM     14  C   UNL     1     -11.897  12.739  64.346  0.00  0.00    +0.308 C 
ATOM     15  C   UNL     1     -10.464  13.169  64.609  0.00  0.00    +0.318 C 
ATOM     16  N   UNL     1     -10.366  13.285  66.057  0.00  0.00    -0.061 NA
ENDBRANCH  11  12
ENDBRANCH   7  11
TORSDOF 2
ENDMDL
MODEL 2
REMARK VINA RESULT:      -6.1      2.173      3.743
REMARK  Name = 
REMARK  2 active torsions:
REMARK  status: ('A' for Active; 'I' for Inactive)
REMARK    1  A    between atoms: C_10  and  C_11
REMARK    2  A    between atoms: C_11  and  C_12
REMARK                            x       y       z     vdW  Elec       q    Type
REMARK                         _______ _______ _______ _____ _____    ______ ____
ROOT
ATOM      1  C   UNL     1     -12.255  11.019  71.013  0.00  0.00    -0.000 A 
ATOM      2  C   UNL     1     -13.063  11.841  71.786  0.00  0.00    -0.000 A 
ATOM      3  C   UNL     1     -13.028  13.204  71.517  0.00  0.00    -0.000 A 
ATOM      4  C   UNL     1     -13.477  14.085  72.490  0.00  0.00    -0.000 A 
ATOM      5  C   UNL     1     -13.293  15.445  72.297  0.00  0.00    -0.000 A 
ATOM      6  C   UNL     1     -12.321  15.873  71.415  0.00  0.00    -0.004 A 
ATOM      7  C   UNL     1     -11.763  15.005  70.484  0.00  0.00    -0.010 A 
ATOM      8  C   UNL     1     -12.309  13.732  70.467  0.00  0.00    -0.003 A 
ATOM      9  C   UNL     1     -11.889  12.824  69.505  0.00  0.00    -0.000 A 
ATOM     10  C   UNL     1     -11.978  11.458  69.724  0.00  0.00    -0.000 A 
ENDROOT
BRANCH   7  11
ATOM     11  C   UNL     1     -10.484  15.317  69.793  0.00  0.00    +0.147 C 
BRANCH  11  12
ATOM     12  C   UNL     1     -10.724  16.068  68.524  0.00  0.00    +0.336 C 
ATOM     13  N   UNL     1     -10.918  17.478  68.359  0.00  0.00    -0.030 NA
ATOM     14  C   UNL     1     -10.247  17.870  67.121  0.00  0.00    +0.308 C 
ATOM     15  C   UNL     1     -10.269  16.551  66.366  0.00  0.00    +0.318 C 
ATOM     16  N   UNL     1     -10.787  15.581  67.320  0.00  0.00    -0.061 NA
ENDBRANCH  11  12
ENDBRANCH   7  11
TORSDOF 2
ENDMDL
MODEL 3
REMARK VINA RESULT:      -6.1      2.523      5.333
REMARK  Name = 
REMARK  2 active torsions:
REMARK  status: ('A' for Active; 'I' for Inactive)
REMARK    1  A    between atoms: C_10  and  C_11
REMARK    2  A    between atoms: C_11  and  C_12
REMARK                            x       y       z     vdW  Elec       q    Type
REMARK                         _______ _______ _______ _____ _____    ______ ____
ROOT
ATOM      1  C   UNL     1     -10.794  12.538  65.678  0.00  0.00    -0.000 A 
ATOM      2  C   UNL     1     -11.086  11.521  66.576  0.00  0.00    -0.000 A 
ATOM      3  C   UNL     1     -11.642  11.889  67.796  0.00  0.00    -0.000 A 
ATOM      4  C   UNL     1     -11.572  10.994  68.854  0.00  0.00    -0.000 A 
ATOM      5  C   UNL     1     -11.972  11.413  70.113  0.00  0.00    -0.000 A 
ATOM      6  C   UNL     1     -12.007  12.765  70.390  0.00  0.00    -0.004 A 
ATOM      7  C   UNL     1     -11.979  13.709  69.371  0.00  0.00    -0.010 A 
ATOM      8  C   UNL     1     -11.992  13.188  68.087  0.00  0.00    -0.003 A 
ATOM      9  C   UNL     1     -12.068  14.052  67.003  0.00  0.00    -0.000 A 
ATOM     10  C   UNL     1     -11.582  13.680  65.759  0.00  0.00    -0.000 A 
ENDROOT
BRANCH   7  11
ATOM     11  C   UNL     1     -11.641  15.134  69.634  0.00  0.00    +0.147 C 
BRANCH  11  12
ATOM     12  C   UNL     1     -12.354  15.644  70.844  0.00  0.00    +0.336 C 
ATOM     13  N   UNL     1     -13.757  15.586  71.128  0.00  0.00    -0.030 NA
ATOM     14  C   UNL     1     -13.902  15.330  72.559  0.00  0.00    +0.308 C 
ATOM     15  C   UNL     1     -12.586  15.892  73.074  0.00  0.00    +0.318 C 
ATOM     16  N   UNL     1     -11.828  16.229  71.879  0.00  0.00    -0.061 NA
ENDBRANCH  11  12
ENDBRANCH   7  11
TORSDOF 2
ENDMDL
MODEL 4
REMARK VINA RESULT:      -6.0      1.405      2.432
REMARK  Name = 
REMARK  2 active torsions:
REMARK  status: ('A' for Active; 'I' for Inactive)
REMARK    1  A    between atoms: C_10  and  C_11
REMARK    2  A    between atoms: C_11  and  C_12
REMARK                            x       y       z     vdW  Elec       q    Type
REMARK                         _______ _______ _______ _____ _____    ______ ____
ROOT
ATOM      1  C   UNL     1     -12.916  11.842  71.354  0.00  0.00    -0.000 A 
ATOM      2  C   UNL     1     -12.190  10.768  70.856  0.00  0.00    -0.000 A 
ATOM      3  C   UNL     1     -11.552  10.942  69.634  0.00  0.00    -0.000 A 
ATOM      4  C   UNL     1     -11.174   9.816  68.917  0.00  0.00    -0.000 A 
ATOM      5  C   UNL     1     -10.689   9.976  67.628  0.00  0.00    -0.000 A 
ATOM      6  C   UNL     1     -10.991  11.132  66.935  0.00  0.00    -0.004 A 
ATOM      7  C   UNL     1     -11.469  12.260  67.592  0.00  0.00    -0.010 A 
ATOM      8  C   UNL     1     -11.540  12.150  68.972  0.00  0.00    -0.003 A 
ATOM      9  C   UNL     1     -11.909  13.256  69.724  0.00  0.00    -0.000 A 
ATOM     10  C   UNL     1     -12.484  13.108  70.977  0.00  0.00    -0.000 A 
ENDROOT
BRANCH   7  11
ATOM     11  C   UNL     1     -12.145  13.363  66.860  0.00  0.00    +0.147 C 
BRANCH  11  12
ATOM     12  C   UNL     1     -12.107  13.137  65.384  0.00  0.00    +0.336 C 
ATOM     13  N   UNL     1     -11.031  13.415  64.479  0.00  0.00    -0.030 NA
ATOM     14  C   UNL     1     -11.003  12.339  63.490  0.00  0.00    +0.308 C 
ATOM     15  C   UNL     1     -12.451  11.879  63.542  0.00  0.00    +0.318 C 
ATOM     16  N   UNL     1     -13.044  12.627  64.641  0.00  0.00    -0.061 NA
ENDBRANCH  11  12
ENDBRANCH   7  11
TORSDOF 2
ENDMDL
MODEL 5
REMARK VINA RESULT:      -6.0      3.134      5.661
REMARK  Name = 
REMARK  2 active torsions:
REMARK  status: ('A' for Active; 'I' for Inactive)
REMARK    1  A    between atoms: C_10  and  C_11
REMARK    2  A    between atoms: C_11  and  C_12
REMARK                            x       y       z     vdW  Elec       q    Type
REMARK                         _______ _______ _______ _____ _____    ______ ____
ROOT
ATOM      1  C   UNL     1      -9.871  10.631  64.206  0.00  0.00    -0.000 A 
ATOM      2  C   UNL     1     -10.203  10.632  65.554  0.00  0.00    -0.000 A 
ATOM      3  C   UNL     1     -11.079  11.618  65.993  0.00  0.00    -0.000 A 
ATOM      4  C   UNL     1     -11.120  11.913  67.348  0.00  0.00    -0.000 A 
ATOM      5  C   UNL     1     -11.864  13.003  67.773  0.00  0.00    -0.000 A 
ATOM      6  C   UNL     1     -12.172  14.000  66.868  0.00  0.00    -0.004 A 
ATOM      7  C   UNL     1     -12.053  13.790  65.500  0.00  0.00    -0.010 A 
ATOM      8  C   UNL     1     -11.684  12.506  65.132  0.00  0.00    -0.003 A 
ATOM      9  C   UNL     1     -11.638  12.170  63.786  0.00  0.00    -0.000 A 
ATOM     10  C   UNL     1     -10.823  11.143  63.334  0.00  0.00    -0.000 A 
ENDROOT
BRANCH   7  11
ATOM     11  C   UNL     1     -12.012  14.921  64.536  0.00  0.00    +0.147 C 
BRANCH  11  12
ATOM     12  C   UNL     1     -10.943  15.900  64.896  0.00  0.00    +0.336 C 
ATOM     13  N   UNL     1     -11.012  17.331  64.862  0.00  0.00    -0.030 NA
ATOM     14  C   UNL     1     -10.265  17.832  66.013  0.00  0.00    +0.308 C 
ATOM     15  C   UNL     1      -9.309  16.674  66.247  0.00  0.00    +0.318 C 
ATOM     16  N   UNL     1      -9.744  15.635  65.325  0.00  0.00    -0.061 NA
ENDBRANCH  11  12
ENDBRANCH   7  11
TORSDOF 2
ENDMDL
MODEL 6
REMARK VINA RESULT:      -5.8      1.686      2.091
REMARK  Name = 
REMARK  2 active torsions:
REMARK  status: ('A' for Active; 'I' for Inactive)
REMARK    1  A    between atoms: C_10  and  C_11
REMARK    2  A    between atoms: C_11  and  C_12
REMARK                            x       y       z     vdW  Elec       q    Type
REMARK                         _______ _______ _______ _____ _____    ______ ____
ROOT
ATOM      1  C   UNL     1     -14.158  14.539  72.189  0.00  0.00    -0.000 A 
ATOM      2  C   UNL     1     -13.651  13.247  72.224  0.00  0.00    -0.000 A 
ATOM      3  C   UNL     1     -12.726  12.899  71.248  0.00  0.00    -0.000 A 
ATOM      4  C   UNL     1     -12.507  11.553  70.990  0.00  0.00    -0.000 A 
ATOM      5  C   UNL     1     -11.714  11.199  69.910  0.00  0.00    -0.000 A 
ATOM      6  C   UNL     1     -11.527  12.108  68.887  0.00  0.00    -0.004 A 
ATOM      7  C   UNL     1     -11.824  13.455  69.059  0.00  0.00    -0.010 A 
ATOM      8  C   UNL     1     -12.238  13.807  70.334  0.00  0.00    -0.003 A 
ATOM      9  C   UNL     1     -12.461  15.144  70.632  0.00  0.00    -0.000 A 
ATOM     10  C   UNL     1     -13.328  15.514  71.649  0.00  0.00    -0.000 A 
ENDROOT
BRANCH   7  11
ATOM     11  C   UNL     1     -11.992  14.372  67.901  0.00  0.00    +0.147 C 
BRANCH  11  12
ATOM     12  C   UNL     1     -10.716  15.082  67.584  0.00  0.00    +0.336 C 
ATOM     13  N   UNL     1      -9.567  14.563  66.904  0.00  0.00    -0.030 NA
ATOM     14  C   UNL     1      -9.035  15.635  66.065  0.00  0.00    +0.308 C 
ATOM     15  C   UNL     1      -9.548  16.853  66.815  0.00  0.00    +0.318 C 
ATOM     16  N   UNL     1     -10.414  16.317  67.855  0.00  0.00    -0.061 NA
ENDBRANCH  11  12
ENDBRANCH   7  11
TORSDOF 2
ENDMDL
MODEL 7
REMARK VINA RESULT:      -5.7      3.232      5.494
REMARK  Name = 
REMARK  2 active torsions:
REMARK  status: ('A' for Active; 'I' for Inactive)
REMARK    1  A    between atoms: C_10  and  C_11
REMARK    2  A    between atoms: C_11  and  C_12
REMARK                            x       y       z     vdW  Elec       q    Type
REMARK                         _______ _______ _______ _____ _____    ______ ____
ROOT
ATOM      1  C   UNL     1     -10.957  12.016  64.825  0.00  0.00    -0.000 A 
ATOM      2  C   UNL     1     -11.545  11.848  66.071  0.00  0.00    -0.000 A 
ATOM      3  C   UNL     1     -11.625  12.966  66.893  0.00  0.00    -0.000 A 
ATOM      4  C   UNL     1     -11.815  12.776  68.254  0.00  0.00    -0.000 A 
ATOM      5  C   UNL     1     -11.730  13.871  69.100  0.00  0.00    -0.000 A 
ATOM      6  C   UNL     1     -11.050  14.995  68.677  0.00  0.00    -0.004 A 
ATOM      7  C   UNL     1     -10.745  15.188  67.335  0.00  0.00    -0.010 A 
ATOM      8  C   UNL     1     -11.238  14.219  66.475  0.00  0.00    -0.003 A 
ATOM      9  C   UNL     1     -11.072  14.377  65.107  0.00  0.00    -0.000 A 
ATOM     10  C   UNL     1     -11.058  13.280  64.258  0.00  0.00    -0.000 A 
ENDROOT
BRANCH   7  11
ATOM     11  C   UNL     1      -9.715  16.169  66.901  0.00  0.00    +0.147 C 
BRANCH  11  12
ATOM     12  C   UNL     1     -10.281  17.549  66.819  0.00  0.00    +0.336 C 
ATOM     13  N   UNL     1     -10.730  18.381  67.896  0.00  0.00    -0.030 NA
ATOM     14  C   UNL     1     -10.347  19.754  67.575  0.00  0.00    +0.308 C 
ATOM     15  C   UNL     1     -10.275  19.674  66.059  0.00  0.00    +0.318 C 
ATOM     16  N   UNL     1     -10.461  18.264  65.748  0.00  0.00    -0.061 NA
ENDBRANCH  11  12
ENDBRANCH   7  11
TORSDOF 2
ENDMDL
MODEL 8
REMARK VINA RESULT:      -5.7      2.794      4.586
REMARK  Name = 
REMARK  2 active torsions:
REMARK  status: ('A' for Active; 'I' for Inactive)
REMARK    1  A    between atoms: C_10  and  C_11
REMARK    2  A    between atoms: C_11  and  C_12
REMARK                            x       y       z     vdW  Elec       q    Type
REMARK                         _______ _______ _______ _____ _____    ______ ____
ROOT
ATOM      1  C   UNL     1     -14.286   7.432  71.580  0.00  0.00    -0.000 A 
ATOM      2  C   UNL     1     -13.003   6.948  71.365  0.00  0.00    -0.000 A 
ATOM      3  C   UNL     1     -11.986   7.884  71.222  0.00  0.00    -0.000 A 
ATOM      4  C   UNL     1     -10.801   7.489  70.616  0.00  0.00    -0.000 A 
ATOM      5  C   UNL     1      -9.848   8.451  70.320  0.00  0.00    -0.000 A 
ATOM      6  C   UNL     1     -10.237   9.772  70.216  0.00  0.00    -0.004 A 
ATOM      7  C   UNL     1     -11.459  10.203  70.719  0.00  0.00    -0.010 A 
ATOM      8  C   UNL     1     -12.196   9.235  71.383  0.00  0.00    -0.003 A 
ATOM      9  C   UNL     1     -13.383   9.593  72.007  0.00  0.00    -0.000 A 
ATOM     10  C   UNL     1     -14.385   8.659  72.223  0.00  0.00    -0.000 A 
ENDROOT
BRANCH   7  11
ATOM     11  C   UNL     1     -12.062  11.497  70.304  0.00  0.00    +0.147 C 
BRANCH  11  12
ATOM     12  C   UNL     1     -11.665  11.858  68.910  0.00  0.00    +0.336 C 
ATOM     13  N   UNL     1     -10.755  12.883  68.492  0.00  0.00    -0.030 NA
ATOM     14  C   UNL     1     -10.008  12.364  67.348  0.00  0.00    +0.308 C 
ATOM     15  C   UNL     1     -10.992  11.332  66.821  0.00  0.00    +0.318 C 
ATOM     16  N   UNL     1     -12.061  11.294  67.807  0.00  0.00    -0.061 NA
ENDBRANCH  11  12
ENDBRANCH   7  11
TORSDOF 2
ENDMDL
MODEL 9
REMARK VINA RESULT:      -5.6      3.386      5.222
REMARK  Name = 
REMARK  2 active torsions:
REMARK  status: ('A' for Active; 'I' for Inactive)
REMARK    1  A    between atoms: C_10  and  C_11
REMARK    2  A    between atoms: C_11  and  C_12
REMARK                            x       y       z     vdW  Elec       q    Type
REMARK                         _______ _______ _______ _____ _____    ______ ____
ROOT
ATOM      1  C   UNL     1     -11.344  11.777  66.796  0.00  0.00    -0.000 A 
ATOM      2  C   UNL     1     -11.764  12.033  68.095  0.00  0.00    -0.000 A 
ATOM      3  C   UNL     1     -11.897  13.364  68.470  0.00  0.00    -0.000 A 
ATOM      4  C   UNL     1     -11.911  13.674  69.823  0.00  0.00    -0.000 A 
ATOM      5  C   UNL     1     -11.877  15.007  70.204  0.00  0.00    -0.000 A 
ATOM      6  C   UNL     1     -11.399  15.948  69.314  0.00  0.00    -0.004 A 
ATOM      7  C   UNL     1     -11.271  15.657  67.961  0.00  0.00    -0.010 A 
ATOM      8  C   UNL     1     -11.725  14.404  67.583  0.00  0.00    -0.003 A 
ATOM      9  C   UNL     1     -11.732  14.059  66.239  0.00  0.00    -0.000 A 
ATOM     10  C   UNL     1     -11.670  12.732  65.841  0.00  0.00    -0.000 A 
ENDROOT
BRANCH   7  11
ATOM     11  C   UNL     1     -10.431  16.489  67.059  0.00  0.00    +0.147 C 
BRANCH  11  12
ATOM     12  C   UNL     1     -10.143  17.824  67.666  0.00  0.00    +0.336 C 
ATOM     13  N   UNL     1      -9.001  18.209  68.442  0.00  0.00    -0.030 NA
ATOM     14  C   UNL     1      -8.666  19.582  68.071  0.00  0.00    +0.308 C 
ATOM     15  C   UNL     1     -10.018  20.076  67.584  0.00  0.00    +0.318 C 
ATOM     16  N   UNL     1     -10.872  18.897  67.590  0.00  0.00    -0.061 NA
ENDBRANCH  11  12
ENDBRANCH   7  11
TORSDOF 2
ENDMDL
