MODEL 1
REMARK VINA RESULT:      -7.5      0.000      0.000
REMARK  Name = 
REMARK  7 active torsions:
REMARK  status: ('A' for Active; 'I' for Inactive)
REMARK    1  A    between atoms: C_2  and  C_3
REMARK    2  A    between atoms: C_3  and  N_4
REMARK    3  A    between atoms: N_7  and  C_8
REMARK    4  A    between atoms: C_8  and  C_9
REMARK    5  A    between atoms: C_9  and  C_10
REMARK    6  A    between atoms: C_10  and  N_11
REMARK    7  A    between atoms: C_22  and  C_23
REMARK                            x       y       z     vdW  Elec       q    Type
REMARK                         _______ _______ _______ _____ _____    ______ ____
ROOT
ATOM      1  N   UNL     1     -11.778  12.961  68.058  0.00  0.00    -0.286 N 
ATOM      2  C   UNL     1     -11.532  11.731  68.746  0.00  0.00    +0.058 A 
ATOM      3  C   UNL     1     -10.577  10.847  68.257  0.00  0.00    +0.043 A 
ATOM      4  C   UNL     1     -10.235   9.761  69.013  0.00  0.00    +0.008 A 
ATOM      5  C   UNL     1     -10.772   9.579  70.282  0.00  0.00    +0.004 A 
ATOM      6  C   UNL     1     -11.803  10.387  70.745  0.00  0.00    +0.073 A 
ATOM      7  S   UNL     1     -10.570  10.628  66.473  0.00  0.00    -0.084 S 
ATOM      8  C   UNL     1     -11.425  12.066  65.817  0.00  0.00    +0.043 A 
ATOM      9  C   UNL     1     -11.822  12.147  64.499  0.00  0.00    +0.008 A 
ATOM     10  C   UNL     1     -11.979  13.399  63.928  0.00  0.00    +0.001 A 
ATOM     11  C   UNL     1     -11.880  14.530  64.729  0.00  0.00    +0.001 A 
ATOM     12  C   UNL     1     -11.877  14.344  66.094  0.00  0.00    +0.015 A 
ATOM     13  C   UNL     1     -11.980  11.579  70.053  0.00  0.00    +0.019 A 
ATOM     14  C   UNL     1     -11.475  13.150  66.683  0.00  0.00    +0.058 A 
ENDROOT
BRANCH   6  15
ATOM     15  C   UNL     1     -12.835   9.843  71.667  0.00  0.00    +0.419 C 
ATOM     16  F   UNL     1     -13.843   9.189  70.970  0.00  0.00    -0.166 F 
ATOM     17  F   UNL     1     -12.283   8.938  72.552  0.00  0.00    -0.166 F 
ATOM     18  F   UNL     1     -13.465  10.849  72.393  0.00  0.00    -0.166 F 
ENDBRANCH   6  15
BRANCH   1  19
ATOM     19  C   UNL     1     -12.091  14.150  68.848  0.00  0.00    +0.097 C 
BRANCH  19  20
ATOM     20  C   UNL     1     -10.848  14.857  69.322  0.00  0.00    +0.039 C 
BRANCH  20  21
ATOM     21  C   UNL     1     -11.052  16.331  69.128  0.00  0.00    +0.074 C 
BRANCH  21  25
ATOM     22  N   UNL     1      -8.052  18.812  68.638  0.00  0.00    -0.268 NA
ATOM     23  C   UNL     1      -7.692  17.428  68.635  0.00  0.00    +0.090 C 
ATOM     24  C   UNL     1      -8.777  16.470  68.332  0.00  0.00    +0.090 C 
ATOM     25  N   UNL     1     -10.097  16.958  68.277  0.00  0.00    -0.270 NA
ATOM     26  C   UNL     1     -10.289  18.342  68.032  0.00  0.00    +0.090 C 
ATOM     27  C   UNL     1      -9.042  19.053  67.593  0.00  0.00    +0.090 C 
BRANCH  22  28
ATOM     28  C   UNL     1      -6.893  19.661  68.504  0.00  0.00    +0.108 C 
BRANCH  28  30
ATOM     29  O   UNL     1      -6.525  21.622  67.141  0.00  0.00    -0.219 OA
ATOM     30  C   UNL     1      -6.840  20.266  67.127  0.00  0.00    +0.199 C 
ENDBRANCH  28  30
ENDBRANCH  22  28
ENDBRANCH  21  25
ENDBRANCH  20  21
ENDBRANCH  19  20
ENDBRANCH   1  19
TORSDOF 7
ENDMDL
MODEL 2
REMARK VINA RESULT:      -7.4      5.226      8.998
REMARK  Name = 
REMARK  7 active torsions:
REMARK  status: ('A' for Active; 'I' for Inactive)
REMARK    1  A    between atoms: C_2  and  C_3
REMARK    2  A    between atoms: C_3  and  N_4
REMARK    3  A    between atoms: N_7  and  C_8
REMARK    4  A    between atoms: C_8  and  C_9
REMARK    5  A    between atoms: C_9  and  C_10
REMARK    6  A    between atoms: C_10  and  N_11
REMARK    7  A    between atoms: C_22  and  C_23
REMARK                            x       y       z     vdW  Elec       q    Type
REMARK                         _______ _______ _______ _____ _____    ______ ____
ROOT
ATOM      1  N   UNL     1     -12.039  12.707  69.027  0.00  0.00    -0.286 N 
ATOM      2  C   UNL     1     -11.608  13.363  67.831  0.00  0.00    +0.058 A 
ATOM      3  C   UNL     1     -10.927  14.572  67.916  0.00  0.00    +0.043 A 
ATOM      4  C   UNL     1     -10.375  15.100  66.782  0.00  0.00    +0.008 A 
ATOM      5  C   UNL     1     -10.425  14.408  65.577  0.00  0.00    +0.004 A 
ATOM      6  C   UNL     1     -11.189  13.255  65.446  0.00  0.00    +0.073 A 
ATOM      7  S   UNL     1     -11.571  15.738  69.122  0.00  0.00    -0.084 S 
ATOM      8  C   UNL     1     -12.552  14.749  70.258  0.00  0.00    +0.043 A 
ATOM      9  C   UNL     1     -13.394  15.318  71.190  0.00  0.00    +0.008 A 
ATOM     10  C   UNL     1     -13.699  14.601  72.334  0.00  0.00    +0.001 A 
ATOM     11  C   UNL     1     -13.276  13.283  72.446  0.00  0.00    +0.001 A 
ATOM     12  C   UNL     1     -12.789  12.673  71.310  0.00  0.00    +0.015 A 
ATOM     13  C   UNL     1     -11.560  12.648  66.640  0.00  0.00    +0.019 A 
ATOM     14  C   UNL     1     -12.245  13.394  70.253  0.00  0.00    +0.058 A 
ENDROOT
BRANCH   6  15
ATOM     15  C   UNL     1     -11.839  12.922  64.151  0.00  0.00    +0.419 C 
ATOM     16  F   UNL     1     -12.383  14.050  63.551  0.00  0.00    -0.166 F 
ATOM     17  F   UNL     1     -10.931  12.373  63.266  0.00  0.00    -0.166 F 
ATOM     18  F   UNL     1     -12.895  12.031  64.314  0.00  0.00    -0.166 F 
ENDBRANCH   6  15
BRANCH   1  19
ATOM     19  C   UNL     1     -12.002  11.247  69.072  0.00  0.00    +0.097 C 
BRANCH  19  20
ATOM     20  C   UNL     1     -10.636  10.728  69.439  0.00  0.00    +0.039 C 
BRANCH  20  21
ATOM     21  C   UNL     1     -10.691   9.228  69.416  0.00  0.00    +0.074 C 
BRANCH  21  25
ATOM     22  N   UNL     1     -10.724   6.561  72.294  0.00  0.00    -0.268 NA
ATOM     23  C   UNL     1     -10.399   7.889  72.711  0.00  0.00    +0.090 C 
ATOM     24  C   UNL     1     -10.832   8.982  71.813  0.00  0.00    +0.090 C 
ATOM     25  N   UNL     1     -11.332   8.638  70.543  0.00  0.00    -0.270 NA
ATOM     26  C   UNL     1     -11.845   7.328  70.358  0.00  0.00    +0.090 C 
ATOM     27  C   UNL     1     -12.028   6.569  71.639  0.00  0.00    +0.090 C 
BRANCH  22  28
ATOM     28  C   UNL     1     -10.666   5.630  73.395  0.00  0.00    +0.108 C 
BRANCH  28  30
ATOM     29  O   UNL     1     -10.135   5.485  75.747  0.00  0.00    -0.219 OA
ATOM     30  C   UNL     1     -10.086   6.293  74.615  0.00  0.00    +0.199 C 
ENDBRANCH  28  30
ENDBRANCH  22  28
ENDBRANCH  21  25
ENDBRANCH  20  21
ENDBRANCH  19  20
ENDBRANCH   1  19
TORSDOF 7
ENDMDL
MODEL 3
REMARK VINA RESULT:      -7.2      2.380      3.233
REMARK  Name = 
REMARK  7 active torsions:
REMARK  status: ('A' for Active; 'I' for Inactive)
REMARK    1  A    between atoms: C_2  and  C_3
REMARK    2  A    between atoms: C_3  and  N_4
REMARK    3  A    between atoms: N_7  and  C_8
REMARK    4  A    between atoms: C_8  and  C_9
REMARK    5  A    between atoms: C_9  and  C_10
REMARK    6  A    between atoms: C_10  and  N_11
REMARK    7  A    between atoms: C_22  and  C_23
REMARK                            x       y       z     vdW  Elec       q    Type
REMARK                         _______ _______ _______ _____ _____    ______ ____
ROOT
ATOM      1  N   UNL     1     -11.495  14.712  68.000  0.00  0.00    -0.286 N 
ATOM      2  C   UNL     1     -12.057  14.080  69.154  0.00  0.00    +0.058 A 
ATOM      3  C   UNL     1     -11.740  12.756  69.437  0.00  0.00    +0.043 A 
ATOM      4  C   UNL     1     -12.148  12.221  70.627  0.00  0.00    +0.008 A 
ATOM      5  C   UNL     1     -12.801  13.002  71.574  0.00  0.00    +0.004 A 
ATOM      6  C   UNL     1     -13.221  14.291  71.269  0.00  0.00    +0.073 A 
ATOM      7  S   UNL     1     -11.703  11.651  68.021  0.00  0.00    -0.084 S 
ATOM      8  C   UNL     1     -11.522  12.722  66.590  0.00  0.00    +0.043 A 
ATOM      9  C   UNL     1     -11.684  12.261  65.301  0.00  0.00    +0.008 A 
ATOM     10  C   UNL     1     -11.047  12.931  64.270  0.00  0.00    +0.001 A 
ATOM     11  C   UNL     1     -10.390  14.125  64.538  0.00  0.00    +0.001 A 
ATOM     12  C   UNL     1     -10.614  14.713  65.763  0.00  0.00    +0.015 A 
ATOM     13  C   UNL     1     -12.624  14.863  70.153  0.00  0.00    +0.019 A 
ATOM     14  C   UNL     1     -11.019  13.985  66.877  0.00  0.00    +0.058 A 
ENDROOT
BRANCH   6  15
ATOM     15  C   UNL     1     -14.455  14.849  71.883  0.00  0.00    +0.419 C 
ATOM     16  F   UNL     1     -15.226  15.524  70.947  0.00  0.00    -0.166 F 
ATOM     17  F   UNL     1     -15.236  13.848  72.426  0.00  0.00    -0.166 F 
ATOM     18  F   UNL     1     -14.166  15.777  72.879  0.00  0.00    -0.166 F 
ENDBRANCH   6  15
BRANCH   1  19
ATOM     19  C   UNL     1     -11.140  16.127  68.085  0.00  0.00    +0.097 C 
BRANCH  19  20
ATOM     20  C   UNL     1      -9.803  16.336  68.747  0.00  0.00    +0.039 C 
BRANCH  20  21
ATOM     21  C   UNL     1      -9.531  17.811  68.784  0.00  0.00    +0.074 C 
BRANCH  21  25
ATOM     22  N   UNL     1      -6.045  19.347  69.727  0.00  0.00    -0.268 NA
ATOM     23  C   UNL     1      -6.066  17.920  69.632  0.00  0.00    +0.090 C 
ATOM     24  C   UNL     1      -7.165  17.333  68.836  0.00  0.00    +0.090 C 
ATOM     25  N   UNL     1      -8.206  18.182  68.414  0.00  0.00    -0.270 NA
ATOM     26  C   UNL     1      -7.943  19.574  68.335  0.00  0.00    +0.090 C 
ATOM     27  C   UNL     1      -6.488  19.918  68.459  0.00  0.00    +0.090 C 
BRANCH  22  28
ATOM     28  C   UNL     1      -4.747  19.833  70.126  0.00  0.00    +0.108 C 
BRANCH  28  30
ATOM     29  O   UNL     1      -4.493  21.880  71.383  0.00  0.00    -0.219 OA
ATOM     30  C   UNL     1      -4.831  20.532  71.455  0.00  0.00    +0.199 C 
ENDBRANCH  28  30
ENDBRANCH  22  28
ENDBRANCH  21  25
ENDBRANCH  20  21
ENDBRANCH  19  20
ENDBRANCH   1  19
TORSDOF 7
ENDMDL
MODEL 4
REMARK VINA RESULT:      -7.1      4.823      8.255
REMARK  Name = 
REMARK  7 active torsions:
REMARK  status: ('A' for Active; 'I' for Inactive)
REMARK    1  A    between atoms: C_2  and  C_3
REMARK    2  A    between atoms: C_3  and  N_4
REMARK    3  A    between atoms: N_7  and  C_8
REMARK    4  A    between atoms: C_8  and  C_9
REMARK    5  A    between atoms: C_9  and  C_10
REMARK    6  A    between atoms: C_10  and  N_11
REMARK    7  A    between atoms: C_22  and  C_23
REMARK                            x       y       z     vdW  Elec       q    Type
REMARK                         _______ _______ _______ _____ _____    ______ ____
ROOT
ATOM      1  N   UNL     1     -12.094  12.799  69.146  0.00  0.00    -0.286 N 
ATOM      2  C   UNL     1     -11.583  13.415  67.960  0.00  0.00    +0.058 A 
ATOM      3  C   UNL     1     -10.810  14.567  68.060  0.00  0.00    +0.043 A 
ATOM      4  C   UNL     1     -10.191  15.045  66.939  0.00  0.00    +0.008 A 
ATOM      5  C   UNL     1     -10.266  14.355  65.734  0.00  0.00    +0.004 A 
ATOM      6  C   UNL     1     -11.116  13.267  65.586  0.00  0.00    +0.073 A 
ATOM      7  S   UNL     1     -11.388  15.784  69.249  0.00  0.00    -0.084 S 
ATOM      8  C   UNL     1     -12.472  14.879  70.361  0.00  0.00    +0.043 A 
ATOM      9  C   UNL     1     -13.288  15.517  71.272  0.00  0.00    +0.008 A 
ATOM     10  C   UNL     1     -13.678  14.830  72.409  0.00  0.00    +0.001 A 
ATOM     11  C   UNL     1     -13.364  13.482  72.533  0.00  0.00    +0.001 A 
ATOM     12  C   UNL     1     -12.899  12.833  71.410  0.00  0.00    +0.015 A 
ATOM     13  C   UNL     1     -11.563  12.695  66.771  0.00  0.00    +0.019 A 
ATOM     14  C   UNL     1     -12.274  13.504  70.365  0.00  0.00    +0.058 A 
ENDROOT
BRANCH   6  15
ATOM     15  C   UNL     1     -11.759  12.982  64.275  0.00  0.00    +0.419 C 
ATOM     16  F   UNL     1     -12.778  12.048  64.403  0.00  0.00    -0.166 F 
ATOM     17  F   UNL     1     -12.306  14.128  63.731  0.00  0.00    -0.166 F 
ATOM     18  F   UNL     1     -10.859  12.441  63.362  0.00  0.00    -0.166 F 
ENDBRANCH   6  15
BRANCH   1  19
ATOM     19  C   UNL     1     -12.174  11.341  69.194  0.00  0.00    +0.097 C 
BRANCH  19  20
ATOM     20  C   UNL     1     -10.902  10.722  69.711  0.00  0.00    +0.039 C 
BRANCH  20  21
ATOM     21  C   UNL     1     -11.264   9.791  70.831  0.00  0.00    +0.074 C 
BRANCH  21  25
ATOM     22  N   UNL     1      -8.297   8.486  73.044  0.00  0.00    -0.268 NA
ATOM     23  C   UNL     1      -9.553   7.844  73.285  0.00  0.00    +0.090 C 
ATOM     24  C   UNL     1     -10.552   7.932  72.198  0.00  0.00    +0.090 C 
ATOM     25  N   UNL     1     -10.284   8.797  71.119  0.00  0.00    -0.270 NA
ATOM     26  C   UNL     1      -8.935   9.155  70.867  0.00  0.00    +0.090 C 
ATOM     27  C   UNL     1      -7.942   8.334  71.637  0.00  0.00    +0.090 C 
BRANCH  22  28
ATOM     28  C   UNL     1      -7.270   7.990  73.927  0.00  0.00    +0.108 C 
BRANCH  28  30
ATOM     29  O   UNL     1      -6.611   9.867  75.300  0.00  0.00    -0.219 OA
ATOM     30  C   UNL     1      -7.343   8.684  75.261  0.00  0.00    +0.199 C 
ENDBRANCH  28  30
ENDBRANCH  22  28
ENDBRANCH  21  25
ENDBRANCH  20  21
ENDBRANCH  19  20
ENDBRANCH   1  19
TORSDOF 7
ENDMDL
MODEL 5
REMARK VINA RESULT:      -7.0      2.396      3.109
REMARK  Name = 
REMARK  7 active torsions:
REMARK  status: ('A' for Active; 'I' for Inactive)
REMARK    1  A    between atoms: C_2  and  C_3
REMARK    2  A    between atoms: C_3  and  N_4
REMARK    3  A    between atoms: N_7  and  C_8
REMARK    4  A    between atoms: C_8  and  C_9
REMARK    5  A    between atoms: C_9  and  C_10
REMARK    6  A    between atoms: C_10  and  N_11
REMARK    7  A    between atoms: C_22  and  C_23
REMARK                            x       y       z     vdW  Elec       q    Type
REMARK                         _______ _______ _______ _____ _____    ______ ____
ROOT
ATOM      1  N   UNL     1     -11.459  14.553  68.017  0.00  0.00    -0.286 N 
ATOM      2  C   UNL     1     -12.024  13.915  69.166  0.00  0.00    +0.058 A 
ATOM      3  C   UNL     1     -11.741  12.577  69.419  0.00  0.00    +0.043 A 
ATOM      4  C   UNL     1     -12.147  12.029  70.604  0.00  0.00    +0.008 A 
ATOM      5  C   UNL     1     -12.765  12.810  71.575  0.00  0.00    +0.004 A 
ATOM      6  C   UNL     1     -13.152  14.116  71.302  0.00  0.00    +0.073 A 
ATOM      7  S   UNL     1     -11.755  11.499  67.981  0.00  0.00    -0.084 S 
ATOM      8  C   UNL     1     -11.563  12.593  66.569  0.00  0.00    +0.043 A 
ATOM      9  C   UNL     1     -11.756  12.163  65.273  0.00  0.00    +0.008 A 
ATOM     10  C   UNL     1     -11.114  12.835  64.247  0.00  0.00    +0.001 A 
ATOM     11  C   UNL     1     -10.419  14.004  64.529  0.00  0.00    +0.001 A 
ATOM     12  C   UNL     1     -10.609  14.574  65.769  0.00  0.00    +0.015 A 
ATOM     13  C   UNL     1     -12.554  14.693  70.188  0.00  0.00    +0.019 A 
ATOM     14  C   UNL     1     -11.019  13.835  66.873  0.00  0.00    +0.058 A 
ENDROOT
BRANCH   6  15
ATOM     15  C   UNL     1     -14.361  14.696  71.944  0.00  0.00    +0.419 C 
ATOM     16  F   UNL     1     -15.069  15.498  71.059  0.00  0.00    -0.166 F 
ATOM     17  F   UNL     1     -15.214  13.704  72.386  0.00  0.00    -0.166 F 
ATOM     18  F   UNL     1     -14.034  15.514  73.022  0.00  0.00    -0.166 F 
ENDBRANCH   6  15
BRANCH   1  19
ATOM     19  C   UNL     1     -11.062  15.955  68.125  0.00  0.00    +0.097 C 
BRANCH  19  20
ATOM     20  C   UNL     1      -9.685  16.109  68.715  0.00  0.00    +0.039 C 
BRANCH  20  21
ATOM     21  C   UNL     1      -9.291  17.553  68.598  0.00  0.00    +0.074 C 
BRANCH  21  25
ATOM     22  N   UNL     1      -6.499  19.012  66.259  0.00  0.00    -0.268 NA
ATOM     23  C   UNL     1      -6.676  17.596  66.171  0.00  0.00    +0.090 C 
ATOM     24  C   UNL     1      -7.979  17.068  66.631  0.00  0.00    +0.090 C 
ATOM     25  N   UNL     1      -8.850  17.947  67.302  0.00  0.00    -0.270 NA
ATOM     26  C   UNL     1      -8.687  19.341  67.093  0.00  0.00    +0.090 C 
ATOM     27  C   UNL     1      -7.764  19.673  65.957  0.00  0.00    +0.090 C 
BRANCH  22  28
ATOM     28  C   UNL     1      -5.424  19.466  65.410  0.00  0.00    +0.108 C 
BRANCH  28  30
ATOM     29  O   UNL     1      -5.829  19.129  63.052  0.00  0.00    -0.219 OA
ATOM     30  C   UNL     1      -5.969  20.013  64.119  0.00  0.00    +0.199 C 
ENDBRANCH  28  30
ENDBRANCH  22  28
ENDBRANCH  21  25
ENDBRANCH  20  21
ENDBRANCH  19  20
ENDBRANCH   1  19
TORSDOF 7
ENDMDL
MODEL 6
REMARK VINA RESULT:      -7.0      5.148      8.700
REMARK  Name = 
REMARK  7 active torsions:
REMARK  status: ('A' for Active; 'I' for Inactive)
REMARK    1  A    between atoms: C_2  and  C_3
REMARK    2  A    between atoms: C_3  and  N_4
REMARK    3  A    between atoms: N_7  and  C_8
REMARK    4  A    between atoms: C_8  and  C_9
REMARK    5  A    between atoms: C_9  and  C_10
REMARK    6  A    between atoms: C_10  and  N_11
REMARK    7  A    between atoms: C_22  and  C_23
REMARK                            x       y       z     vdW  Elec       q    Type
REMARK                         _______ _______ _______ _____ _____    ______ ____
ROOT
ATOM      1  N   UNL     1     -12.057  12.474  69.189  0.00  0.00    -0.286 N 
ATOM      2  C   UNL     1     -11.522  12.955  67.953  0.00  0.00    +0.058 A 
ATOM      3  C   UNL     1     -10.719  14.091  67.946  0.00  0.00    +0.043 A 
ATOM      4  C   UNL     1     -10.080  14.439  66.789  0.00  0.00    +0.008 A 
ATOM      5  C   UNL     1     -10.166  13.637  65.657  0.00  0.00    +0.004 A 
ATOM      6  C   UNL     1     -11.044  12.561  65.609  0.00  0.00    +0.073 A 
ATOM      7  S   UNL     1     -11.271  15.434  69.004  0.00  0.00    -0.084 S 
ATOM      8  C   UNL     1     -12.386  14.673  70.191  0.00  0.00    +0.043 A 
ATOM      9  C   UNL     1     -13.190  15.418  71.026  0.00  0.00    +0.008 A 
ATOM     10  C   UNL     1     -13.605  14.858  72.223  0.00  0.00    +0.001 A 
ATOM     11  C   UNL     1     -13.329  13.521  72.481  0.00  0.00    +0.001 A 
ATOM     12  C   UNL     1     -12.875  12.751  71.432  0.00  0.00    +0.015 A 
ATOM     13  C   UNL     1     -11.514  12.121  66.841  0.00  0.00    +0.019 A 
ATOM     14  C   UNL     1     -12.226  13.300  70.332  0.00  0.00    +0.058 A 
ENDROOT
BRANCH   6  15
ATOM     15  C   UNL     1     -11.687  12.166  64.328  0.00  0.00    +0.419 C 
ATOM     16  F   UNL     1     -11.472  13.117  63.339  0.00  0.00    -0.166 F 
ATOM     17  F   UNL     1     -11.184  10.964  63.870  0.00  0.00    -0.166 F 
ATOM     18  F   UNL     1     -13.068  12.052  64.453  0.00  0.00    -0.166 F 
ENDBRANCH   6  15
BRANCH   1  19
ATOM     19  C   UNL     1     -12.177  11.030  69.380  0.00  0.00    +0.097 C 
BRANCH  19  20
ATOM     20  C   UNL     1     -10.847  10.385  69.666  0.00  0.00    +0.039 C 
BRANCH  20  21
ATOM     21  C   UNL     1     -10.963   9.641  70.964  0.00  0.00    +0.074 C 
BRANCH  21  25
ATOM     22  N   UNL     1     -10.361   6.363  68.895  0.00  0.00    -0.268 NA
ATOM     23  C   UNL     1      -9.173   7.080  69.241  0.00  0.00    +0.090 C 
ATOM     24  C   UNL     1      -9.280   8.010  70.386  0.00  0.00    +0.090 C 
ATOM     25  N   UNL     1     -10.561   8.275  70.907  0.00  0.00    -0.270 NA
ATOM     26  C   UNL     1     -11.590   7.328  70.668  0.00  0.00    +0.090 C 
ATOM     27  C   UNL     1     -11.091   6.027  70.112  0.00  0.00    +0.090 C 
BRANCH  22  28
ATOM     28  C   UNL     1     -10.063   5.200  68.093  0.00  0.00    +0.108 C 
BRANCH  28  30
ATOM     29  O   UNL     1     -10.815   4.713  65.849  0.00  0.00    -0.219 OA
ATOM     30  C   UNL     1     -10.036   5.560  66.633  0.00  0.00    +0.199 C 
ENDBRANCH  28  30
ENDBRANCH  22  28
ENDBRANCH  21  25
ENDBRANCH  20  21
ENDBRANCH  19  20
ENDBRANCH   1  19
TORSDOF 7
ENDMDL
MODEL 7
REMARK VINA RESULT:      -6.9      1.293      1.756
REMARK  Name = 
REMARK  7 active torsions:
REMARK  status: ('A' for Active; 'I' for Inactive)
REMARK    1  A    between atoms: C_2  and  C_3
REMARK    2  A    between atoms: C_3  and  N_4
REMARK    3  A    between atoms: N_7  and  C_8
REMARK    4  A    between atoms: C_8  and  C_9
REMARK    5  A    between atoms: C_9  and  C_10
REMARK    6  A    between atoms: C_10  and  N_11
REMARK    7  A    between atoms: C_22  and  C_23
REMARK                            x       y       z     vdW  Elec       q    Type
REMARK                         _______ _______ _______ _____ _____    ______ ____
ROOT
ATOM      1  N   UNL     1     -11.365  12.272  67.767  0.00  0.00    -0.286 N 
ATOM      2  C   UNL     1     -11.182  11.251  68.751  0.00  0.00    +0.058 A 
ATOM      3  C   UNL     1     -10.060  10.431  68.692  0.00  0.00    +0.043 A 
ATOM      4  C   UNL     1      -9.813   9.576  69.730  0.00  0.00    +0.008 A 
ATOM      5  C   UNL     1     -10.622   9.574  70.860  0.00  0.00    +0.004 A 
ATOM      6  C   UNL     1     -11.804  10.303  70.894  0.00  0.00    +0.073 A 
ATOM      7  S   UNL     1      -9.601   9.867  67.049  0.00  0.00    -0.084 S 
ATOM      8  C   UNL     1     -10.400  11.011  65.917  0.00  0.00    +0.043 A 
ATOM      9  C   UNL     1     -10.472  10.773  64.561  0.00  0.00    +0.008 A 
ATOM     10  C   UNL     1     -10.600  11.853  63.703  0.00  0.00    +0.001 A 
ATOM     11  C   UNL     1     -10.802  13.122  64.230  0.00  0.00    +0.001 A 
ATOM     12  C   UNL     1     -11.113  13.212  65.569  0.00  0.00    +0.015 A 
ATOM     13  C   UNL     1     -11.918  11.297  69.930  0.00  0.00    +0.019 A 
ATOM     14  C   UNL     1     -10.757  12.228  66.485  0.00  0.00    +0.058 A 
ENDROOT
BRANCH   6  15
ATOM     15  C   UNL     1     -12.975   9.811  71.668  0.00  0.00    +0.419 C 
ATOM     16  F   UNL     1     -13.569  10.835  72.394  0.00  0.00    -0.166 F 
ATOM     17  F   UNL     1     -13.935   9.278  70.831  0.00  0.00    -0.166 F 
ATOM     18  F   UNL     1     -12.611   8.844  72.601  0.00  0.00    -0.166 F 
ENDBRANCH   6  15
BRANCH   1  19
ATOM     19  C   UNL     1     -11.968  13.538  68.182  0.00  0.00    +0.097 C 
BRANCH  19  20
ATOM     20  C   UNL     1     -10.952  14.482  68.770  0.00  0.00    +0.039 C 
BRANCH  20  21
ATOM     21  C   UNL     1     -11.235  15.856  68.236  0.00  0.00    +0.074 C 
BRANCH  21  25
ATOM     22  N   UNL     1      -7.806  17.387  67.101  0.00  0.00    -0.268 NA
ATOM     23  C   UNL     1      -8.952  18.180  66.780  0.00  0.00    +0.090 C 
ATOM     24  C   UNL     1     -10.171  17.920  67.575  0.00  0.00    +0.090 C 
ATOM     25  N   UNL     1     -10.182  16.797  68.425  0.00  0.00    -0.270 NA
ATOM     26  C   UNL     1      -8.937  16.266  68.849  0.00  0.00    +0.090 C 
ATOM     27  C   UNL     1      -7.769  17.157  68.541  0.00  0.00    +0.090 C 
BRANCH  22  28
ATOM     28  C   UNL     1      -6.590  17.988  66.608  0.00  0.00    +0.108 C 
BRANCH  28  30
ATOM     29  O   UNL     1      -6.305  18.900  64.389  0.00  0.00    -0.219 OA
ATOM     30  C   UNL     1      -6.906  19.088  65.631  0.00  0.00    +0.199 C 
ENDBRANCH  28  30
ENDBRANCH  22  28
ENDBRANCH  21  25
ENDBRANCH  20  21
ENDBRANCH  19  20
ENDBRANCH   1  19
TORSDOF 7
ENDMDL
MODEL 8
REMARK VINA RESULT:      -6.9      3.673      5.252
REMARK  Name = 
REMARK  7 active torsions:
REMARK  status: ('A' for Active; 'I' for Inactive)
REMARK    1  A    between atoms: C_2  and  C_3
REMARK    2  A    between atoms: C_3  and  N_4
REMARK    3  A    between atoms: N_7  and  C_8
REMARK    4  A    between atoms: C_8  and  C_9
REMARK    5  A    between atoms: C_9  and  C_10
REMARK    6  A    between atoms: C_10  and  N_11
REMARK    7  A    between atoms: C_22  and  C_23
REMARK                            x       y       z     vdW  Elec       q    Type
REMARK                         _______ _______ _______ _____ _____    ______ ____
ROOT
ATOM      1  N   UNL     1     -11.662  11.736  69.755  0.00  0.00    -0.286 N 
ATOM      2  C   UNL     1     -11.999  10.757  70.742  0.00  0.00    +0.058 A 
ATOM      3  C   UNL     1     -13.130  10.935  71.531  0.00  0.00    +0.043 A 
ATOM      4  C   UNL     1     -13.532   9.915  72.348  0.00  0.00    +0.008 A 
ATOM      5  C   UNL     1     -12.870   8.692  72.339  0.00  0.00    +0.004 A 
ATOM      6  C   UNL     1     -11.679   8.529  71.643  0.00  0.00    +0.073 A 
ATOM      7  S   UNL     1     -13.398  12.608  72.130  0.00  0.00    -0.084 S 
ATOM      8  C   UNL     1     -12.428  13.660  71.043  0.00  0.00    +0.043 A 
ATOM      9  C   UNL     1     -12.196  14.990  71.322  0.00  0.00    +0.008 A 
ATOM     10  C   UNL     1     -11.928  15.852  70.272  0.00  0.00    +0.001 A 
ATOM     11  C   UNL     1     -11.753  15.336  68.994  0.00  0.00    +0.001 A 
ATOM     12  C   UNL     1     -11.609  13.972  68.874  0.00  0.00    +0.015 A 
ATOM     13  C   UNL     1     -11.415   9.496  70.681  0.00  0.00    +0.019 A 
ATOM     14  C   UNL     1     -12.107  13.083  69.820  0.00  0.00    +0.058 A 
ENDROOT
BRANCH   6  15
ATOM     15  C   UNL     1     -10.631   7.602  72.145  0.00  0.00    +0.419 C 
ATOM     16  F   UNL     1     -10.797   6.323  71.631  0.00  0.00    -0.166 F 
ATOM     17  F   UNL     1      -9.370   8.037  71.787  0.00  0.00    -0.166 F 
ATOM     18  F   UNL     1     -10.678   7.465  73.529  0.00  0.00    -0.166 F 
ENDBRANCH   6  15
BRANCH   1  19
ATOM     19  C   UNL     1     -11.076  11.281  68.495  0.00  0.00    +0.097 C 
BRANCH  19  20
ATOM     20  C   UNL     1      -9.572  11.255  68.549  0.00  0.00    +0.039 C 
BRANCH  20  21
ATOM     21  C   UNL     1      -9.073  10.655  67.267  0.00  0.00    +0.074 C 
BRANCH  21  25
ATOM     22  N   UNL     1     -11.110  13.294  65.198  0.00  0.00    -0.268 NA
ATOM     23  C   UNL     1     -10.009  13.831  65.936  0.00  0.00    +0.090 C 
ATOM     24  C   UNL     1      -8.951  12.873  66.322  0.00  0.00    +0.090 C 
ATOM     25  N   UNL     1      -9.195  11.500  66.126  0.00  0.00    -0.270 NA
ATOM     26  C   UNL     1     -10.171  11.124  65.168  0.00  0.00    +0.090 C 
ATOM     27  C   UNL     1     -10.622  12.257  64.294  0.00  0.00    +0.090 C 
BRANCH  22  28
ATOM     28  C   UNL     1     -11.839  14.329  64.505  0.00  0.00    +0.108 C 
BRANCH  28  30
ATOM     29  O   UNL     1     -11.501  16.638  63.879  0.00  0.00    -0.219 OA
ATOM     30  C   UNL     1     -11.305  15.686  64.876  0.00  0.00    +0.199 C 
ENDBRANCH  28  30
ENDBRANCH  22  28
ENDBRANCH  21  25
ENDBRANCH  20  21
ENDBRANCH  19  20
ENDBRANCH   1  19
TORSDOF 7
ENDMDL
MODEL 9
REMARK VINA RESULT:      -6.7      1.550      1.756
REMARK  Name = 
REMARK  7 active torsions:
REMARK  status: ('A' for Active; 'I' for Inactive)
REMARK    1  A    between atoms: C_2  and  C_3
REMARK    2  A    between atoms: C_3  and  N_4
REMARK    3  A    between atoms: N_7  and  C_8
REMARK    4  A    between atoms: C_8  and  C_9
REMARK    5  A    between atoms: C_9  and  C_10
REMARK    6  A    between atoms: C_10  and  N_11
REMARK    7  A    between atoms: C_22  and  C_23
REMARK                            x       y       z     vdW  Elec       q    Type
REMARK                         _______ _______ _______ _____ _____    ______ ____
ROOT
ATOM      1  N   UNL     1     -11.188  12.046  67.578  0.00  0.00    -0.286 N 
ATOM      2  C   UNL     1     -11.040  11.102  68.643  0.00  0.00    +0.058 A 
ATOM      3  C   UNL     1      -9.918  10.281  68.684  0.00  0.00    +0.043 A 
ATOM      4  C   UNL     1      -9.707   9.507  69.791  0.00  0.00    +0.008 A 
ATOM      5  C   UNL     1     -10.553   9.592  70.891  0.00  0.00    +0.004 A 
ATOM      6  C   UNL     1     -11.733  10.321  70.831  0.00  0.00    +0.073 A 
ATOM      7  S   UNL     1      -9.407   9.593  67.105  0.00  0.00    -0.084 S 
ATOM      8  C   UNL     1     -10.166  10.646  65.863  0.00  0.00    +0.043 A 
ATOM      9  C   UNL     1     -10.194  10.305  64.527  0.00  0.00    +0.008 A 
ATOM     10  C   UNL     1     -10.292  11.316  63.585  0.00  0.00    +0.001 A 
ATOM     11  C   UNL     1     -10.508  12.622  64.007  0.00  0.00    +0.001 A 
ATOM     12  C   UNL     1     -10.862  12.814  65.324  0.00  0.00    +0.015 A 
ATOM     13  C   UNL     1     -11.813  11.239  69.790  0.00  0.00    +0.019 A 
ATOM     14  C   UNL     1     -10.539  11.903  66.324  0.00  0.00    +0.058 A 
ENDROOT
BRANCH   6  15
ATOM     15  C   UNL     1     -12.930   9.890  71.601  0.00  0.00    +0.419 C 
ATOM     16  F   UNL     1     -13.932   9.422  70.762  0.00  0.00    -0.166 F 
ATOM     17  F   UNL     1     -12.613   8.874  72.482  0.00  0.00    -0.166 F 
ATOM     18  F   UNL     1     -13.493  10.941  72.318  0.00  0.00    -0.166 F 
ENDBRANCH   6  15
BRANCH   1  19
ATOM     19  C   UNL     1     -11.801  13.339  67.875  0.00  0.00    +0.097 C 
BRANCH  19  20
ATOM     20  C   UNL     1     -10.805  14.322  68.430  0.00  0.00    +0.039 C 
BRANCH  20  21
ATOM     21  C   UNL     1     -11.430  15.686  68.391  0.00  0.00    +0.074 C 
BRANCH  21  25
ATOM     22  N   UNL     1      -7.939  17.059  67.243  0.00  0.00    -0.268 NA
ATOM     23  C   UNL     1      -8.711  16.445  66.208  0.00  0.00    +0.090 C 
ATOM     24  C   UNL     1     -10.168  16.355  66.444  0.00  0.00    +0.090 C 
ATOM     25  N   UNL     1     -10.653  16.679  67.726  0.00  0.00    -0.270 NA
ATOM     26  C   UNL     1      -9.854  17.507  68.555  0.00  0.00    +0.090 C 
ATOM     27  C   UNL     1      -8.707  18.151  67.832  0.00  0.00    +0.090 C 
BRANCH  22  28
ATOM     28  C   UNL     1      -6.651  17.492  66.757  0.00  0.00    +0.108 C 
BRANCH  28  30
ATOM     29  O   UNL     1      -5.279  17.859  68.711  0.00  0.00    -0.219 OA
ATOM     30  C   UNL     1      -6.030  18.474  67.713  0.00  0.00    +0.199 C 
ENDBRANCH  28  30
ENDBRANCH  22  28
ENDBRANCH  21  25
ENDBRANCH  20  21
ENDBRANCH  19  20
ENDBRANCH   1  19
TORSDOF 7
ENDMDL
