MODEL 1
REMARK VINA RESULT:      -6.3      0.000      0.000
REMARK  Name = 
REMARK  3 active torsions:
REMARK  status: ('A' for Active; 'I' for Inactive)
REMARK    1  A    between atoms: C_7  and  O_8
REMARK    2  A    between atoms: O_8  and  C_9
REMARK    3  A    between atoms: C_9  and  C_10
REMARK                            x       y       z     vdW  Elec       q    Type
REMARK                         _______ _______ _______ _____ _____    ______ ____
ROOT
ATOM      1  C   UNL     1     -13.155  10.822  71.751  0.00  0.00    +0.031 C 
ATOM      2  C   UNL     1     -12.891  12.057  71.462  0.00  0.00    -0.019 A 
ATOM      3  C   UNL     1     -12.208  12.366  70.294  0.00  0.00    +0.033 A 
ATOM      4  C   UNL     1     -12.087  13.669  69.829  0.00  0.00    +0.138 A 
ATOM      5  C   UNL     1     -12.576  14.718  70.594  0.00  0.00    +0.033 A 
ATOM      6  C   UNL     1     -13.379  14.399  71.668  0.00  0.00    -0.019 A 
ATOM      7  C   UNL     1     -14.244  15.474  72.249  0.00  0.00    +0.031 C 
ATOM      8  C   UNL     1     -13.432  13.107  72.161  0.00  0.00    -0.008 A 
ENDROOT
BRANCH   4   9
ATOM      9  O   UNL     1     -11.407  14.019  68.692  0.00  0.00    -0.472 OA
BRANCH   9  10
ATOM     10  C   UNL     1     -11.759  13.888  67.383  0.00  0.00    +0.251 C 
BRANCH  10  11
ATOM     11  C   UNL     1     -10.510  14.370  66.403  0.00  0.00    +0.235 C 
ATOM     12  O   UNL     1     -11.415  14.738  65.198  0.00  0.00    -0.432 OA
ATOM     13  C   UNL     1     -10.994  15.970  64.786  0.00  0.00    +0.421 C 
ATOM     14  O   UNL     1     -11.631  16.604  63.889  0.00  0.00    -0.225 OA
ATOM     15  N   UNL     1     -10.138  16.567  65.769  0.00  0.00    -0.165 NA
ATOM     16  C   UNL     1     -10.574  15.918  67.006  0.00  0.00    +0.166 C 
ENDBRANCH  10  11
ENDBRANCH   9  10
ENDBRANCH   4   9
TORSDOF 3
ENDMDL
MODEL 2
REMARK VINA RESULT:      -6.3      1.153      2.352
REMARK  Name = 
REMARK  3 active torsions:
REMARK  status: ('A' for Active; 'I' for Inactive)
REMARK    1  A    between atoms: C_7  and  O_8
REMARK    2  A    between atoms: O_8  and  C_9
REMARK    3  A    between atoms: C_9  and  C_10
REMARK                            x       y       z     vdW  Elec       q    Type
REMARK                         _______ _______ _______ _____ _____    ______ ____
ROOT
ATOM      1  C   UNL     1     -12.438  16.315  73.774  0.00  0.00    +0.031 C 
ATOM      2  C   UNL     1     -12.581  15.554  72.735  0.00  0.00    -0.019 A 
ATOM      3  C   UNL     1     -11.985  15.903  71.532  0.00  0.00    +0.033 A 
ATOM      4  C   UNL     1     -11.923  15.029  70.454  0.00  0.00    +0.138 A 
ATOM      5  C   UNL     1     -12.558  13.798  70.533  0.00  0.00    +0.033 A 
ATOM      6  C   UNL     1     -13.015  13.399  71.771  0.00  0.00    -0.019 A 
ATOM      7  C   UNL     1     -13.317  11.947  71.980  0.00  0.00    +0.031 C 
ATOM      8  C   UNL     1     -13.134  14.301  72.813  0.00  0.00    -0.008 A 
ENDROOT
BRANCH   4   9
ATOM      9  O   UNL     1     -11.360  15.340  69.244  0.00  0.00    -0.472 OA
BRANCH   9  10
ATOM     10  C   UNL     1     -11.666  14.894  67.995  0.00  0.00    +0.251 C 
BRANCH  10  11
ATOM     11  C   UNL     1     -10.395  15.165  66.962  0.00  0.00    +0.235 C 
ATOM     12  O   UNL     1     -11.261  15.165  65.676  0.00  0.00    -0.432 OA
ATOM     13  C   UNL     1     -10.870  16.268  64.970  0.00  0.00    +0.421 C 
ATOM     14  O   UNL     1     -11.492  16.617  63.920  0.00  0.00    -0.225 OA
ATOM     15  N   UNL     1     -10.081  17.139  65.791  0.00  0.00    -0.165 NA
ATOM     16  C   UNL     1     -10.545  16.812  67.139  0.00  0.00    +0.166 C 
ENDBRANCH  10  11
ENDBRANCH   9  10
ENDBRANCH   4   9
TORSDOF 3
ENDMDL
MODEL 3
REMARK VINA RESULT:      -6.2      1.848      2.067
REMARK  Name = 
REMARK  3 active torsions:
REMARK  status: ('A' for Active; 'I' for Inactive)
REMARK    1  A    between atoms: C_7  and  O_8
REMARK    2  A    between atoms: O_8  and  C_9
REMARK    3  A    between atoms: C_9  and  C_10
REMARK                            x       y       z     vdW  Elec       q    Type
REMARK                         _______ _______ _______ _____ _____    ______ ____
ROOT
ATOM      1  C   UNL     1     -13.095  10.731  71.696  0.00  0.00    +0.031 C 
ATOM      2  C   UNL     1     -12.846  11.970  71.412  0.00  0.00    -0.019 A 
ATOM      3  C   UNL     1     -12.119  12.289  70.274  0.00  0.00    +0.033 A 
ATOM      4  C   UNL     1     -12.006  13.592  69.808  0.00  0.00    +0.138 A 
ATOM      5  C   UNL     1     -12.550  14.634  70.546  0.00  0.00    +0.033 A 
ATOM      6  C   UNL     1     -13.392  14.302  71.586  0.00  0.00    -0.019 A 
ATOM      7  C   UNL     1     -14.305  15.360  72.123  0.00  0.00    +0.031 C 
ATOM      8  C   UNL     1     -13.439  13.011  72.082  0.00  0.00    -0.008 A 
ENDROOT
BRANCH   4   9
ATOM      9  O   UNL     1     -11.285  13.953  68.700  0.00  0.00    -0.472 OA
BRANCH   9  10
ATOM     10  C   UNL     1     -11.684  14.116  67.408  0.00  0.00    +0.251 C 
BRANCH  10  11
ATOM     11  C   UNL     1     -11.063  12.904  66.459  0.00  0.00    +0.235 C 
ATOM     12  O   UNL     1     -12.429  12.494  65.850  0.00  0.00    -0.432 OA
ATOM     13  C   UNL     1     -12.217  12.399  64.504  0.00  0.00    +0.421 C 
ATOM     14  O   UNL     1     -13.188  12.205  63.709  0.00  0.00    -0.225 OA
ATOM     15  N   UNL     1     -10.964  12.997  64.146  0.00  0.00    -0.165 NA
ATOM     16  C   UNL     1     -10.759  13.970  65.220  0.00  0.00    +0.166 C 
ENDBRANCH  10  11
ENDBRANCH   9  10
ENDBRANCH   4   9
TORSDOF 3
ENDMDL
MODEL 4
REMARK VINA RESULT:      -6.1      2.374      3.300
REMARK  Name = 
REMARK  3 active torsions:
REMARK  status: ('A' for Active; 'I' for Inactive)
REMARK    1  A    between atoms: C_7  and  O_8
REMARK    2  A    between atoms: O_8  and  C_9
REMARK    3  A    between atoms: C_9  and  C_10
REMARK                            x       y       z     vdW  Elec       q    Type
REMARK                         _______ _______ _______ _____ _____    ______ ____
ROOT
ATOM      1  C   UNL     1     -12.478  15.872  74.407  0.00  0.00    +0.031 C 
ATOM      2  C   UNL     1     -12.597  15.454  73.187  0.00  0.00    -0.019 A 
ATOM      3  C   UNL     1     -12.107  16.221  72.139  0.00  0.00    +0.033 A 
ATOM      4  C   UNL     1     -12.013  15.731  70.843  0.00  0.00    +0.138 A 
ATOM      5  C   UNL     1     -12.511  14.470  70.548  0.00  0.00    +0.033 A 
ATOM      6  C   UNL     1     -12.856  13.661  71.611  0.00  0.00    -0.019 A 
ATOM      7  C   UNL     1     -12.993  12.191  71.365  0.00  0.00    +0.031 C 
ATOM      8  C   UNL     1     -13.012  14.182  72.884  0.00  0.00    -0.008 A 
ENDROOT
BRANCH   4   9
ATOM      9  O   UNL     1     -11.553  16.460  69.778  0.00  0.00    -0.472 OA
BRANCH   9  10
ATOM     10  C   UNL     1     -10.355  16.411  69.133  0.00  0.00    +0.251 C 
BRANCH  10  11
ATOM     11  C   UNL     1     -10.563  16.705  67.513  0.00  0.00    +0.235 C 
ATOM     12  O   UNL     1     -10.990  18.185  67.697  0.00  0.00    -0.432 OA
ATOM     13  C   UNL     1     -10.255  18.895  66.790  0.00  0.00    +0.421 C 
ATOM     14  O   UNL     1     -10.285  20.164  66.786  0.00  0.00    -0.225 OA
ATOM     15  N   UNL     1      -9.189  18.093  66.266  0.00  0.00    -0.165 NA
ATOM     16  C   UNL     1      -8.963  17.123  67.339  0.00  0.00    +0.166 C 
ENDBRANCH  10  11
ENDBRANCH   9  10
ENDBRANCH   4   9
TORSDOF 3
ENDMDL
MODEL 5
REMARK VINA RESULT:      -6.1      0.730      2.265
REMARK  Name = 
REMARK  3 active torsions:
REMARK  status: ('A' for Active; 'I' for Inactive)
REMARK    1  A    between atoms: C_7  and  O_8
REMARK    2  A    between atoms: O_8  and  C_9
REMARK    3  A    between atoms: C_9  and  C_10
REMARK                            x       y       z     vdW  Elec       q    Type
REMARK                         _______ _______ _______ _____ _____    ______ ____
ROOT
ATOM      1  C   UNL     1     -13.366  14.209  72.465  0.00  0.00    +0.031 C 
ATOM      2  C   UNL     1     -13.047  13.311  71.587  0.00  0.00    -0.019 A 
ATOM      3  C   UNL     1     -12.414  13.685  70.410  0.00  0.00    +0.033 A 
ATOM      4  C   UNL     1     -11.860  12.757  69.538  0.00  0.00    +0.138 A 
ATOM      5  C   UNL     1     -12.022  11.401  69.787  0.00  0.00    +0.033 A 
ATOM      6  C   UNL     1     -12.516  11.038  71.023  0.00  0.00    -0.019 A 
ATOM      7  C   UNL     1     -12.315   9.626  71.478  0.00  0.00    +0.031 C 
ATOM      8  C   UNL     1     -13.126  11.966  71.849  0.00  0.00    -0.008 A 
ENDROOT
BRANCH   4   9
ATOM      9  O   UNL     1     -11.243  13.082  68.359  0.00  0.00    -0.472 OA
BRANCH   9  10
ATOM     10  C   UNL     1     -11.751  13.651  67.231  0.00  0.00    +0.251 C 
BRANCH  10  11
ATOM     11  C   UNL     1     -10.519  14.161  66.242  0.00  0.00    +0.235 C 
ATOM     12  O   UNL     1     -11.451  14.647  65.102  0.00  0.00    -0.432 OA
ATOM     13  C   UNL     1     -11.000  15.892  64.764  0.00  0.00    +0.421 C 
ATOM     14  O   UNL     1     -11.644  16.611  63.941  0.00  0.00    -0.225 OA
ATOM     15  N   UNL     1     -10.090  16.385  65.756  0.00  0.00    -0.165 NA
ATOM     16  C   UNL     1     -10.506  15.662  66.958  0.00  0.00    +0.166 C 
ENDBRANCH  10  11
ENDBRANCH   9  10
ENDBRANCH   4   9
TORSDOF 3
ENDMDL
MODEL 6
REMARK VINA RESULT:      -6.0      1.788      2.871
REMARK  Name = 
REMARK  3 active torsions:
REMARK  status: ('A' for Active; 'I' for Inactive)
REMARK    1  A    between atoms: C_7  and  O_8
REMARK    2  A    between atoms: O_8  and  C_9
REMARK    3  A    between atoms: C_9  and  C_10
REMARK                            x       y       z     vdW  Elec       q    Type
REMARK                         _______ _______ _______ _____ _____    ______ ____
ROOT
ATOM      1  C   UNL     1     -13.649  15.436  72.867  0.00  0.00    +0.031 C 
ATOM      2  C   UNL     1     -13.312  14.545  71.988  0.00  0.00    -0.019 A 
ATOM      3  C   UNL     1     -12.490  14.894  70.926  0.00  0.00    +0.033 A 
ATOM      4  C   UNL     1     -11.926  13.946  70.083  0.00  0.00    +0.138 A 
ATOM      5  C   UNL     1     -12.262  12.608  70.233  0.00  0.00    +0.033 A 
ATOM      6  C   UNL     1     -12.953  12.252  71.373  0.00  0.00    -0.019 A 
ATOM      7  C   UNL     1     -12.966  10.809  71.771  0.00  0.00    +0.031 C 
ATOM      8  C   UNL     1     -13.567  13.208  72.163  0.00  0.00    -0.008 A 
ENDROOT
BRANCH   4   9
ATOM      9  O   UNL     1     -11.125  14.248  69.013  0.00  0.00    -0.472 OA
BRANCH   9  10
ATOM     10  C   UNL     1     -11.451  14.488  67.713  0.00  0.00    +0.251 C 
BRANCH  10  11
ATOM     11  C   UNL     1     -10.874  13.272  66.743  0.00  0.00    +0.235 C 
ATOM     12  O   UNL     1     -12.274  12.732  66.353  0.00  0.00    -0.432 OA
ATOM     13  C   UNL     1     -12.243  12.576  64.996  0.00  0.00    +0.421 C 
ATOM     14  O   UNL     1     -13.295  12.268  64.356  0.00  0.00    -0.225 OA
ATOM     15  N   UNL     1     -11.102  13.240  64.438  0.00  0.00    -0.165 NA
ATOM     16  C   UNL     1     -10.827  14.285  65.425  0.00  0.00    +0.166 C 
ENDBRANCH  10  11
ENDBRANCH   9  10
ENDBRANCH   4   9
TORSDOF 3
ENDMDL
MODEL 7
REMARK VINA RESULT:      -5.9      2.936      3.846
REMARK  Name = 
REMARK  3 active torsions:
REMARK  status: ('A' for Active; 'I' for Inactive)
REMARK    1  A    between atoms: C_7  and  O_8
REMARK    2  A    between atoms: O_8  and  C_9
REMARK    3  A    between atoms: C_9  and  C_10
REMARK                            x       y       z     vdW  Elec       q    Type
REMARK                         _______ _______ _______ _____ _____    ______ ____
ROOT
ATOM      1  C   UNL     1      -9.157   8.532  71.248  0.00  0.00    +0.031 C 
ATOM      2  C   UNL     1     -10.279   9.170  71.131  0.00  0.00    -0.019 A 
ATOM      3  C   UNL     1     -10.502   9.984  70.029  0.00  0.00    +0.033 A 
ATOM      4  C   UNL     1     -11.752  10.517  69.744  0.00  0.00    +0.138 A 
ATOM      5  C   UNL     1     -12.801  10.321  70.631  0.00  0.00    +0.033 A 
ATOM      6  C   UNL     1     -12.615   9.396  71.637  0.00  0.00    -0.019 A 
ATOM      7  C   UNL     1     -13.825   8.858  72.337  0.00  0.00    +0.031 C 
ATOM      8  C   UNL     1     -11.352   8.927  71.952  0.00  0.00    -0.008 A 
ENDROOT
BRANCH   4   9
ATOM      9  O   UNL     1     -12.012  11.338  68.678  0.00  0.00    -0.472 OA
BRANCH   9  10
ATOM     10  C   UNL     1     -11.785  12.672  68.522  0.00  0.00    +0.251 C 
BRANCH  10  11
ATOM     11  C   UNL     1     -11.077  12.964  67.050  0.00  0.00    +0.235 C 
ATOM     12  O   UNL     1     -12.031  12.039  66.252  0.00  0.00    -0.432 OA
ATOM     13  C   UNL     1     -12.431  12.769  65.169  0.00  0.00    +0.421 C 
ATOM     14  O   UNL     1     -13.328  12.327  64.387  0.00  0.00    -0.225 OA
ATOM     15  N   UNL     1     -12.093  14.152  65.341  0.00  0.00    -0.165 NA
ATOM     16  C   UNL     1     -12.047  14.290  66.797  0.00  0.00    +0.166 C 
ENDBRANCH  10  11
ENDBRANCH   9  10
ENDBRANCH   4   9
TORSDOF 3
ENDMDL
MODEL 8
REMARK VINA RESULT:      -5.9      1.684      2.185
REMARK  Name = 
REMARK  3 active torsions:
REMARK  status: ('A' for Active; 'I' for Inactive)
REMARK    1  A    between atoms: C_7  and  O_8
REMARK    2  A    between atoms: O_8  and  C_9
REMARK    3  A    between atoms: C_9  and  C_10
REMARK                            x       y       z     vdW  Elec       q    Type
REMARK                         _______ _______ _______ _____ _____    ______ ____
ROOT
ATOM      1  C   UNL     1     -13.649  12.522  72.151  0.00  0.00    +0.031 C 
ATOM      2  C   UNL     1     -13.022  13.648  72.021  0.00  0.00    -0.019 A 
ATOM      3  C   UNL     1     -12.853  14.207  70.762  0.00  0.00    +0.033 A 
ATOM      4  C   UNL     1     -12.384  15.501  70.583  0.00  0.00    +0.138 A 
ATOM      5  C   UNL     1     -11.974  16.241  71.683  0.00  0.00    +0.033 A 
ATOM      6  C   UNL     1     -12.282  15.743  72.931  0.00  0.00    -0.019 A 
ATOM      7  C   UNL     1     -12.238  16.680  74.098  0.00  0.00    +0.031 C 
ATOM      8  C   UNL     1     -12.682  14.428  73.097  0.00  0.00    -0.008 A 
ENDROOT
BRANCH   4   9
ATOM      9  O   UNL     1     -12.186  16.085  69.359  0.00  0.00    -0.472 OA
BRANCH   9  10
ATOM     10  C   UNL     1     -11.064  16.153  68.591  0.00  0.00    +0.251 C 
BRANCH  10  11
ATOM     11  C   UNL     1     -10.772  14.687  67.870  0.00  0.00    +0.235 C 
ATOM     12  O   UNL     1     -12.207  14.525  67.304  0.00  0.00    -0.432 OA
ATOM     13  C   UNL     1     -12.047  14.159  65.997  0.00  0.00    +0.421 C 
ATOM     14  O   UNL     1     -13.049  14.077  65.222  0.00  0.00    -0.225 OA
ATOM     15  N   UNL     1     -10.693  14.369  65.576  0.00  0.00    -0.165 NA
ATOM     16  C   UNL     1     -10.239  15.427  66.479  0.00  0.00    +0.166 C 
ENDBRANCH  10  11
ENDBRANCH   9  10
ENDBRANCH   4   9
TORSDOF 3
ENDMDL
MODEL 9
REMARK VINA RESULT:      -5.9      3.146      5.982
REMARK  Name = 
REMARK  3 active torsions:
REMARK  status: ('A' for Active; 'I' for Inactive)
REMARK    1  A    between atoms: C_7  and  O_8
REMARK    2  A    between atoms: O_8  and  C_9
REMARK    3  A    between atoms: C_9  and  C_10
REMARK                            x       y       z     vdW  Elec       q    Type
REMARK                         _______ _______ _______ _____ _____    ______ ____
ROOT
ATOM      1  C   UNL     1     -12.245  13.579  64.677  0.00  0.00    +0.031 C 
ATOM      2  C   UNL     1     -11.865  13.188  65.853  0.00  0.00    -0.019 A 
ATOM      3  C   UNL     1     -12.176  13.950  66.971  0.00  0.00    +0.033 A 
ATOM      4  C   UNL     1     -11.985  13.480  68.264  0.00  0.00    +0.138 A 
ATOM      5  C   UNL     1     -11.375  12.249  68.463  0.00  0.00    +0.033 A 
ATOM      6  C   UNL     1     -11.207  11.439  67.360  0.00  0.00    -0.019 A 
ATOM      7  C   UNL     1     -10.949   9.982  67.585  0.00  0.00    +0.031 C 
ATOM      8  C   UNL     1     -11.334  11.944  66.077  0.00  0.00    -0.008 A 
ENDROOT
BRANCH   4   9
ATOM      9  O   UNL     1     -12.261  14.204  69.394  0.00  0.00    -0.472 OA
BRANCH   9  10
ATOM     10  C   UNL     1     -11.419  14.760  70.307  0.00  0.00    +0.251 C 
BRANCH  10  11
ATOM     11  C   UNL     1     -12.202  14.974  71.754  0.00  0.00    +0.235 C 
ATOM     12  O   UNL     1     -13.400  15.750  71.149  0.00  0.00    -0.432 OA
ATOM     13  C   UNL     1     -14.518  15.173  71.682  0.00  0.00    +0.421 C 
ATOM     14  O   UNL     1     -15.674  15.506  71.276  0.00  0.00    -0.225 OA
ATOM     15  N   UNL     1     -14.192  13.928  72.313  0.00  0.00    -0.165 NA
ATOM     16  C   UNL     1     -12.984  13.515  71.597  0.00  0.00    +0.166 C 
ENDBRANCH  10  11
ENDBRANCH   9  10
ENDBRANCH   4   9
TORSDOF 3
ENDMDL
