MODEL 1
REMARK VINA RESULT:      -7.7      0.000      0.000
REMARK  Name = 
REMARK  0 active torsions:
REMARK  status: ('A' for Active; 'I' for Inactive)
REMARK                            x       y       z     vdW  Elec       q    Type
REMARK                         _______ _______ _______ _____ _____    ______ ____
ROOT
ATOM      1  C   UNL     1      -7.676  20.178  67.655  0.00  0.00    +0.090 C 
ATOM      2  N   UNL     1      -8.289  19.000  67.124  0.00  0.00    -0.265 NA
ATOM      3  C   UNL     1      -7.691  17.770  67.471  0.00  0.00    +0.124 C 
ATOM      4  C   UNL     1      -8.417  16.929  68.465  0.00  0.00    +0.220 C 
ATOM      5  N   UNL     1      -9.809  16.832  68.035  0.00  0.00    -0.188 N 
ATOM      6  C   UNL     1     -10.585  15.834  68.708  0.00  0.00    +0.325 C 
ATOM      7  C   UNL     1     -10.269  14.445  68.357  0.00  0.00    +0.097 A 
ATOM      8  C   UNL     1     -10.951  13.307  68.774  0.00  0.00    +0.078 A 
ATOM      9  C   UNL     1     -10.436  12.042  68.520  0.00  0.00    +0.017 A 
ATOM     10  C   UNL     1      -9.414  11.984  67.597  0.00  0.00    +0.001 A 
ATOM     11  C   UNL     1      -9.152  13.070  66.777  0.00  0.00    +0.000 A 
ATOM     12  N   UNL     1     -12.068  13.256  69.668  0.00  0.00    -0.208 NA
ATOM     13  C   UNL     1     -12.456  14.310  70.552  0.00  0.00    +0.113 A 
ATOM     14  C   UNL     1     -11.869  15.549  70.781  0.00  0.00    +0.209 A 
ATOM     15  C   UNL     1     -11.991  16.191  72.001  0.00  0.00    +0.059 A 
ATOM     16  C   UNL     1     -12.670  15.534  73.020  0.00  0.00    +0.061 A 
ATOM     17  C   UNL     1     -13.625  14.616  72.612  0.00  0.00    +0.013 A 
ATOM     18 CL   UNL     1     -12.373  15.900  74.704  0.00  0.00    -0.082 Cl
ATOM     19  C   UNL     1     -13.500  13.956  71.398  0.00  0.00    +0.021 A 
ATOM     20  C   UNL     1      -9.435  14.338  67.259  0.00  0.00    +0.009 A 
ATOM     21  N   UNL     1     -10.977  16.223  69.885  0.00  0.00    -0.039 NA
ATOM     22  C   UNL     1     -10.481  18.110  67.827  0.00  0.00    +0.220 C 
ATOM     23  C   UNL     1      -9.692  19.042  66.962  0.00  0.00    +0.124 C 
ENDROOT
TORSDOF 0
ENDMDL
MODEL 2
REMARK VINA RESULT:      -7.7      3.196      6.195
REMARK  Name = 
REMARK  0 active torsions:
REMARK  status: ('A' for Active; 'I' for Inactive)
REMARK                            x       y       z     vdW  Elec       q    Type
REMARK                         _______ _______ _______ _____ _____    ______ ____
ROOT
ATOM      1  C   UNL     1     -10.549  11.200  63.474  0.00  0.00    +0.090 C 
ATOM      2  N   UNL     1     -11.351  11.809  64.489  0.00  0.00    -0.265 NA
ATOM      3  C   UNL     1     -10.878  11.696  65.814  0.00  0.00    +0.124 C 
ATOM      4  C   UNL     1     -10.300  12.927  66.426  0.00  0.00    +0.220 C 
ATOM      5  N   UNL     1     -11.243  14.020  66.204  0.00  0.00    -0.188 N 
ATOM      6  C   UNL     1     -10.991  15.206  66.967  0.00  0.00    +0.325 C 
ATOM      7  C   UNL     1     -11.279  15.107  68.402  0.00  0.00    +0.097 A 
ATOM      8  C   UNL     1     -11.235  16.140  69.331  0.00  0.00    +0.078 A 
ATOM      9  C   UNL     1     -11.349  15.874  70.690  0.00  0.00    +0.017 A 
ATOM     10  C   UNL     1     -11.803  14.616  71.019  0.00  0.00    +0.001 A 
ATOM     11  C   UNL     1     -12.386  13.810  70.054  0.00  0.00    +0.000 A 
ATOM     12  N   UNL     1     -10.850  17.498  69.086  0.00  0.00    -0.208 NA
ATOM     13  C   UNL     1     -10.121  17.947  67.943  0.00  0.00    +0.113 A 
ATOM     14  C   UNL     1      -9.603  17.229  66.870  0.00  0.00    +0.209 A 
ATOM     15  C   UNL     1      -8.488  17.668  66.179  0.00  0.00    +0.059 A 
ATOM     16  C   UNL     1      -7.857  18.824  66.622  0.00  0.00    +0.061 A 
ATOM     17  C   UNL     1      -8.663  19.726  67.300  0.00  0.00    +0.013 A 
ATOM     18 CL   UNL     1      -6.171  19.136  66.282  0.00  0.00    -0.082 Cl
ATOM     19  C   UNL     1      -9.772  19.290  68.010  0.00  0.00    +0.021 A 
ATOM     20  C   UNL     1     -11.971  13.958  68.739  0.00  0.00    +0.009 A 
ATOM     21  N   UNL     1     -10.036  15.927  66.457  0.00  0.00    -0.039 NA
ATOM     22  C   UNL     1     -11.614  14.242  64.810  0.00  0.00    +0.220 C 
ATOM     23  C   UNL     1     -12.042  12.984  64.121  0.00  0.00    +0.124 C 
ENDROOT
TORSDOF 0
ENDMDL
MODEL 3
REMARK VINA RESULT:      -7.7      2.827      4.877
REMARK  Name = 
REMARK  0 active torsions:
REMARK  status: ('A' for Active; 'I' for Inactive)
REMARK                            x       y       z     vdW  Elec       q    Type
REMARK                         _______ _______ _______ _____ _____    ______ ____
ROOT
ATOM      1  C   UNL     1      -7.937  20.362  67.335  0.00  0.00    +0.090 C 
ATOM      2  N   UNL     1      -8.246  19.422  68.367  0.00  0.00    -0.265 NA
ATOM      3  C   UNL     1      -9.608  19.300  68.718  0.00  0.00    +0.124 C 
ATOM      4  C   UNL     1     -10.309  18.066  68.264  0.00  0.00    +0.220 C 
ATOM      5  N   UNL     1      -9.478  16.921  68.628  0.00  0.00    -0.188 N 
ATOM      6  C   UNL     1     -10.123  15.646  68.528  0.00  0.00    +0.325 C 
ATOM      7  C   UNL     1     -11.139  15.369  69.549  0.00  0.00    +0.097 A 
ATOM      8  C   UNL     1     -11.816  14.170  69.743  0.00  0.00    +0.078 A 
ATOM      9  C   UNL     1     -12.886  14.098  70.626  0.00  0.00    +0.017 A 
ATOM     10  C   UNL     1     -13.025  15.164  71.489  0.00  0.00    +0.001 A 
ATOM     11  C   UNL     1     -11.989  16.069  71.652  0.00  0.00    +0.000 A 
ATOM     12  N   UNL     1     -11.696  12.980  68.957  0.00  0.00    -0.208 NA
ATOM     13  C   UNL     1     -11.132  12.921  67.645  0.00  0.00    +0.113 A 
ATOM     14  C   UNL     1     -10.627  13.935  66.840  0.00  0.00    +0.209 A 
ATOM     15  C   UNL     1     -10.653  13.842  65.459  0.00  0.00    +0.059 A 
ATOM     16  C   UNL     1     -11.254  12.726  64.891  0.00  0.00    +0.061 A 
ATOM     17  C   UNL     1     -11.256  11.581  65.672  0.00  0.00    +0.013 A 
ATOM     18 CL   UNL     1     -11.905  12.762  63.268  0.00  0.00    -0.082 Cl
ATOM     19  C   UNL     1     -11.248  11.667  67.057  0.00  0.00    +0.021 A 
ATOM     20  C   UNL     1     -11.138  16.290  70.580  0.00  0.00    +0.009 A 
ATOM     21  N   UNL     1     -10.177  15.215  67.302  0.00  0.00    -0.039 NA
ATOM     22  C   UNL     1      -8.108  16.969  68.130  0.00  0.00    +0.220 C 
ATOM     23  C   UNL     1      -7.431  18.270  68.430  0.00  0.00    +0.124 C 
ENDROOT
TORSDOF 0
ENDMDL
MODEL 4
REMARK VINA RESULT:      -7.3      3.083      6.136
REMARK  Name = 
REMARK  0 active torsions:
REMARK  status: ('A' for Active; 'I' for Inactive)
REMARK                            x       y       z     vdW  Elec       q    Type
REMARK                         _______ _______ _______ _____ _____    ______ ____
ROOT
ATOM      1  C   UNL     1      -9.199   6.774  68.595  0.00  0.00    +0.090 C 
ATOM      2  N   UNL     1      -9.045   7.893  67.719  0.00  0.00    -0.265 NA
ATOM      3  C   UNL     1     -10.157   8.217  66.914  0.00  0.00    +0.124 C 
ATOM      4  C   UNL     1     -10.929   9.434  67.296  0.00  0.00    +0.220 C 
ATOM      5  N   UNL     1      -9.976  10.523  67.490  0.00  0.00    -0.188 N 
ATOM      6  C   UNL     1     -10.557  11.830  67.580  0.00  0.00    +0.325 C 
ATOM      7  C   UNL     1     -11.085  12.374  66.324  0.00  0.00    +0.097 A 
ATOM      8  C   UNL     1     -11.584  13.655  66.119  0.00  0.00    +0.078 A 
ATOM      9  C   UNL     1     -12.224  13.983  64.930  0.00  0.00    +0.017 A 
ATOM     10  C   UNL     1     -12.061  13.088  63.895  0.00  0.00    +0.001 A 
ATOM     11  C   UNL     1     -11.081  12.111  63.965  0.00  0.00    +0.000 A 
ATOM     12  N   UNL     1     -11.730  14.686  67.102  0.00  0.00    -0.208 NA
ATOM     13  C   UNL     1     -11.718  14.476  68.516  0.00  0.00    +0.113 A 
ATOM     14  C   UNL     1     -11.606  13.298  69.245  0.00  0.00    +0.209 A 
ATOM     15  C   UNL     1     -12.162  13.175  70.507  0.00  0.00    +0.059 A 
ATOM     16  C   UNL     1     -12.891  14.246  71.007  0.00  0.00    +0.061 A 
ATOM     17  C   UNL     1     -12.543  15.493  70.512  0.00  0.00    +0.013 A 
ATOM     18 CL   UNL     1     -14.121  14.026  72.230  0.00  0.00    -0.082 Cl
ATOM     19  C   UNL     1     -12.002  15.626  69.242  0.00  0.00    +0.021 A 
ATOM     20  C   UNL     1     -10.721  11.632  65.216  0.00  0.00    +0.009 A 
ATOM     21  N   UNL     1     -11.064  12.066  68.754  0.00  0.00    -0.039 NA
ATOM     22  C   UNL     1      -8.910  10.247  68.447  0.00  0.00    +0.220 C 
ATOM     23  C   UNL     1      -8.223   8.944  68.184  0.00  0.00    +0.124 C 
ENDROOT
TORSDOF 0
ENDMDL
MODEL 5
REMARK VINA RESULT:      -7.0      2.890      6.287
REMARK  Name = 
REMARK  0 active torsions:
REMARK  status: ('A' for Active; 'I' for Inactive)
REMARK                            x       y       z     vdW  Elec       q    Type
REMARK                         _______ _______ _______ _____ _____    ______ ____
ROOT
ATOM      1  C   UNL     1      -8.540   9.616  65.727  0.00  0.00    +0.090 C 
ATOM      2  N   UNL     1      -9.658  10.266  66.338  0.00  0.00    -0.265 NA
ATOM      3  C   UNL     1      -9.488  10.681  67.676  0.00  0.00    +0.124 C 
ATOM      4  C   UNL     1      -9.323  12.145  67.908  0.00  0.00    +0.220 C 
ATOM      5  N   UNL     1     -10.387  12.833  67.184  0.00  0.00    -0.188 N 
ATOM      6  C   UNL     1     -10.557  14.215  67.522  0.00  0.00    +0.325 C 
ATOM      7  C   UNL     1     -11.141  14.475  68.842  0.00  0.00    +0.097 A 
ATOM      8  C   UNL     1     -11.517  15.712  69.355  0.00  0.00    +0.078 A 
ATOM      9  C   UNL     1     -11.885  15.842  70.689  0.00  0.00    +0.017 A 
ATOM     10  C   UNL     1     -12.143  14.664  71.357  0.00  0.00    +0.001 A 
ATOM     11  C   UNL     1     -12.317  13.485  70.651  0.00  0.00    +0.000 A 
ATOM     12  N   UNL     1     -11.364  16.986  68.720  0.00  0.00    -0.208 NA
ATOM     13  C   UNL     1     -10.496  17.250  67.616  0.00  0.00    +0.113 A 
ATOM     14  C   UNL     1      -9.614  16.408  66.948  0.00  0.00    +0.209 A 
ATOM     15  C   UNL     1      -8.480  16.899  66.325  0.00  0.00    +0.059 A 
ATOM     16  C   UNL     1      -8.211  18.258  66.434  0.00  0.00    +0.061 A 
ATOM     17  C   UNL     1      -9.313  19.075  66.631  0.00  0.00    +0.013 A 
ATOM     18 CL   UNL     1      -6.587  18.886  66.267  0.00  0.00    -0.082 Cl
ATOM     19  C   UNL     1     -10.446  18.595  67.271  0.00  0.00    +0.021 A 
ATOM     20  C   UNL     1     -11.650  13.339  69.444  0.00  0.00    +0.009 A 
ATOM     21  N   UNL     1      -9.674  14.977  66.946  0.00  0.00    -0.039 NA
ATOM     22  C   UNL     1     -10.465  12.525  65.760  0.00  0.00    +0.220 C 
ATOM     23  C   UNL     1     -10.466  11.054  65.488  0.00  0.00    +0.124 C 
ENDROOT
TORSDOF 0
ENDMDL
MODEL 6
REMARK VINA RESULT:      -6.9      2.950      5.843
REMARK  Name = 
REMARK  0 active torsions:
REMARK  status: ('A' for Active; 'I' for Inactive)
REMARK                            x       y       z     vdW  Elec       q    Type
REMARK                         _______ _______ _______ _____ _____    ______ ____
ROOT
ATOM      1  C   UNL     1     -12.813  15.398  74.000  0.00  0.00    +0.090 C 
ATOM      2  N   UNL     1     -12.896  15.884  72.658  0.00  0.00    -0.265 NA
ATOM      3  C   UNL     1     -11.687  16.312  72.070  0.00  0.00    +0.124 C 
ATOM      4  C   UNL     1     -11.093  15.421  71.033  0.00  0.00    +0.220 C 
ATOM      5  N   UNL     1     -12.149  15.078  70.083  0.00  0.00    -0.188 N 
ATOM      6  C   UNL     1     -11.698  14.467  68.868  0.00  0.00    +0.325 C 
ATOM      7  C   UNL     1     -10.999  15.356  67.934  0.00  0.00    +0.097 A 
ATOM      8  C   UNL     1     -10.575  15.041  66.649  0.00  0.00    +0.078 A 
ATOM      9  C   UNL     1      -9.761  15.916  65.939  0.00  0.00    +0.017 A 
ATOM     10  C   UNL     1      -9.666  17.193  66.448  0.00  0.00    +0.001 A 
ATOM     11  C   UNL     1     -10.562  17.630  67.410  0.00  0.00    +0.000 A 
ATOM     12  N   UNL     1     -10.688  13.773  65.994  0.00  0.00    -0.208 NA
ATOM     13  C   UNL     1     -10.935  12.531  66.656  0.00  0.00    +0.113 A 
ATOM     14  C   UNL     1     -11.082  12.250  68.010  0.00  0.00    +0.209 A 
ATOM     15  C   UNL     1     -10.752  11.011  68.530  0.00  0.00    +0.059 A 
ATOM     16  C   UNL     1     -10.211  10.064  67.670  0.00  0.00    +0.061 A 
ATOM     17  C   UNL     1     -10.562  10.194  66.335  0.00  0.00    +0.013 A 
ATOM     18 CL   UNL     1      -9.205   8.760  68.258  0.00  0.00    -0.082 Cl
ATOM     19  C   UNL     1     -10.877  11.436  65.803  0.00  0.00    +0.021 A 
ATOM     20  C   UNL     1     -11.100  16.692  68.278  0.00  0.00    +0.009 A 
ATOM     21  N   UNL     1     -11.429  13.204  69.022  0.00  0.00    -0.039 NA
ATOM     22  C   UNL     1     -13.344  14.486  70.675  0.00  0.00    +0.220 C 
ATOM     23  C   UNL     1     -13.868  15.278  71.831  0.00  0.00    +0.124 C 
ENDROOT
TORSDOF 0
ENDMDL
MODEL 7
REMARK VINA RESULT:      -6.8      3.474      6.207
REMARK  Name = 
REMARK  0 active torsions:
REMARK  status: ('A' for Active; 'I' for Inactive)
REMARK                            x       y       z     vdW  Elec       q    Type
REMARK                         _______ _______ _______ _____ _____    ______ ____
ROOT
ATOM      1  C   UNL     1      -8.737  10.100  62.627  0.00  0.00    +0.090 C 
ATOM      2  N   UNL     1      -9.807  10.386  63.532  0.00  0.00    -0.265 NA
ATOM      3  C   UNL     1      -9.529  10.218  64.905  0.00  0.00    +0.124 C 
ATOM      4  C   UNL     1      -9.363  11.461  65.712  0.00  0.00    +0.220 C 
ATOM      5  N   UNL     1     -10.495  12.337  65.419  0.00  0.00    -0.188 N 
ATOM      6  C   UNL     1     -10.653  13.445  66.313  0.00  0.00    +0.325 C 
ATOM      7  C   UNL     1     -11.125  13.108  67.660  0.00  0.00    +0.097 A 
ATOM      8  C   UNL     1     -11.471  14.003  68.666  0.00  0.00    +0.078 A 
ATOM      9  C   UNL     1     -11.726  13.552  69.956  0.00  0.00    +0.017 A 
ATOM     10  C   UNL     1     -11.910  12.194  70.091  0.00  0.00    +0.001 A 
ATOM     11  C   UNL     1     -12.128  11.404  68.973  0.00  0.00    +0.000 A 
ATOM     12  N   UNL     1     -11.390  15.431  68.609  0.00  0.00    -0.208 NA
ATOM     13  C   UNL     1     -10.623  16.169  67.656  0.00  0.00    +0.113 A 
ATOM     14  C   UNL     1      -9.791  15.722  66.635  0.00  0.00    +0.209 A 
ATOM     15  C   UNL     1      -8.721  16.479  66.193  0.00  0.00    +0.059 A 
ATOM     16  C   UNL     1      -8.461  17.682  66.837  0.00  0.00    +0.061 A 
ATOM     17  C   UNL     1      -9.552  18.292  67.435  0.00  0.00    +0.013 A 
ATOM     18 CL   UNL     1      -6.866  18.400  66.829  0.00  0.00    -0.082 Cl
ATOM     19  C   UNL     1     -10.620  17.537  67.898  0.00  0.00    +0.021 A 
ATOM     20  C   UNL     1     -11.565  11.802  67.770  0.00  0.00    +0.009 A 
ATOM     21  N   UNL     1      -9.832  14.418  66.043  0.00  0.00    -0.039 NA
ATOM     22  C   UNL     1     -10.690  12.641  64.005  0.00  0.00    +0.220 C 
ATOM     23  C   UNL     1     -10.695  11.416  63.147  0.00  0.00    +0.124 C 
ENDROOT
TORSDOF 0
ENDMDL
MODEL 8
REMARK VINA RESULT:      -6.7      2.066      4.862
REMARK  Name = 
REMARK  0 active torsions:
REMARK  status: ('A' for Active; 'I' for Inactive)
REMARK                            x       y       z     vdW  Elec       q    Type
REMARK                         _______ _______ _______ _____ _____    ______ ____
ROOT
ATOM      1  C   UNL     1     -10.106  10.030  64.996  0.00  0.00    +0.090 C 
ATOM      2  N   UNL     1      -9.488  11.281  65.309  0.00  0.00    -0.265 NA
ATOM      3  C   UNL     1     -10.169  12.441  64.884  0.00  0.00    +0.124 C 
ATOM      4  C   UNL     1     -10.854  13.241  65.939  0.00  0.00    +0.220 C 
ATOM      5  N   UNL     1      -9.902  13.453  67.025  0.00  0.00    -0.188 N 
ATOM      6  C   UNL     1     -10.290  14.439  67.991  0.00  0.00    +0.325 C 
ATOM      7  C   UNL     1     -10.238  15.830  67.529  0.00  0.00    +0.097 A 
ATOM      8  C   UNL     1     -10.447  16.969  68.299  0.00  0.00    +0.078 A 
ATOM      9  C   UNL     1     -10.551  18.218  67.700  0.00  0.00    +0.017 A 
ATOM     10  C   UNL     1     -10.141  18.289  66.387  0.00  0.00    +0.001 A 
ATOM     11  C   UNL     1      -9.399  17.260  65.830  0.00  0.00    +0.000 A 
ATOM     12  N   UNL     1     -10.803  17.013  69.685  0.00  0.00    -0.208 NA
ATOM     13  C   UNL     1     -11.342  15.917  70.426  0.00  0.00    +0.113 A 
ATOM     14  C   UNL     1     -11.669  14.630  70.013  0.00  0.00    +0.209 A 
ATOM     15  C   UNL     1     -12.663  13.900  70.642  0.00  0.00    +0.059 A 
ATOM     16  C   UNL     1     -13.371  14.511  71.669  0.00  0.00    +0.061 A 
ATOM     17  C   UNL     1     -12.699  15.514  72.350  0.00  0.00    +0.013 A 
ATOM     18 CL   UNL     1     -14.984  13.994  72.104  0.00  0.00    -0.082 Cl
ATOM     19  C   UNL     1     -11.714  16.262  71.720  0.00  0.00    +0.021 A 
ATOM     20  C   UNL     1      -9.596  15.975  66.314  0.00  0.00    +0.009 A 
ATOM     21  N   UNL     1     -11.158  13.979  68.843  0.00  0.00    -0.039 NA
ATOM     22  C   UNL     1      -9.312  12.238  67.577  0.00  0.00    +0.220 C 
ATOM     23  C   UNL     1      -8.761  11.334  66.519  0.00  0.00    +0.124 C 
ENDROOT
TORSDOF 0
ENDMDL
MODEL 9
REMARK VINA RESULT:      -6.7      3.725      5.838
REMARK  Name = 
REMARK  0 active torsions:
REMARK  status: ('A' for Active; 'I' for Inactive)
REMARK                            x       y       z     vdW  Elec       q    Type
REMARK                         _______ _______ _______ _____ _____    ______ ____
ROOT
ATOM      1  C   UNL     1     -12.062  16.184  72.603  0.00  0.00    +0.090 C 
ATOM      2  N   UNL     1     -12.571  15.744  71.341  0.00  0.00    -0.265 NA
ATOM      3  C   UNL     1     -11.731  15.938  70.224  0.00  0.00    +0.124 C 
ATOM      4  C   UNL     1     -11.072  14.724  69.662  0.00  0.00    +0.220 C 
ATOM      5  N   UNL     1     -12.100  13.702  69.485  0.00  0.00    -0.188 N 
ATOM      6  C   UNL     1     -11.706  12.575  68.693  0.00  0.00    +0.325 C 
ATOM      7  C   UNL     1     -11.563  12.832  67.256  0.00  0.00    +0.097 A 
ATOM      8  C   UNL     1     -11.311  11.890  66.265  0.00  0.00    +0.078 A 
ATOM      9  C   UNL     1     -11.015  12.290  64.968  0.00  0.00    +0.017 A 
ATOM     10  C   UNL     1     -11.283  13.609  64.671  0.00  0.00    +0.001 A 
ATOM     11  C   UNL     1     -12.072  14.369  65.519  0.00  0.00    +0.000 A 
ATOM     12  N   UNL     1     -11.092  10.487  66.451  0.00  0.00    -0.208 NA
ATOM     13  C   UNL     1     -10.749   9.871  67.694  0.00  0.00    +0.113 A 
ATOM     14  C   UNL     1     -10.522  10.439  68.943  0.00  0.00    +0.209 A 
ATOM     15  C   UNL     1      -9.680   9.841  69.865  0.00  0.00    +0.059 A 
ATOM     16  C   UNL     1      -9.015   8.681  69.487  0.00  0.00    +0.061 A 
ATOM     17  C   UNL     1      -9.641   7.920  68.512  0.00  0.00    +0.013 A 
ATOM     18 CL   UNL     1      -7.518   8.193  70.248  0.00  0.00    -0.082 Cl
ATOM     19  C   UNL     1     -10.472   8.515  67.574  0.00  0.00    +0.021 A 
ATOM     20  C   UNL     1     -12.062  14.063  66.872  0.00  0.00    +0.009 A 
ATOM     21  N   UNL     1     -10.981  11.729  69.364  0.00  0.00    -0.039 NA
ATOM     22  C   UNL     1     -12.868  13.384  70.684  0.00  0.00    +0.220 C 
ATOM     23  C   UNL     1     -13.405  14.604  71.364  0.00  0.00    +0.124 C 
ENDROOT
TORSDOF 0
ENDMDL
