MODEL 1
REMARK VINA RESULT:      -7.8      0.000      0.000
REMARK  Name = 
REMARK  6 active torsions:
REMARK  status: ('A' for Active; 'I' for Inactive)
REMARK    1  A    between atoms: C_5  and  C_6
REMARK    2  A    between atoms: C_6  and  C_14
REMARK    3  A    between atoms: C_7  and  C_8
REMARK    4  A    between atoms: C_8  and  N_9
REMARK    5  A    between atoms: C_18  and  C_19
REMARK    6  A    between atoms: C_20  and  C_21
REMARK                            x       y       z     vdW  Elec       q    Type
REMARK                         _______ _______ _______ _____ _____    ______ ____
ROOT
ATOM      1  C   UNL     1     -11.781  15.128  69.137  0.00  0.00    +0.015 C 
ATOM      2  C   UNL     1     -11.464  16.407  69.212  0.00  0.00    -0.007 C 
ENDROOT
BRANCH   1   7
ATOM      3  C   UNL     1     -10.837  10.369  67.044  0.00  0.00    +0.031 C 
ATOM      4  C   UNL     1     -10.647  11.847  66.902  0.00  0.00    -0.022 A 
ATOM      5  C   UNL     1      -9.719  12.482  67.717  0.00  0.00    -0.004 A 
ATOM      6  C   UNL     1      -9.945  13.782  68.156  0.00  0.00    -0.000 A 
ATOM      7  C   UNL     1     -11.192  14.379  68.019  0.00  0.00    +0.001 A 
ATOM      8  C   UNL     1     -11.968  13.875  66.983  0.00  0.00    -0.000 A 
ATOM      9  C   UNL     1     -11.639  12.667  66.379  0.00  0.00    -0.004 A 
ENDBRANCH   1   7
BRANCH   1  10
ATOM     10  C   UNL     1     -12.238  14.419  70.338  0.00  0.00    +0.081 A 
ATOM     11  N   UNL     1     -12.160  13.087  70.385  0.00  0.00    -0.245 NA
ATOM     12  C   UNL     1     -12.956  12.364  71.209  0.00  0.00    +0.082 A 
ATOM     13  C   UNL     1     -13.499  13.039  72.290  0.00  0.00    +0.019 A 
ATOM     14  C   UNL     1     -13.727  14.401  72.218  0.00  0.00    +0.003 A 
ATOM     15  C   UNL     1     -13.231  15.035  71.087  0.00  0.00    +0.019 A 
BRANCH  12  16
ATOM     16  C   UNL     1     -12.526  10.985  71.479  0.00  0.00    +0.026 C 
ATOM     17  C   UNL     1     -13.261   9.934  71.195  0.00  0.00    +0.088 C 
BRANCH  17  18
ATOM     18  C   UNL     1     -13.524   8.848  72.147  0.00  0.00    +0.388 C 
ATOM     19  O   UNL     1     -14.806   8.570  72.591  0.00  0.00    -0.241 OA
ATOM     20  O   UNL     1     -12.497   8.241  72.577  0.00  0.00    -0.241 OA
ENDBRANCH  17  18
ENDBRANCH  12  16
ENDBRANCH   1  10
BRANCH   2  21
ATOM     21  C   UNL     1     -10.306  17.019  68.518  0.00  0.00    +0.099 C 
BRANCH  21  22
ATOM     22  N   UNL     1     -10.695  18.271  67.911  0.00  0.00    -0.269 NA
ATOM     23  C   UNL     1     -10.456  18.283  66.491  0.00  0.00    +0.072 C 
ATOM     24  C   UNL     1     -10.032  19.677  66.124  0.00  0.00    +0.019 C 
ATOM     25  C   UNL     1      -9.532  20.285  67.410  0.00  0.00    +0.019 C 
ATOM     26  C   UNL     1      -9.902  19.319  68.500  0.00  0.00    +0.072 C 
ENDBRANCH  21  22
ENDBRANCH   2  21
TORSDOF 6
ENDMDL
MODEL 2
REMARK VINA RESULT:      -7.5      2.893      3.756
REMARK  Name = 
REMARK  6 active torsions:
REMARK  status: ('A' for Active; 'I' for Inactive)
REMARK    1  A    between atoms: C_5  and  C_6
REMARK    2  A    between atoms: C_6  and  C_14
REMARK    3  A    between atoms: C_7  and  C_8
REMARK    4  A    between atoms: C_8  and  N_9
REMARK    5  A    between atoms: C_18  and  C_19
REMARK    6  A    between atoms: C_20  and  C_21
REMARK                            x       y       z     vdW  Elec       q    Type
REMARK                         _______ _______ _______ _____ _____    ______ ____
ROOT
ATOM      1  C   UNL     1     -11.034  14.622  66.767  0.00  0.00    +0.015 C 
ATOM      2  C   UNL     1     -10.878  15.891  66.440  0.00  0.00    -0.007 C 
ENDROOT
BRANCH   1   7
ATOM      3  C   UNL     1      -9.896   9.528  65.945  0.00  0.00    +0.031 C 
ATOM      4  C   UNL     1      -9.544  10.946  65.620  0.00  0.00    -0.022 A 
ATOM      5  C   UNL     1      -8.868  11.701  66.570  0.00  0.00    -0.004 A 
ATOM      6  C   UNL     1      -9.107  13.065  66.680  0.00  0.00    -0.000 A 
ATOM      7  C   UNL     1     -10.192  13.658  66.046  0.00  0.00    +0.001 A 
ATOM      8  C   UNL     1     -10.644  12.986  64.917  0.00  0.00    -0.000 A 
ATOM      9  C   UNL     1     -10.248  11.677  64.670  0.00  0.00    -0.004 A 
ENDBRANCH   1   7
BRANCH   1  10
ATOM     10  C   UNL     1     -11.602  14.271  68.074  0.00  0.00    +0.081 A 
ATOM     11  N   UNL     1     -11.536  15.150  69.077  0.00  0.00    -0.245 NA
ATOM     12  C   UNL     1     -11.598  14.748  70.370  0.00  0.00    +0.082 A 
ATOM     13  C   UNL     1     -12.177  13.511  70.603  0.00  0.00    +0.019 A 
ATOM     14  C   UNL     1     -12.135  12.528  69.632  0.00  0.00    +0.003 A 
ATOM     15  C   UNL     1     -11.637  12.922  68.398  0.00  0.00    +0.019 A 
BRANCH  12  16
ATOM     16  C   UNL     1     -11.918  15.789  71.356  0.00  0.00    +0.026 C 
ATOM     17  C   UNL     1     -11.837  15.600  72.653  0.00  0.00    +0.088 C 
BRANCH  17  18
ATOM     18  C   UNL     1     -12.907  15.959  73.592  0.00  0.00    +0.388 C 
ATOM     19  O   UNL     1     -14.164  16.334  73.147  0.00  0.00    -0.241 OA
ATOM     20  O   UNL     1     -12.577  15.968  74.817  0.00  0.00    -0.241 OA
ENDBRANCH  17  18
ENDBRANCH  12  16
ENDBRANCH   1  10
BRANCH   2  21
ATOM     21  C   UNL     1      -9.696  16.424  65.720  0.00  0.00    +0.099 C 
BRANCH  21  22
ATOM     22  N   UNL     1      -9.305  17.696  66.281  0.00  0.00    -0.269 NA
ATOM     23  C   UNL     1      -9.089  17.620  67.702  0.00  0.00    +0.072 C 
ATOM     24  C   UNL     1      -9.557  18.921  68.293  0.00  0.00    +0.019 C 
ATOM     25  C   UNL     1     -10.506  19.494  67.273  0.00  0.00    +0.019 C 
ATOM     26  C   UNL     1     -10.371  18.636  66.047  0.00  0.00    +0.072 C 
ENDBRANCH  21  22
ENDBRANCH   2  21
TORSDOF 6
ENDMDL
MODEL 3
REMARK VINA RESULT:      -7.5      4.380      7.623
REMARK  Name = 
REMARK  6 active torsions:
REMARK  status: ('A' for Active; 'I' for Inactive)
REMARK    1  A    between atoms: C_5  and  C_6
REMARK    2  A    between atoms: C_6  and  C_14
REMARK    3  A    between atoms: C_7  and  C_8
REMARK    4  A    between atoms: C_8  and  N_9
REMARK    5  A    between atoms: C_18  and  C_19
REMARK    6  A    between atoms: C_20  and  C_21
REMARK                            x       y       z     vdW  Elec       q    Type
REMARK                         _______ _______ _______ _____ _____    ______ ____
ROOT
ATOM      1  C   UNL     1     -10.125  16.345  68.669  0.00  0.00    +0.015 C 
ATOM      2  C   UNL     1     -10.993  16.412  69.661  0.00  0.00    -0.007 C 
ENDROOT
BRANCH   1   7
ATOM      3  C   UNL     1     -11.849  11.363  68.306  0.00  0.00    +0.031 C 
ATOM      4  C   UNL     1     -11.039  12.447  67.664  0.00  0.00    -0.022 A 
ATOM      5  C   UNL     1      -9.791  12.750  68.192  0.00  0.00    -0.004 A 
ATOM      6  C   UNL     1      -9.318  14.056  68.165  0.00  0.00    -0.000 A 
ATOM      7  C   UNL     1     -10.159  15.119  67.861  0.00  0.00    +0.001 A 
ATOM      8  C   UNL     1     -11.257  14.786  67.076  0.00  0.00    -0.000 A 
ATOM      9  C   UNL     1     -11.630  13.456  66.914  0.00  0.00    -0.004 A 
ENDBRANCH   1   7
BRANCH   1  10
ATOM     10  C   UNL     1      -9.558  17.579  68.112  0.00  0.00    +0.081 A 
ATOM     11  N   UNL     1      -8.480  18.123  68.682  0.00  0.00    -0.245 NA
ATOM     12  C   UNL     1      -8.197  19.440  68.537  0.00  0.00    +0.082 A 
ATOM     13  C   UNL     1      -8.769  20.077  67.447  0.00  0.00    +0.019 A 
ATOM     14  C   UNL     1      -9.964  19.621  66.922  0.00  0.00    +0.003 A 
ATOM     15  C   UNL     1     -10.434  18.424  67.446  0.00  0.00    +0.019 A 
BRANCH  12  16
ATOM     16  C   UNL     1      -6.820  19.844  68.851  0.00  0.00    +0.026 C 
ATOM     17  C   UNL     1      -6.089  19.254  69.769  0.00  0.00    +0.088 C 
BRANCH  17  18
ATOM     18  C   UNL     1      -5.347  19.983  70.805  0.00  0.00    +0.388 C 
ATOM     19  O   UNL     1      -4.878  19.346  71.943  0.00  0.00    -0.241 OA
ATOM     20  O   UNL     1      -5.232  21.232  70.616  0.00  0.00    -0.241 OA
ENDBRANCH  17  18
ENDBRANCH  12  16
ENDBRANCH   1  10
BRANCH   2  21
ATOM     21  C   UNL     1     -12.200  15.559  69.769  0.00  0.00    +0.099 C 
BRANCH  21  22
ATOM     22  N   UNL     1     -12.861  15.790  71.033  0.00  0.00    -0.269 NA
ATOM     23  C   UNL     1     -11.934  16.162  72.070  0.00  0.00    +0.072 C 
ATOM     24  C   UNL     1     -12.430  15.550  73.350  0.00  0.00    +0.019 C 
ATOM     25  C   UNL     1     -13.327  14.418  72.919  0.00  0.00    +0.019 C 
ATOM     26  C   UNL     1     -13.502  14.565  71.434  0.00  0.00    +0.072 C 
ENDBRANCH  21  22
ENDBRANCH   2  21
TORSDOF 6
ENDMDL
MODEL 4
REMARK VINA RESULT:      -7.4      3.032      4.261
REMARK  Name = 
REMARK  6 active torsions:
REMARK  status: ('A' for Active; 'I' for Inactive)
REMARK    1  A    between atoms: C_5  and  C_6
REMARK    2  A    between atoms: C_6  and  C_14
REMARK    3  A    between atoms: C_7  and  C_8
REMARK    4  A    between atoms: C_8  and  N_9
REMARK    5  A    between atoms: C_18  and  C_19
REMARK    6  A    between atoms: C_20  and  C_21
REMARK                            x       y       z     vdW  Elec       q    Type
REMARK                         _______ _______ _______ _____ _____    ______ ____
ROOT
ATOM      1  C   UNL     1     -11.856  13.566  66.806  0.00  0.00    +0.015 C 
ATOM      2  C   UNL     1     -11.267  14.661  66.365  0.00  0.00    -0.007 C 
ENDROOT
BRANCH   1   7
ATOM      3  C   UNL     1      -9.381  11.329  62.708  0.00  0.00    +0.031 C 
ATOM      4  C   UNL     1     -10.447  11.176  63.748  0.00  0.00    -0.022 A 
ATOM      5  C   UNL     1     -11.639  11.871  63.590  0.00  0.00    -0.004 A 
ATOM      6  C   UNL     1     -12.326  12.345  64.701  0.00  0.00    -0.000 A 
ATOM      7  C   UNL     1     -11.731  12.375  65.955  0.00  0.00    +0.001 A 
ATOM      8  C   UNL     1     -10.717  11.442  66.140  0.00  0.00    -0.000 A 
ATOM      9  C   UNL     1     -10.151  10.791  65.050  0.00  0.00    -0.004 A 
ENDBRANCH   1   7
BRANCH   1  10
ATOM     10  C   UNL     1     -12.146  13.420  68.238  0.00  0.00    +0.081 A 
ATOM     11  N   UNL     1     -12.060  14.486  69.037  0.00  0.00    -0.245 NA
ATOM     12  C   UNL     1     -11.853  14.351  70.370  0.00  0.00    +0.082 A 
ATOM     13  C   UNL     1     -12.187  13.126  70.924  0.00  0.00    +0.019 A 
ATOM     14  C   UNL     1     -12.146  11.978  70.153  0.00  0.00    +0.003 A 
ATOM     15  C   UNL     1     -11.918  12.171  68.798  0.00  0.00    +0.019 A 
BRANCH  12  16
ATOM     16  C   UNL     1     -12.172  15.523  71.196  0.00  0.00    +0.026 C 
ATOM     17  C   UNL     1     -11.952  15.572  72.491  0.00  0.00    +0.088 C 
BRANCH  17  18
ATOM     18  C   UNL     1     -12.956  16.011  73.467  0.00  0.00    +0.388 C 
ATOM     19  O   UNL     1     -14.255  16.306  73.085  0.00  0.00    -0.241 OA
ATOM     20  O   UNL     1     -12.532  16.167  74.652  0.00  0.00    -0.241 OA
ENDBRANCH  17  18
ENDBRANCH  12  16
ENDBRANCH   1  10
BRANCH   2  21
ATOM     21  C   UNL     1     -10.211  14.676  65.325  0.00  0.00    +0.099 C 
BRANCH  21  22
ATOM     22  N   UNL     1      -9.348  15.819  65.508  0.00  0.00    -0.269 NA
ATOM     23  C   UNL     1      -8.388  15.611  66.561  0.00  0.00    +0.072 C 
ATOM     24  C   UNL     1      -8.194  16.931  67.253  0.00  0.00    +0.019 C 
ATOM     25  C   UNL     1      -9.429  17.729  66.924  0.00  0.00    +0.019 C 
ATOM     26  C   UNL     1     -10.168  16.945  65.876  0.00  0.00    +0.072 C 
ENDBRANCH  21  22
ENDBRANCH   2  21
TORSDOF 6
ENDMDL
MODEL 5
REMARK VINA RESULT:      -7.3      3.860      5.640
REMARK  Name = 
REMARK  6 active torsions:
REMARK  status: ('A' for Active; 'I' for Inactive)
REMARK    1  A    between atoms: C_5  and  C_6
REMARK    2  A    between atoms: C_6  and  C_14
REMARK    3  A    between atoms: C_7  and  C_8
REMARK    4  A    between atoms: C_8  and  N_9
REMARK    5  A    between atoms: C_18  and  C_19
REMARK    6  A    between atoms: C_20  and  C_21
REMARK                            x       y       z     vdW  Elec       q    Type
REMARK                         _______ _______ _______ _____ _____    ______ ____
ROOT
ATOM      1  C   UNL     1     -11.266  10.720  68.268  0.00  0.00    +0.015 C 
ATOM      2  C   UNL     1     -11.216  11.453  67.172  0.00  0.00    -0.007 C 
ENDROOT
BRANCH   1   7
ATOM      3  C   UNL     1      -9.259   6.863  71.271  0.00  0.00    +0.031 C 
ATOM      4  C   UNL     1      -9.051   7.743  70.077  0.00  0.00    -0.022 A 
ATOM      5  C   UNL     1      -8.715   9.074  70.280  0.00  0.00    -0.004 A 
ATOM      6  C   UNL     1      -9.165  10.052  69.401  0.00  0.00    -0.000 A 
ATOM      7  C   UNL     1     -10.157   9.778  68.468  0.00  0.00    +0.001 A 
ATOM      8  C   UNL     1     -10.250   8.443  68.093  0.00  0.00    -0.000 A 
ATOM      9  C   UNL     1      -9.626   7.454  68.846  0.00  0.00    -0.004 A 
ENDBRANCH   1   7
BRANCH   1  10
ATOM     10  C   UNL     1     -12.061  11.176  69.415  0.00  0.00    +0.081 A 
ATOM     11  N   UNL     1     -12.041  12.466  69.757  0.00  0.00    -0.245 NA
ATOM     12  C   UNL     1     -12.344  12.864  71.016  0.00  0.00    +0.082 A 
ATOM     13  C   UNL     1     -13.096  11.983  71.777  0.00  0.00    +0.019 A 
ATOM     14  C   UNL     1     -13.027  10.623  71.538  0.00  0.00    +0.003 A 
ATOM     15  C   UNL     1     -12.306  10.244  70.414  0.00  0.00    +0.019 A 
BRANCH  12  16
ATOM     16  C   UNL     1     -12.681  14.285  71.182  0.00  0.00    +0.026 C 
ATOM     17  C   UNL     1     -12.302  14.997  72.219  0.00  0.00    +0.088 C 
BRANCH  17  18
ATOM     18  C   UNL     1     -13.214  15.847  72.995  0.00  0.00    +0.388 C 
ATOM     19  O   UNL     1     -12.843  16.373  74.221  0.00  0.00    -0.241 OA
ATOM     20  O   UNL     1     -14.371  15.999  72.499  0.00  0.00    -0.241 OA
ENDBRANCH  17  18
ENDBRANCH  12  16
ENDBRANCH   1  10
BRANCH   2  21
ATOM     21  C   UNL     1      -9.988  11.668  66.370  0.00  0.00    +0.099 C 
BRANCH  21  22
ATOM     22  N   UNL     1     -10.303  12.390  65.160  0.00  0.00    -0.269 NA
ATOM     23  C   UNL     1     -11.229  13.468  65.397  0.00  0.00    +0.072 C 
ATOM     24  C   UNL     1     -12.125  13.556  64.193  0.00  0.00    +0.019 C 
ATOM     25  C   UNL     1     -12.032  12.203  63.537  0.00  0.00    +0.019 C 
ATOM     26  C   UNL     1     -10.921  11.473  64.238  0.00  0.00    +0.072 C 
ENDBRANCH  21  22
ENDBRANCH   2  21
TORSDOF 6
ENDMDL
MODEL 6
REMARK VINA RESULT:      -7.3      2.619      4.050
REMARK  Name = 
REMARK  6 active torsions:
REMARK  status: ('A' for Active; 'I' for Inactive)
REMARK    1  A    between atoms: C_5  and  C_6
REMARK    2  A    between atoms: C_6  and  C_14
REMARK    3  A    between atoms: C_7  and  C_8
REMARK    4  A    between atoms: C_8  and  N_9
REMARK    5  A    between atoms: C_18  and  C_19
REMARK    6  A    between atoms: C_20  and  C_21
REMARK                            x       y       z     vdW  Elec       q    Type
REMARK                         _______ _______ _______ _____ _____    ______ ____
ROOT
ATOM      1  C   UNL     1     -11.927  13.070  68.758  0.00  0.00    +0.015 C 
ATOM      2  C   UNL     1     -12.228  13.896  69.741  0.00  0.00    -0.007 C 
ENDROOT
BRANCH   1   7
ATOM      3  C   UNL     1     -10.369  12.290  63.769  0.00  0.00    +0.031 C 
ATOM      4  C   UNL     1     -10.750  13.299  64.807  0.00  0.00    -0.022 A 
ATOM      5  C   UNL     1      -9.843  13.593  65.817  0.00  0.00    -0.004 A 
ATOM      6  C   UNL     1     -10.294  13.909  67.093  0.00  0.00    -0.000 A 
ATOM      7  C   UNL     1     -11.615  13.690  67.463  0.00  0.00    +0.001 A 
ATOM      8  C   UNL     1     -12.522  13.691  66.411  0.00  0.00    -0.000 A 
ATOM      9  C   UNL     1     -12.078  13.587  65.097  0.00  0.00    -0.004 A 
ENDBRANCH   1   7
BRANCH   1  10
ATOM     10  C   UNL     1     -11.441  11.718  69.063  0.00  0.00    +0.081 A 
ATOM     11  N   UNL     1     -11.877  11.096  70.161  0.00  0.00    -0.245 NA
ATOM     12  C   UNL     1     -11.158  10.103  70.739  0.00  0.00    +0.082 A 
ATOM     13  C   UNL     1     -10.231   9.463  69.931  0.00  0.00    +0.019 A 
ATOM     14  C   UNL     1      -9.654  10.133  68.868  0.00  0.00    +0.003 A 
ATOM     15  C   UNL     1     -10.181  11.386  68.587  0.00  0.00    +0.019 A 
BRANCH  12  16
ATOM     16  C   UNL     1     -11.888   9.233  71.670  0.00  0.00    +0.026 C 
ATOM     17  C   UNL     1     -12.663   8.248  71.277  0.00  0.00    +0.088 C 
BRANCH  17  18
ATOM     18  C   UNL     1     -14.028   8.042  71.777  0.00  0.00    +0.388 C 
ATOM     19  O   UNL     1     -14.581   8.876  72.734  0.00  0.00    -0.241 OA
ATOM     20  O   UNL     1     -14.625   7.018  71.325  0.00  0.00    -0.241 OA
ENDBRANCH  17  18
ENDBRANCH  12  16
ENDBRANCH   1  10
BRANCH   2  21
ATOM     21  C   UNL     1     -11.904  15.342  69.741  0.00  0.00    +0.099 C 
BRANCH  21  22
ATOM     22  N   UNL     1     -12.611  16.011  70.809  0.00  0.00    -0.269 NA
ATOM     23  C   UNL     1     -11.796  16.162  71.986  0.00  0.00    +0.072 C 
ATOM     24  C   UNL     1     -12.701  16.003  73.176  0.00  0.00    +0.019 C 
ATOM     25  C   UNL     1     -13.898  15.247  72.658  0.00  0.00    +0.019 C 
ATOM     26  C   UNL     1     -13.752  15.207  71.163  0.00  0.00    +0.072 C 
ENDBRANCH  21  22
ENDBRANCH   2  21
TORSDOF 6
ENDMDL
MODEL 7
REMARK VINA RESULT:      -7.2      1.770      2.660
REMARK  Name = 
REMARK  6 active torsions:
REMARK  status: ('A' for Active; 'I' for Inactive)
REMARK    1  A    between atoms: C_5  and  C_6
REMARK    2  A    between atoms: C_6  and  C_14
REMARK    3  A    between atoms: C_7  and  C_8
REMARK    4  A    between atoms: C_8  and  N_9
REMARK    5  A    between atoms: C_18  and  C_19
REMARK    6  A    between atoms: C_20  and  C_21
REMARK                            x       y       z     vdW  Elec       q    Type
REMARK                         _______ _______ _______ _____ _____    ______ ____
ROOT
ATOM      1  C   UNL     1     -11.016  13.782  67.976  0.00  0.00    +0.015 C 
ATOM      2  C   UNL     1     -10.465  14.750  68.683  0.00  0.00    -0.007 C 
ENDROOT
BRANCH   1   7
ATOM      3  C   UNL     1     -12.389  11.767  63.288  0.00  0.00    +0.031 C 
ATOM      4  C   UNL     1     -11.807  12.942  64.012  0.00  0.00    -0.022 A 
ATOM      5  C   UNL     1     -10.507  12.853  64.491  0.00  0.00    -0.004 A 
ATOM      6  C   UNL     1     -10.150  13.494  65.672  0.00  0.00    -0.000 A 
ATOM      7  C   UNL     1     -11.114  14.011  66.529  0.00  0.00    +0.001 A 
ATOM      8  C   UNL     1     -12.315  14.348  65.917  0.00  0.00    -0.000 A 
ATOM      9  C   UNL     1     -12.610  13.887  64.639  0.00  0.00    -0.004 A 
ENDBRANCH   1   7
BRANCH   1  10
ATOM     10  C   UNL     1     -11.040  12.414  68.509  0.00  0.00    +0.081 A 
ATOM     11  N   UNL     1     -11.959  12.078  69.417  0.00  0.00    -0.245 NA
ATOM     12  C   UNL     1     -11.763  11.040  70.266  0.00  0.00    +0.082 A 
ATOM     13  C   UNL     1     -10.834  10.090  69.873  0.00  0.00    +0.019 A 
ATOM     14  C   UNL     1      -9.785  10.442  69.044  0.00  0.00    +0.003 A 
ATOM     15  C   UNL     1      -9.833  11.729  68.525  0.00  0.00    +0.019 A 
BRANCH  12  16
ATOM     16  C   UNL     1     -12.962  10.512  70.930  0.00  0.00    +0.026 C 
ATOM     17  C   UNL     1     -12.919   9.583  71.859  0.00  0.00    +0.088 C 
BRANCH  17  18
ATOM     18  C   UNL     1     -13.768   8.385  71.845  0.00  0.00    +0.388 C 
ATOM     19  O   UNL     1     -15.025   8.383  72.427  0.00  0.00    -0.241 OA
ATOM     20  O   UNL     1     -13.243   7.351  71.333  0.00  0.00    -0.241 OA
ENDBRANCH  17  18
ENDBRANCH  12  16
ENDBRANCH   1  10
BRANCH   2  21
ATOM     21  C   UNL     1      -9.624  15.825  68.105  0.00  0.00    +0.099 C 
BRANCH  21  22
ATOM     22  N   UNL     1     -10.428  16.993  67.829  0.00  0.00    -0.269 NA
ATOM     23  C   UNL     1     -10.222  17.490  66.493  0.00  0.00    +0.072 C 
ATOM     24  C   UNL     1     -10.311  18.989  66.559  0.00  0.00    +0.019 C 
ATOM     25  C   UNL     1     -10.042  19.334  68.001  0.00  0.00    +0.019 C 
ATOM     26  C   UNL     1     -10.044  18.031  68.750  0.00  0.00    +0.072 C 
ENDBRANCH  21  22
ENDBRANCH   2  21
TORSDOF 6
ENDMDL
MODEL 8
REMARK VINA RESULT:      -7.2      4.726      7.578
REMARK  Name = 
REMARK  6 active torsions:
REMARK  status: ('A' for Active; 'I' for Inactive)
REMARK    1  A    between atoms: C_5  and  C_6
REMARK    2  A    between atoms: C_6  and  C_14
REMARK    3  A    between atoms: C_7  and  C_8
REMARK    4  A    between atoms: C_8  and  N_9
REMARK    5  A    between atoms: C_18  and  C_19
REMARK    6  A    between atoms: C_20  and  C_21
REMARK                            x       y       z     vdW  Elec       q    Type
REMARK                         _______ _______ _______ _____ _____    ______ ____
ROOT
ATOM      1  C   UNL     1     -10.869  14.699  68.253  0.00  0.00    +0.015 C 
ATOM      2  C   UNL     1     -11.154  14.679  69.541  0.00  0.00    -0.007 C 
ENDROOT
BRANCH   1   7
ATOM      3  C   UNL     1     -11.046  12.184  63.609  0.00  0.00    +0.031 C 
ATOM      4  C   UNL     1     -11.715  12.397  64.932  0.00  0.00    -0.022 A 
ATOM      5  C   UNL     1     -12.407  13.581  65.146  0.00  0.00    -0.004 A 
ATOM      6  C   UNL     1     -12.437  14.155  66.411  0.00  0.00    -0.000 A 
ATOM      7  C   UNL     1     -11.582  13.723  67.417  0.00  0.00    +0.001 A 
ATOM      8  C   UNL     1     -11.145  12.410  67.285  0.00  0.00    -0.000 A 
ATOM      9  C   UNL     1     -11.296  11.735  66.079  0.00  0.00    -0.004 A 
ENDBRANCH   1   7
BRANCH   1  10
ATOM     10  C   UNL     1     -10.304  15.912  67.649  0.00  0.00    +0.081 A 
ATOM     11  N   UNL     1      -9.011  15.941  67.320  0.00  0.00    -0.245 NA
ATOM     12  C   UNL     1      -8.339  17.112  67.210  0.00  0.00    +0.082 A 
ATOM     13  C   UNL     1      -9.107  18.246  66.999  0.00  0.00    +0.019 A 
ATOM     14  C   UNL     1     -10.411  18.299  67.457  0.00  0.00    +0.003 A 
ATOM     15  C   UNL     1     -10.917  17.114  67.973  0.00  0.00    +0.019 A 
BRANCH  12  16
ATOM     16  C   UNL     1      -7.071  17.064  66.470  0.00  0.00    +0.026 C 
ATOM     17  C   UNL     1      -6.297  18.113  66.299  0.00  0.00    +0.088 C 
BRANCH  17  18
ATOM     18  C   UNL     1      -5.748  18.511  64.998  0.00  0.00    +0.388 C 
ATOM     19  O   UNL     1      -4.520  18.044  64.558  0.00  0.00    -0.241 OA
ATOM     20  O   UNL     1      -6.438  19.355  64.350  0.00  0.00    -0.241 OA
ENDBRANCH  17  18
ENDBRANCH  12  16
ENDBRANCH   1  10
BRANCH   2  21
ATOM     21  C   UNL     1     -12.365  14.047  70.116  0.00  0.00    +0.099 C 
BRANCH  21  22
ATOM     22  N   UNL     1     -12.923  14.889  71.149  0.00  0.00    -0.269 NA
ATOM     23  C   UNL     1     -12.017  15.936  71.543  0.00  0.00    +0.072 C 
ATOM     24  C   UNL     1     -12.197  16.146  73.021  0.00  0.00    +0.019 C 
ATOM     25  C   UNL     1     -12.812  14.866  73.525  0.00  0.00    +0.019 C 
ATOM     26  C   UNL     1     -13.179  14.069  72.305  0.00  0.00    +0.072 C 
ENDBRANCH  21  22
ENDBRANCH   2  21
TORSDOF 6
ENDMDL
MODEL 9
REMARK VINA RESULT:      -7.2      2.913      4.131
REMARK  Name = 
REMARK  6 active torsions:
REMARK  status: ('A' for Active; 'I' for Inactive)
REMARK    1  A    between atoms: C_5  and  C_6
REMARK    2  A    between atoms: C_6  and  C_14
REMARK    3  A    between atoms: C_7  and  C_8
REMARK    4  A    between atoms: C_8  and  N_9
REMARK    5  A    between atoms: C_18  and  C_19
REMARK    6  A    between atoms: C_20  and  C_21
REMARK                            x       y       z     vdW  Elec       q    Type
REMARK                         _______ _______ _______ _____ _____    ______ ____
ROOT
ATOM      1  C   UNL     1     -11.285  12.375  67.959  0.00  0.00    +0.015 C 
ATOM      2  C   UNL     1     -11.481  13.370  67.115  0.00  0.00    -0.007 C 
ENDROOT
BRANCH   1   7
ATOM      3  C   UNL     1      -8.865   7.839  69.178  0.00  0.00    +0.031 C 
ATOM      4  C   UNL     1      -8.919   9.003  68.239  0.00  0.00    -0.022 A 
ATOM      5  C   UNL     1      -8.428  10.230  68.666  0.00  0.00    -0.004 A 
ATOM      6  C   UNL     1      -9.018  11.410  68.231  0.00  0.00    -0.000 A 
ATOM      7  C   UNL     1     -10.248  11.404  67.586  0.00  0.00    +0.001 A 
ATOM      8  C   UNL     1     -10.553  10.218  66.928  0.00  0.00    -0.000 A 
ATOM      9  C   UNL     1      -9.833   9.059  67.193  0.00  0.00    -0.004 A 
ENDBRANCH   1   7
BRANCH   1  10
ATOM     10  C   UNL     1     -11.687  12.520  69.363  0.00  0.00    +0.081 A 
ATOM     11  N   UNL     1     -12.194  11.470  70.013  0.00  0.00    -0.245 NA
ATOM     12  C   UNL     1     -12.990  11.632  71.098  0.00  0.00    +0.082 A 
ATOM     13  C   UNL     1     -12.886  12.842  71.764  0.00  0.00    +0.019 A 
ATOM     14  C   UNL     1     -12.499  13.981  71.081  0.00  0.00    +0.003 A 
ATOM     15  C   UNL     1     -12.080  13.786  69.773  0.00  0.00    +0.019 A 
BRANCH  12  16
ATOM     16  C   UNL     1     -13.158  10.453  71.959  0.00  0.00    +0.026 C 
ATOM     17  C   UNL     1     -12.929   9.225  71.550  0.00  0.00    +0.088 C 
BRANCH  17  18
ATOM     18  C   UNL     1     -13.867   8.115  71.753  0.00  0.00    +0.388 C 
ATOM     19  O   UNL     1     -15.063   8.293  72.430  0.00  0.00    -0.241 OA
ATOM     20  O   UNL     1     -13.474   6.986  71.331  0.00  0.00    -0.241 OA
ENDBRANCH  17  18
ENDBRANCH  12  16
ENDBRANCH   1  10
BRANCH   2  21
ATOM     21  C   UNL     1     -10.512  13.777  66.070  0.00  0.00    +0.099 C 
BRANCH  21  22
ATOM     22  N   UNL     1     -11.064  13.534  64.757  0.00  0.00    -0.269 NA
ATOM     23  C   UNL     1     -12.400  13.001  64.821  0.00  0.00    +0.072 C 
ATOM     24  C   UNL     1     -12.543  12.023  63.688  0.00  0.00    +0.019 C 
ATOM     25  C   UNL     1     -11.132  11.633  63.329  0.00  0.00    +0.019 C 
ATOM     26  C   UNL     1     -10.233  12.562  64.095  0.00  0.00    +0.072 C 
ENDBRANCH  21  22
ENDBRANCH   2  21
TORSDOF 6
ENDMDL
