MODEL 1
REMARK VINA RESULT:      -6.1      0.000      0.000
REMARK  Name = 
REMARK  3 active torsions:
REMARK  status: ('A' for Active; 'I' for Inactive)
REMARK    1  A    between atoms: O_2  and  C_3
REMARK    2  A    between atoms: C_8  and  C_9
REMARK    3  A    between atoms: C_9  and  C_11
REMARK                            x       y       z     vdW  Elec       q    Type
REMARK                         _______ _______ _______ _____ _____    ______ ____
ROOT
ATOM      1  C   UNL     1     -11.419  14.354  66.467  0.00  0.00    +0.139 A 
ATOM      2  C   UNL     1     -11.838  13.297  67.261  0.00  0.00    +0.037 A 
ATOM      3  C   UNL     1     -11.837  13.476  68.641  0.00  0.00    +0.003 A 
ATOM      4  C   UNL     1     -11.593  14.709  69.228  0.00  0.00    -0.000 A 
ATOM      5  C   UNL     1     -12.405  14.938  70.337  0.00  0.00    -0.004 A 
ATOM      6  C   UNL     1     -12.376  14.009  71.368  0.00  0.00    -0.012 A 
ATOM      7  C   UNL     1     -12.267  12.705  70.877  0.00  0.00    -0.004 A 
ATOM      8  C   UNL     1     -11.261  15.761  68.412  0.00  0.00    +0.003 A 
ATOM      9  C   UNL     1     -12.040  12.436  69.530  0.00  0.00    -0.000 A 
ATOM     10  C   UNL     1     -10.934  15.483  67.099  0.00  0.00    +0.037 A 
ENDROOT
BRANCH   1  12
ATOM     11  C   UNL     1     -12.182  13.361  64.419  0.00  0.00    +0.252 C 
ATOM     12  O   UNL     1     -11.380  14.284  65.079  0.00  0.00    -0.471 OA
ENDBRANCH   1  12
BRANCH   6  13
ATOM     13  C   UNL     1     -13.707  14.019  72.317  0.00  0.00    +0.126 C 
ATOM     14  C   UNL     1     -14.547  15.101  71.371  0.00  0.00    +0.017 C 
BRANCH  13  15
ATOM     15  C   UNL     1     -13.097  15.168  73.293  0.00  0.00    +0.368 C 
ATOM     16  O   UNL     1     -12.266  14.806  74.302  0.00  0.00    -0.245 OA
ATOM     17  O   UNL     1     -13.824  16.204  73.353  0.00  0.00    -0.245 OA
ENDBRANCH  13  15
ENDBRANCH   6  13
TORSDOF 3
ENDMDL
MODEL 2
REMARK VINA RESULT:      -6.1      2.806      6.107
REMARK  Name = 
REMARK  3 active torsions:
REMARK  status: ('A' for Active; 'I' for Inactive)
REMARK    1  A    between atoms: O_2  and  C_3
REMARK    2  A    between atoms: C_8  and  C_9
REMARK    3  A    between atoms: C_9  and  C_11
REMARK                            x       y       z     vdW  Elec       q    Type
REMARK                         _______ _______ _______ _____ _____    ______ ____
ROOT
ATOM      1  C   UNL     1     -11.791  11.325  70.023  0.00  0.00    +0.139 A 
ATOM      2  C   UNL     1     -11.598  11.073  68.674  0.00  0.00    +0.037 A 
ATOM      3  C   UNL     1     -11.698  12.141  67.788  0.00  0.00    +0.003 A 
ATOM      4  C   UNL     1     -11.821  13.454  68.222  0.00  0.00    -0.000 A 
ATOM      5  C   UNL     1     -11.088  14.341  67.436  0.00  0.00    -0.004 A 
ATOM      6  C   UNL     1     -11.340  14.362  66.070  0.00  0.00    -0.012 A 
ATOM      7  C   UNL     1     -11.585  13.078  65.577  0.00  0.00    -0.004 A 
ATOM      8  C   UNL     1     -11.927  13.684  69.570  0.00  0.00    +0.003 A 
ATOM      9  C   UNL     1     -11.724  11.974  66.415  0.00  0.00    -0.000 A 
ATOM     10  C   UNL     1     -12.169  12.602  70.393  0.00  0.00    +0.037 A 
ENDROOT
BRANCH   1  12
ATOM     11  C   UNL     1     -12.862   9.959  71.682  0.00  0.00    +0.252 C 
ATOM     12  O   UNL     1     -11.714  10.333  70.994  0.00  0.00    -0.471 OA
ENDBRANCH   1  12
BRANCH   6  13
ATOM     13  C   UNL     1     -10.111  14.959  65.171  0.00  0.00    +0.126 C 
ATOM     14  C   UNL     1      -9.201  15.441  66.479  0.00  0.00    +0.017 C 
BRANCH  13  15
ATOM     15  C   UNL     1     -10.839  16.403  64.998  0.00  0.00    +0.368 C 
ATOM     16  O   UNL     1     -11.626  16.621  63.915  0.00  0.00    -0.245 OA
ATOM     17  O   UNL     1     -10.224  17.341  65.589  0.00  0.00    -0.245 OA
ENDBRANCH  13  15
ENDBRANCH   6  13
TORSDOF 3
ENDMDL
MODEL 3
REMARK VINA RESULT:      -5.9      3.023      6.410
REMARK  Name = 
REMARK  3 active torsions:
REMARK  status: ('A' for Active; 'I' for Inactive)
REMARK    1  A    between atoms: O_2  and  C_3
REMARK    2  A    between atoms: C_8  and  C_9
REMARK    3  A    between atoms: C_9  and  C_11
REMARK                            x       y       z     vdW  Elec       q    Type
REMARK                         _______ _______ _______ _____ _____    ______ ____
ROOT
ATOM      1  C   UNL     1     -11.651  10.343  70.440  0.00  0.00    +0.139 A 
ATOM      2  C   UNL     1     -12.092  11.650  70.308  0.00  0.00    +0.037 A 
ATOM      3  C   UNL     1     -11.755  12.339  69.147  0.00  0.00    +0.003 A 
ATOM      4  C   UNL     1     -11.144  11.717  68.067  0.00  0.00    -0.000 A 
ATOM      5  C   UNL     1     -11.632  12.177  66.846  0.00  0.00    -0.004 A 
ATOM      6  C   UNL     1     -11.567  13.541  66.591  0.00  0.00    -0.012 A 
ATOM      7  C   UNL     1     -11.833  14.288  67.741  0.00  0.00    -0.004 A 
ATOM      8  C   UNL     1     -10.793  10.397  68.194  0.00  0.00    +0.003 A 
ATOM      9  C   UNL     1     -11.965  13.698  68.996  0.00  0.00    -0.000 A 
ATOM     10  C   UNL     1     -10.822   9.838  69.456  0.00  0.00    +0.037 A 
ENDROOT
BRANCH   1  12
ATOM     11  C   UNL     1     -13.237   9.481  72.023  0.00  0.00    +0.252 C 
ATOM     12  O   UNL     1     -11.931   9.563  71.557  0.00  0.00    -0.471 OA
ENDBRANCH   1  12
BRANCH   6  13
ATOM     13  C   UNL     1     -12.629  14.062  65.463  0.00  0.00    +0.126 C 
ATOM     14  C   UNL     1     -12.306  12.835  64.386  0.00  0.00    +0.017 C 
BRANCH  13  15
ATOM     15  C   UNL     1     -11.547  15.082  64.805  0.00  0.00    +0.368 C 
ATOM     16  O   UNL     1     -11.984  16.075  63.991  0.00  0.00    -0.245 OA
ATOM     17  O   UNL     1     -10.392  14.573  64.693  0.00  0.00    -0.245 OA
ENDBRANCH  13  15
ENDBRANCH   6  13
TORSDOF 3
ENDMDL
MODEL 4
REMARK VINA RESULT:      -5.8      2.982      4.806
REMARK  Name = 
REMARK  3 active torsions:
REMARK  status: ('A' for Active; 'I' for Inactive)
REMARK    1  A    between atoms: O_2  and  C_3
REMARK    2  A    between atoms: C_8  and  C_9
REMARK    3  A    between atoms: C_9  and  C_11
REMARK                            x       y       z     vdW  Elec       q    Type
REMARK                         _______ _______ _______ _____ _____    ______ ____
ROOT
ATOM      1  C   UNL     1     -11.416   9.224  70.737  0.00  0.00    +0.139 A 
ATOM      2  C   UNL     1     -11.054  10.388  70.078  0.00  0.00    +0.037 A 
ATOM      3  C   UNL     1     -11.852  11.514  70.254  0.00  0.00    +0.003 A 
ATOM      4  C   UNL     1     -12.886  11.552  71.179  0.00  0.00    -0.000 A 
ATOM      5  C   UNL     1     -12.974  12.784  71.824  0.00  0.00    -0.004 A 
ATOM      6  C   UNL     1     -13.119  13.921  71.039  0.00  0.00    -0.012 A 
ATOM      7  C   UNL     1     -12.361  13.832  69.868  0.00  0.00    -0.004 A 
ATOM      8  C   UNL     1     -13.171  10.408  71.880  0.00  0.00    +0.003 A 
ATOM      9  C   UNL     1     -11.705  12.662  69.496  0.00  0.00    -0.000 A 
ATOM     10  C   UNL     1     -12.602   9.226  71.447  0.00  0.00    +0.037 A 
ENDROOT
BRANCH   1  12
ATOM     11  C   UNL     1     -11.054   6.947  71.406  0.00  0.00    +0.252 C 
ATOM     12  O   UNL     1     -10.691   8.042  70.633  0.00  0.00    -0.471 OA
ENDBRANCH   1  12
BRANCH   6  13
ATOM     13  C   UNL     1     -12.648  15.305  71.771  0.00  0.00    +0.126 C 
ATOM     14  C   UNL     1     -12.213  14.569  73.199  0.00  0.00    +0.017 C 
BRANCH  13  15
ATOM     15  C   UNL     1     -14.158  15.644  72.271  0.00  0.00    +0.368 C 
ATOM     16  O   UNL     1     -15.185  15.536  71.393  0.00  0.00    -0.245 OA
ATOM     17  O   UNL     1     -14.186  16.447  73.251  0.00  0.00    -0.245 OA
ENDBRANCH  13  15
ENDBRANCH   6  13
TORSDOF 3
ENDMDL
MODEL 5
REMARK VINA RESULT:      -5.8      3.858      5.162
REMARK  Name = 
REMARK  3 active torsions:
REMARK  status: ('A' for Active; 'I' for Inactive)
REMARK    1  A    between atoms: O_2  and  C_3
REMARK    2  A    between atoms: C_8  and  C_9
REMARK    3  A    between atoms: C_9  and  C_11
REMARK                            x       y       z     vdW  Elec       q    Type
REMARK                         _______ _______ _______ _____ _____    ______ ____
ROOT
ATOM      1  C   UNL     1     -12.103  13.434  65.330  0.00  0.00    +0.139 A 
ATOM      2  C   UNL     1     -12.359  14.006  66.567  0.00  0.00    +0.037 A 
ATOM      3  C   UNL     1     -11.433  14.914  67.070  0.00  0.00    +0.003 A 
ATOM      4  C   UNL     1     -10.366  15.381  66.315  0.00  0.00    -0.000 A 
ATOM      5  C   UNL     1     -10.116  16.735  66.532  0.00  0.00    -0.004 A 
ATOM      6  C   UNL     1      -9.876  17.152  67.835  0.00  0.00    -0.012 A 
ATOM      7  C   UNL     1     -10.684  16.467  68.747  0.00  0.00    -0.004 A 
ATOM      8  C   UNL     1     -10.184  14.859  65.060  0.00  0.00    +0.003 A 
ATOM      9  C   UNL     1     -11.481  15.389  68.369  0.00  0.00    -0.000 A 
ATOM     10  C   UNL     1     -10.898  13.727  64.720  0.00  0.00    +0.037 A 
ENDROOT
BRANCH   1  12
ATOM     11  C   UNL     1     -12.576  11.890  63.554  0.00  0.00    +0.252 C 
ATOM     12  O   UNL     1     -12.960  12.516  64.733  0.00  0.00    -0.471 OA
ENDBRANCH   1  12
BRANCH   6  13
ATOM     13  C   UNL     1     -10.160  18.741  68.092  0.00  0.00    +0.126 C 
ATOM     14  C   UNL     1     -10.523  19.079  66.503  0.00  0.00    +0.017 C 
BRANCH  13  15
ATOM     15  C   UNL     1      -8.588  19.126  67.937  0.00  0.00    +0.368 C 
ATOM     16  O   UNL     1      -7.687  18.582  68.791  0.00  0.00    -0.245 OA
ATOM     17  O   UNL     1      -8.407  20.254  67.388  0.00  0.00    -0.245 OA
ENDBRANCH  13  15
ENDBRANCH   6  13
TORSDOF 3
ENDMDL
MODEL 6
REMARK VINA RESULT:      -5.7      6.639      8.339
REMARK  Name = 
REMARK  3 active torsions:
REMARK  status: ('A' for Active; 'I' for Inactive)
REMARK    1  A    between atoms: O_2  and  C_3
REMARK    2  A    between atoms: C_8  and  C_9
REMARK    3  A    between atoms: C_9  and  C_11
REMARK                            x       y       z     vdW  Elec       q    Type
REMARK                         _______ _______ _______ _____ _____    ______ ____
ROOT
ATOM      1  C   UNL     1      -9.448  18.570  66.561  0.00  0.00    +0.139 A 
ATOM      2  C   UNL     1      -8.274  19.211  66.195  0.00  0.00    +0.037 A 
ATOM      3  C   UNL     1      -7.544  19.853  67.190  0.00  0.00    +0.003 A 
ATOM      4  C   UNL     1      -7.862  19.736  68.536  0.00  0.00    -0.000 A 
ATOM      5  C   UNL     1      -6.729  19.645  69.342  0.00  0.00    -0.004 A 
ATOM      6  C   UNL     1      -5.787  20.662  69.257  0.00  0.00    -0.012 A 
ATOM      7  C   UNL     1      -5.638  21.111  67.942  0.00  0.00    -0.004 A 
ATOM      8  C   UNL     1      -8.985  19.024  68.877  0.00  0.00    +0.003 A 
ATOM      9  C   UNL     1      -6.476  20.688  66.914  0.00  0.00    -0.000 A 
ATOM     10  C   UNL     1      -9.871  18.693  67.871  0.00  0.00    +0.037 A 
ENDROOT
BRANCH   1  12
ATOM     11  C   UNL     1     -10.355  16.513  65.718  0.00  0.00    +0.252 C 
ATOM     12  O   UNL     1     -10.254  17.897  65.649  0.00  0.00    -0.471 OA
ENDBRANCH   1  12
BRANCH   6  13
ATOM     13  C   UNL     1      -4.290  20.232  69.755  0.00  0.00    +0.126 C 
ATOM     14  C   UNL     1      -4.690  18.643  70.050  0.00  0.00    +0.017 C 
BRANCH  13  15
ATOM     15  C   UNL     1      -4.576  20.710  71.282  0.00  0.00    +0.368 C 
ATOM     16  O   UNL     1      -4.465  22.024  71.595  0.00  0.00    -0.245 OA
ATOM     17  O   UNL     1      -4.380  19.791  72.133  0.00  0.00    -0.245 OA
ENDBRANCH  13  15
ENDBRANCH   6  13
TORSDOF 3
ENDMDL
MODEL 7
REMARK VINA RESULT:      -5.5      1.804      6.528
REMARK  Name = 
REMARK  3 active torsions:
REMARK  status: ('A' for Active; 'I' for Inactive)
REMARK    1  A    between atoms: O_2  and  C_3
REMARK    2  A    between atoms: C_8  and  C_9
REMARK    3  A    between atoms: C_9  and  C_11
REMARK                            x       y       z     vdW  Elec       q    Type
REMARK                         _______ _______ _______ _____ _____    ______ ____
ROOT
ATOM      1  C   UNL     1     -12.450  12.500  70.738  0.00  0.00    +0.139 A 
ATOM      2  C   UNL     1     -12.041  13.683  70.142  0.00  0.00    +0.037 A 
ATOM      3  C   UNL     1     -11.438  13.609  68.891  0.00  0.00    +0.003 A 
ATOM      4  C   UNL     1     -11.383  12.429  68.163  0.00  0.00    -0.000 A 
ATOM      5  C   UNL     1     -11.582  12.638  66.800  0.00  0.00    -0.004 A 
ATOM      6  C   UNL     1     -10.742  13.531  66.148  0.00  0.00    -0.012 A 
ATOM      7  C   UNL     1     -10.441  14.631  66.956  0.00  0.00    -0.004 A 
ATOM      8  C   UNL     1     -11.871  11.286  68.744  0.00  0.00    +0.003 A 
ATOM      9  C   UNL     1     -10.815  14.692  68.296  0.00  0.00    -0.000 A 
ATOM     10  C   UNL     1     -12.143  11.314  70.097  0.00  0.00    +0.037 A 
ENDROOT
BRANCH   1  12
ATOM     11  C   UNL     1     -13.604  13.620  72.520  0.00  0.00    +0.252 C 
ATOM     12  O   UNL     1     -13.063  12.457  71.986  0.00  0.00    -0.471 OA
ENDBRANCH   1  12
BRANCH   6  13
ATOM     13  C   UNL     1     -11.361  14.147  64.766  0.00  0.00    +0.126 C 
ATOM     14  C   UNL     1     -12.946  14.044  65.263  0.00  0.00    +0.017 C 
BRANCH  13  15
ATOM     15  C   UNL     1     -11.374  12.696  64.034  0.00  0.00    +0.368 C 
ATOM     16  O   UNL     1     -10.203  12.158  63.612  0.00  0.00    -0.245 OA
ATOM     17  O   UNL     1     -12.481  12.433  63.475  0.00  0.00    -0.245 OA
ENDBRANCH  13  15
ENDBRANCH   6  13
TORSDOF 3
ENDMDL
MODEL 8
REMARK VINA RESULT:      -5.5      2.242      5.698
REMARK  Name = 
REMARK  3 active torsions:
REMARK  status: ('A' for Active; 'I' for Inactive)
REMARK    1  A    between atoms: O_2  and  C_3
REMARK    2  A    between atoms: C_8  and  C_9
REMARK    3  A    between atoms: C_9  and  C_11
REMARK                            x       y       z     vdW  Elec       q    Type
REMARK                         _______ _______ _______ _____ _____    ______ ____
ROOT
ATOM      1  C   UNL     1     -12.977  13.137  71.398  0.00  0.00    +0.139 A 
ATOM      2  C   UNL     1     -12.235  13.022  70.233  0.00  0.00    +0.037 A 
ATOM      3  C   UNL     1     -11.939  14.186  69.530  0.00  0.00    +0.003 A 
ATOM      4  C   UNL     1     -12.217  15.449  70.035  0.00  0.00    -0.000 A 
ATOM      5  C   UNL     1     -11.210  16.368  69.746  0.00  0.00    -0.004 A 
ATOM      6  C   UNL     1     -10.862  16.554  68.414  0.00  0.00    -0.012 A 
ATOM      7  C   UNL     1     -10.891  15.350  67.705  0.00  0.00    -0.004 A 
ATOM      8  C   UNL     1     -12.880  15.535  71.233  0.00  0.00    +0.003 A 
ATOM      9  C   UNL     1     -11.385  14.173  68.262  0.00  0.00    -0.000 A 
ATOM     10  C   UNL     1     -13.460  14.388  71.735  0.00  0.00    +0.037 A 
ENDROOT
BRANCH   1  12
ATOM     11  C   UNL     1     -13.067  10.759  71.712  0.00  0.00    +0.252 C 
ATOM     12  O   UNL     1     -13.328  12.041  72.179  0.00  0.00    -0.471 OA
ENDBRANCH   1  12
BRANCH   6  13
ATOM     13  C   UNL     1      -9.362  17.167  68.194  0.00  0.00    +0.126 C 
ATOM     14  C   UNL     1      -9.757  18.699  68.711  0.00  0.00    +0.017 C 
BRANCH  13  15
ATOM     15  C   UNL     1      -9.643  17.496  66.627  0.00  0.00    +0.368 C 
ATOM     16  O   UNL     1      -8.713  17.155  65.702  0.00  0.00    -0.245 OA
ATOM     17  O   UNL     1     -10.438  18.470  66.461  0.00  0.00    -0.245 OA
ENDBRANCH  13  15
ENDBRANCH   6  13
TORSDOF 3
ENDMDL
MODEL 9
REMARK VINA RESULT:      -5.5      3.745      6.718
REMARK  Name = 
REMARK  3 active torsions:
REMARK  status: ('A' for Active; 'I' for Inactive)
REMARK    1  A    between atoms: O_2  and  C_3
REMARK    2  A    between atoms: C_8  and  C_9
REMARK    3  A    between atoms: C_9  and  C_11
REMARK                            x       y       z     vdW  Elec       q    Type
REMARK                         _______ _______ _______ _____ _____    ______ ____
ROOT
ATOM      1  C   UNL     1     -10.435   9.550  70.688  0.00  0.00    +0.139 A 
ATOM      2  C   UNL     1      -9.841   9.566  69.436  0.00  0.00    +0.037 A 
ATOM      3  C   UNL     1     -10.514  10.207  68.401  0.00  0.00    +0.003 A 
ATOM      4  C   UNL     1     -11.661  10.959  68.617  0.00  0.00    -0.000 A 
ATOM      5  C   UNL     1     -11.693  12.112  67.835  0.00  0.00    -0.004 A 
ATOM      6  C   UNL     1     -11.582  11.968  66.458  0.00  0.00    -0.012 A 
ATOM      7  C   UNL     1     -10.676  10.958  66.122  0.00  0.00    -0.004 A 
ATOM      8  C   UNL     1     -12.183  10.995  69.885  0.00  0.00    +0.003 A 
ATOM      9  C   UNL     1     -10.118  10.113  67.079  0.00  0.00    -0.000 A 
ATOM     10  C   UNL     1     -11.704  10.086  70.808  0.00  0.00    +0.037 A 
ENDROOT
BRANCH   1  12
ATOM     11  C   UNL     1     -10.589   8.032  72.542  0.00  0.00    +0.252 C 
ATOM     12  O   UNL     1      -9.850   8.939  71.792  0.00  0.00    -0.471 OA
ENDBRANCH   1  12
BRANCH   6  13
ATOM     13  C   UNL     1     -11.060  13.311  65.685  0.00  0.00    +0.126 C 
ATOM     14  C   UNL     1     -11.615  14.367  66.846  0.00  0.00    +0.017 C 
BRANCH  13  15
ATOM     15  C   UNL     1     -12.410  13.409  64.784  0.00  0.00    +0.368 C 
ATOM     16  O   UNL     1     -12.328  13.209  63.446  0.00  0.00    -0.245 OA
ATOM     17  O   UNL     1     -13.301  14.146  65.305  0.00  0.00    -0.245 OA
ENDBRANCH  13  15
ENDBRANCH   6  13
TORSDOF 3
ENDMDL
