MODEL 1
REMARK VINA RESULT:      -7.7      0.000      0.000
REMARK  Name = 
REMARK  6 active torsions:
REMARK  status: ('A' for Active; 'I' for Inactive)
REMARK    1  A    between atoms: C_24  and  O_25
REMARK    2  A    between atoms: C_24  and  C_33
REMARK    3  A    between atoms: O_25  and  C_26
REMARK    4  A    between atoms: C_26  and  C_28
REMARK    5  A    between atoms: C_33  and  S_35
REMARK    6  A    between atoms: S_35  and  C_36
REMARK                            x       y       z     vdW  Elec       q    Type
REMARK                         _______ _______ _______ _____ _____    ______ ____
ROOT
ATOM      1  C   UNL     1     -10.504  12.643  65.329  0.00  0.00    +0.004 C 
ATOM      2  C   UNL     1     -11.619  12.698  66.534  0.00  0.00    +0.045 C 
ATOM      3  C   UNL     1     -10.516  12.538  67.702  0.00  0.00    +0.196 C 
ATOM      4  C   UNL     1      -9.995  13.798  68.058  0.00  0.00    +0.044 C 
ATOM      5  C   UNL     1     -10.095  14.487  66.595  0.00  0.00    +0.007 C 
ATOM      6  C   UNL     1      -9.983  15.966  67.405  0.00  0.00    +0.036 C 
ATOM      7  C   UNL     1      -8.417  16.052  67.082  0.00  0.00    +0.168 C 
ATOM      8  C   UNL     1      -7.737  15.169  68.294  0.00  0.00    +0.182 C 
ATOM      9  O   UNL     1      -8.614  15.807  69.363  0.00  0.00    -0.220 OA
ATOM     10  F   UNL     1      -8.067  15.569  65.922  0.00  0.00    -0.237 F 
ATOM     11  C   UNL     1      -8.014  17.454  67.250  0.00  0.00    +0.066 C 
ATOM     12  C   UNL     1      -9.047  18.452  67.461  0.00  0.00    -0.003 C 
ATOM     13  C   UNL     1      -8.740  19.689  67.757  0.00  0.00    +0.036 C 
ATOM     14  C   UNL     1      -7.384  20.087  67.324  0.00  0.00    +0.195 C 
ATOM     15  C   UNL     1      -6.889  19.321  66.167  0.00  0.00    +0.038 C 
ATOM     16  O   UNL     1      -6.883  21.212  67.661  0.00  0.00    -0.287 OA
ATOM     17  C   UNL     1     -10.611  18.069  67.396  0.00  0.00    +0.180 C 
ATOM     18  F   UNL     1     -10.951  19.138  66.391  0.00  0.00    -0.233 F 
ATOM     19  C   UNL     1      -6.956  17.626  68.343  0.00  0.00    +0.011 C 
ATOM     20  C   UNL     1      -7.316  18.031  66.047  0.00  0.00    -0.017 C 
ATOM     21  C   UNL     1     -10.390  16.948  66.183  0.00  0.00    +0.042 C 
ATOM     22  C   UNL     1     -10.935  14.490  69.004  0.00  0.00    +0.004 C 
ATOM     23  C   UNL     1      -8.636  13.818  68.212  0.00  0.00    +0.039 C 
ATOM     24  C   UNL     1     -11.694  14.333  66.617  0.00  0.00    +0.004 C 
ENDROOT
BRANCH   3  25
ATOM     25  C   UNL     1     -11.354  11.752  68.673  0.00  0.00    +0.237 C 
ATOM     26  O   UNL     1     -12.322  11.225  68.107  0.00  0.00    -0.281 OA
BRANCH  25  27
ATOM     27  S   UNL     1     -11.931  12.514  70.214  0.00  0.00    -0.036 S 
BRANCH  27  28
ATOM     28  C   UNL     1     -12.743  11.307  71.295  0.00  0.00    +0.258 C 
ATOM     29  F   UNL     1     -13.462  11.990  72.250  0.00  0.00    -0.221 F 
ENDBRANCH  27  28
ENDBRANCH  25  27
ENDBRANCH   3  25
BRANCH   3  30
ATOM     30  O   UNL     1      -9.519  11.637  67.307  0.00  0.00    -0.443 OA
BRANCH  30  31
ATOM     31  C   UNL     1      -9.410  10.600  68.251  0.00  0.00    +0.376 C 
ATOM     32  O   UNL     1      -8.858  10.818  69.381  0.00  0.00    -0.241 OA
BRANCH  31  33
ATOM     33  C   UNL     1      -9.966   9.292  68.051  0.00  0.00    +0.221 A 
ATOM     34  O   UNL     1      -9.917   8.241  68.797  0.00  0.00    -0.444 OA
ATOM     35  C   UNL     1     -10.445   7.219  68.193  0.00  0.00    +0.180 A 
ATOM     36  C   UNL     1     -10.410   7.430  66.816  0.00  0.00    +0.044 A 
ATOM     37  C   UNL     1     -10.143   8.782  66.766  0.00  0.00    +0.047 A 
ENDBRANCH  31  33
ENDBRANCH  30  31
ENDBRANCH   3  30
TORSDOF 6
ENDMDL
MODEL 2
REMARK VINA RESULT:      -7.5      2.966      8.219
REMARK  Name = 
REMARK  6 active torsions:
REMARK  status: ('A' for Active; 'I' for Inactive)
REMARK    1  A    between atoms: C_24  and  O_25
REMARK    2  A    between atoms: C_24  and  C_33
REMARK    3  A    between atoms: O_25  and  C_26
REMARK    4  A    between atoms: C_26  and  C_28
REMARK    5  A    between atoms: C_33  and  S_35
REMARK    6  A    between atoms: S_35  and  C_36
REMARK                            x       y       z     vdW  Elec       q    Type
REMARK                         _______ _______ _______ _____ _____    ______ ____
ROOT
ATOM      1  C   UNL     1      -9.772  19.605  68.936  0.00  0.00    +0.004 C 
ATOM      2  C   UNL     1      -8.945  20.040  67.586  0.00  0.00    +0.045 C 
ATOM      3  C   UNL     1      -7.624  19.212  68.003  0.00  0.00    +0.196 C 
ATOM      4  C   UNL     1      -7.727  17.875  67.571  0.00  0.00    +0.044 C 
ATOM      5  C   UNL     1      -9.332  17.725  67.734  0.00  0.00    +0.007 C 
ATOM      6  C   UNL     1      -9.204  16.399  66.694  0.00  0.00    +0.036 C 
ATOM      7  C   UNL     1      -9.217  15.391  67.939  0.00  0.00    +0.168 C 
ATOM      8  C   UNL     1      -7.641  15.360  68.412  0.00  0.00    +0.182 C 
ATOM      9  O   UNL     1      -7.128  15.240  66.982  0.00  0.00    -0.220 OA
ATOM     10  F   UNL     1      -9.979  15.756  68.934  0.00  0.00    -0.237 F 
ATOM     11  C   UNL     1      -9.570  14.063  67.421  0.00  0.00    +0.066 C 
ATOM     12  C   UNL     1     -10.000  13.950  66.039  0.00  0.00    -0.003 C 
ATOM     13  C   UNL     1     -10.190  12.780  65.485  0.00  0.00    +0.036 C 
ATOM     14  C   UNL     1     -10.472  11.700  66.454  0.00  0.00    +0.195 C 
ATOM     15  C   UNL     1     -11.084  12.180  67.704  0.00  0.00    +0.038 C 
ATOM     16  O   UNL     1     -10.540  10.479  66.086  0.00  0.00    -0.287 OA
ATOM     17  C   UNL     1     -10.207  15.253  65.114  0.00  0.00    +0.180 C 
ATOM     18  F   UNL     1     -11.610  14.886  64.708  0.00  0.00    -0.233 F 
ATOM     19  C   UNL     1      -8.462  13.034  67.660  0.00  0.00    +0.011 C 
ATOM     20  C   UNL     1     -10.740  13.431  68.125  0.00  0.00    -0.017 C 
ATOM     21  C   UNL     1     -10.777  16.182  66.374  0.00  0.00    +0.042 C 
ATOM     22  C   UNL     1      -7.359  17.779  66.118  0.00  0.00    +0.004 C 
ATOM     23  C   UNL     1      -7.331  16.953  68.500  0.00  0.00    +0.039 C 
ATOM     24  C   UNL     1      -9.564  18.864  66.624  0.00  0.00    +0.004 C 
ENDROOT
BRANCH   3  25
ATOM     25  C   UNL     1      -6.600  20.136  67.402  0.00  0.00    +0.237 C 
ATOM     26  O   UNL     1      -7.102  21.228  67.103  0.00  0.00    -0.281 OA
BRANCH  25  27
ATOM     27  S   UNL     1      -5.560  19.582  66.024  0.00  0.00    -0.036 S 
BRANCH  27  28
ATOM     28  C   UNL     1      -5.581  20.766  64.652  0.00  0.00    +0.258 C 
ATOM     29  F   UNL     1      -6.808  20.694  64.031  0.00  0.00    -0.221 F 
ENDBRANCH  27  28
ENDBRANCH  25  27
ENDBRANCH   3  25
BRANCH   3  30
ATOM     30  O   UNL     1      -7.404  19.314  69.383  0.00  0.00    -0.443 OA
BRANCH  30  31
ATOM     31  C   UNL     1      -6.091  19.756  69.628  0.00  0.00    +0.376 C 
ATOM     32  O   UNL     1      -5.880  20.958  70.002  0.00  0.00    -0.241 OA
BRANCH  31  33
ATOM     33  C   UNL     1      -4.945  18.896  69.556  0.00  0.00    +0.221 A 
ATOM     34  O   UNL     1      -4.705  17.775  70.148  0.00  0.00    -0.444 OA
ATOM     35  C   UNL     1      -3.492  17.375  69.909  0.00  0.00    +0.180 A 
ATOM     36  C   UNL     1      -2.707  18.473  69.561  0.00  0.00    +0.044 A 
ATOM     37  C   UNL     1      -3.678  19.416  69.299  0.00  0.00    +0.047 A 
ENDBRANCH  31  33
ENDBRANCH  30  31
ENDBRANCH   3  30
TORSDOF 6
ENDMDL
MODEL 3
REMARK VINA RESULT:      -7.4      2.850      7.558
REMARK  Name = 
REMARK  6 active torsions:
REMARK  status: ('A' for Active; 'I' for Inactive)
REMARK    1  A    between atoms: C_24  and  O_25
REMARK    2  A    between atoms: C_24  and  C_33
REMARK    3  A    between atoms: O_25  and  C_26
REMARK    4  A    between atoms: C_26  and  C_28
REMARK    5  A    between atoms: C_33  and  S_35
REMARK    6  A    between atoms: S_35  and  C_36
REMARK                            x       y       z     vdW  Elec       q    Type
REMARK                         _______ _______ _______ _____ _____    ______ ____
ROOT
ATOM      1  C   UNL     1     -12.557  13.781  65.311  0.00  0.00    +0.004 C 
ATOM      2  C   UNL     1     -11.153  14.609  65.112  0.00  0.00    +0.045 C 
ATOM      3  C   UNL     1     -10.816  14.619  66.690  0.00  0.00    +0.196 C 
ATOM      4  C   UNL     1     -10.130  13.443  67.052  0.00  0.00    +0.044 C 
ATOM      5  C   UNL     1     -10.843  12.450  65.989  0.00  0.00    +0.007 C 
ATOM      6  C   UNL     1      -9.532  11.413  66.243  0.00  0.00    +0.036 C 
ATOM      7  C   UNL     1     -10.390  10.543  67.278  0.00  0.00    +0.168 C 
ATOM      8  C   UNL     1     -10.207  11.362  68.695  0.00  0.00    +0.182 C 
ATOM      9  O   UNL     1      -8.710  11.553  68.488  0.00  0.00    -0.220 OA
ATOM     10  F   UNL     1     -11.656  10.428  66.985  0.00  0.00    -0.237 F 
ATOM     11  C   UNL     1      -9.724   9.241  67.409  0.00  0.00    +0.066 C 
ATOM     12  C   UNL     1      -8.627   8.930  66.510  0.00  0.00    -0.003 C 
ATOM     13  C   UNL     1      -7.909   7.848  66.671  0.00  0.00    +0.036 C 
ATOM     14  C   UNL     1      -8.604   6.776  67.413  0.00  0.00    +0.195 C 
ATOM     15  C   UNL     1     -10.071   6.835  67.293  0.00  0.00    +0.038 C 
ATOM     16  O   UNL     1      -7.992   5.715  67.775  0.00  0.00    -0.287 OA
ATOM     17  C   UNL     1      -8.214   9.926  65.313  0.00  0.00    +0.180 C 
ATOM     18  F   UNL     1      -8.289   8.866  64.247  0.00  0.00    -0.233 F 
ATOM     19  C   UNL     1      -9.257   8.969  68.841  0.00  0.00    +0.011 C 
ATOM     20  C   UNL     1     -10.633   8.069  67.149  0.00  0.00    -0.017 C 
ATOM     21  C   UNL     1      -9.787  10.387  65.016  0.00  0.00    +0.042 C 
ATOM     22  C   UNL     1      -8.673  13.578  66.713  0.00  0.00    +0.004 C 
ATOM     23  C   UNL     1     -10.574  12.870  68.211  0.00  0.00    +0.039 C 
ATOM     24  C   UNL     1     -10.233  13.297  64.768  0.00  0.00    +0.004 C 
ENDROOT
BRANCH   3  25
ATOM     25  C   UNL     1     -10.129  15.957  66.748  0.00  0.00    +0.237 C 
ATOM     26  O   UNL     1     -10.311  16.600  65.705  0.00  0.00    -0.281 OA
BRANCH  25  27
ATOM     27  S   UNL     1      -8.375  16.068  67.195  0.00  0.00    -0.036 S 
BRANCH  27  28
ATOM     28  C   UNL     1      -8.156  16.380  68.967  0.00  0.00    +0.258 C 
ATOM     29  F   UNL     1      -8.460  15.226  69.655  0.00  0.00    -0.221 F 
ENDBRANCH  27  28
ENDBRANCH  25  27
ENDBRANCH   3  25
BRANCH   3  30
ATOM     30  O   UNL     1     -11.987  14.808  67.436  0.00  0.00    -0.443 OA
BRANCH  30  31
ATOM     31  C   UNL     1     -11.728  15.654  68.529  0.00  0.00    +0.376 C 
ATOM     32  O   UNL     1     -11.460  16.887  68.335  0.00  0.00    -0.241 OA
BRANCH  31  33
ATOM     33  C   UNL     1     -11.826  15.226  69.895  0.00  0.00    +0.221 A 
ATOM     34  O   UNL     1     -12.646  14.401  70.454  0.00  0.00    -0.444 OA
ATOM     35  C   UNL     1     -12.477  14.383  71.742  0.00  0.00    +0.180 A 
ATOM     36  C   UNL     1     -11.880  15.577  72.145  0.00  0.00    +0.044 A 
ATOM     37  C   UNL     1     -11.437  16.067  70.935  0.00  0.00    +0.047 A 
ENDBRANCH  31  33
ENDBRANCH  30  31
ENDBRANCH   3  30
TORSDOF 6
ENDMDL
MODEL 4
REMARK VINA RESULT:      -7.3      3.853      5.939
REMARK  Name = 
REMARK  6 active torsions:
REMARK  status: ('A' for Active; 'I' for Inactive)
REMARK    1  A    between atoms: C_24  and  O_25
REMARK    2  A    between atoms: C_24  and  C_33
REMARK    3  A    between atoms: O_25  and  C_26
REMARK    4  A    between atoms: C_26  and  C_28
REMARK    5  A    between atoms: C_33  and  S_35
REMARK    6  A    between atoms: S_35  and  C_36
REMARK                            x       y       z     vdW  Elec       q    Type
REMARK                         _______ _______ _______ _____ _____    ______ ____
ROOT
ATOM      1  C   UNL     1      -6.627   9.270  68.246  0.00  0.00    +0.004 C 
ATOM      2  C   UNL     1      -7.498   7.946  67.815  0.00  0.00    +0.045 C 
ATOM      3  C   UNL     1      -8.724   8.304  68.801  0.00  0.00    +0.196 C 
ATOM      4  C   UNL     1      -9.630   9.172  68.161  0.00  0.00    +0.044 C 
ATOM      5  C   UNL     1      -8.550   9.974  67.258  0.00  0.00    +0.007 C 
ATOM      6  C   UNL     1      -9.861  10.444  66.301  0.00  0.00    +0.036 C 
ATOM      7  C   UNL     1      -9.934  11.856  67.052  0.00  0.00    +0.168 C 
ATOM      8  C   UNL     1     -10.838  11.523  68.388  0.00  0.00    +0.182 C 
ATOM      9  O   UNL     1     -11.857  10.712  67.597  0.00  0.00    -0.220 OA
ATOM     10  F   UNL     1      -8.780  12.354  67.403  0.00  0.00    -0.237 F 
ATOM     11  C   UNL     1     -10.700  12.768  66.193  0.00  0.00    +0.066 C 
ATOM     12  C   UNL     1     -11.048  12.330  64.853  0.00  0.00    -0.003 C 
ATOM     13  C   UNL     1     -11.845  13.040  64.097  0.00  0.00    +0.036 C 
ATOM     14  C   UNL     1     -11.892  14.472  64.458  0.00  0.00    +0.195 C 
ATOM     15  C   UNL     1     -10.664  14.950  65.117  0.00  0.00    +0.038 C 
ATOM     16  O   UNL     1     -12.726  15.268  63.909  0.00  0.00    -0.287 OA
ATOM     17  C   UNL     1     -10.513  10.929  64.263  0.00  0.00    +0.180 C 
ATOM     18  F   UNL     1      -9.938  11.541  63.013  0.00  0.00    -0.233 F 
ATOM     19  C   UNL     1     -11.973  13.275  66.874  0.00  0.00    +0.011 C 
ATOM     20  C   UNL     1      -9.980  14.053  65.883  0.00  0.00    -0.017 C 
ATOM     21  C   UNL     1      -9.044  11.045  65.039  0.00  0.00    +0.042 C 
ATOM     22  C   UNL     1     -10.545   8.384  67.267  0.00  0.00    +0.004 C 
ATOM     23  C   UNL     1     -10.064  10.206  68.943  0.00  0.00    +0.039 C 
ATOM     24  C   UNL     1      -8.174   8.618  66.481  0.00  0.00    +0.004 C 
ENDROOT
BRANCH   3  25
ATOM     25  C   UNL     1      -9.126   6.897  69.153  0.00  0.00    +0.237 C 
ATOM     26  O   UNL     1      -8.399   6.068  68.589  0.00  0.00    -0.281 OA
BRANCH  25  27
ATOM     27  S   UNL     1     -10.851   6.366  68.977  0.00  0.00    -0.036 S 
BRANCH  27  28
ATOM     28  C   UNL     1     -11.796   6.646  70.498  0.00  0.00    +0.258 C 
ATOM     29  F   UNL     1     -11.928   8.004  70.686  0.00  0.00    -0.221 F 
ENDBRANCH  27  28
ENDBRANCH  25  27
ENDBRANCH   3  25
BRANCH   3  30
ATOM     30  O   UNL     1      -8.239   8.829  70.007  0.00  0.00    -0.443 OA
BRANCH  30  31
ATOM     31  C   UNL     1      -7.949   7.784  70.902  0.00  0.00    +0.376 C 
ATOM     32  O   UNL     1      -6.831   7.174  70.832  0.00  0.00    -0.241 OA
BRANCH  31  33
ATOM     33  C   UNL     1      -8.825   7.399  71.972  0.00  0.00    +0.221 A 
ATOM     34  O   UNL     1      -9.553   8.121  72.754  0.00  0.00    -0.444 OA
ATOM     35  C   UNL     1     -10.106   7.391  73.676  0.00  0.00    +0.180 A 
ATOM     36  C   UNL     1      -9.359   6.227  73.850  0.00  0.00    +0.044 A 
ATOM     37  C   UNL     1      -8.580   6.245  72.714  0.00  0.00    +0.047 A 
ENDBRANCH  31  33
ENDBRANCH  30  31
ENDBRANCH   3  30
TORSDOF 6
ENDMDL
MODEL 5
REMARK VINA RESULT:      -7.2      3.427      5.323
REMARK  Name = 
REMARK  6 active torsions:
REMARK  status: ('A' for Active; 'I' for Inactive)
REMARK    1  A    between atoms: C_24  and  O_25
REMARK    2  A    between atoms: C_24  and  C_33
REMARK    3  A    between atoms: O_25  and  C_26
REMARK    4  A    between atoms: C_26  and  C_28
REMARK    5  A    between atoms: C_33  and  S_35
REMARK    6  A    between atoms: S_35  and  C_36
REMARK                            x       y       z     vdW  Elec       q    Type
REMARK                         _______ _______ _______ _____ _____    ______ ____
ROOT
ATOM      1  C   UNL     1      -7.797  14.516  69.665  0.00  0.00    +0.004 C 
ATOM      2  C   UNL     1      -8.592  14.160  68.274  0.00  0.00    +0.045 C 
ATOM      3  C   UNL     1      -9.590  15.422  68.399  0.00  0.00    +0.196 C 
ATOM      4  C   UNL     1      -9.002  16.569  67.830  0.00  0.00    +0.044 C 
ATOM      5  C   UNL     1      -7.463  16.222  68.199  0.00  0.00    +0.007 C 
ATOM      6  C   UNL     1      -7.039  17.336  67.002  0.00  0.00    +0.036 C 
ATOM      7  C   UNL     1      -6.804  18.471  68.107  0.00  0.00    +0.168 C 
ATOM      8  C   UNL     1      -8.315  19.079  68.346  0.00  0.00    +0.182 C 
ATOM      9  O   UNL     1      -8.620  19.129  66.854  0.00  0.00    -0.220 OA
ATOM     10  F   UNL     1      -6.307  18.045  69.236  0.00  0.00    -0.237 F 
ATOM     11  C   UNL     1      -5.978  19.516  67.490  0.00  0.00    +0.066 C 
ATOM     12  C   UNL     1      -5.407  19.265  66.180  0.00  0.00    -0.003 C 
ATOM     13  C   UNL     1      -4.783  20.209  65.523  0.00  0.00    +0.036 C 
ATOM     14  C   UNL     1      -4.246  21.281  66.387  0.00  0.00    +0.195 C 
ATOM     15  C   UNL     1      -3.951  20.836  67.760  0.00  0.00    +0.038 C 
ATOM     16  O   UNL     1      -3.736  22.341  65.890  0.00  0.00    -0.287 OA
ATOM     17  C   UNL     1      -5.564  17.834  65.455  0.00  0.00    +0.180 C 
ATOM     18  F   UNL     1      -4.088  17.664  65.211  0.00  0.00    -0.233 F 
ATOM     19  C   UNL     1      -6.691  20.869  67.447  0.00  0.00    +0.011 C 
ATOM     20  C   UNL     1      -4.735  19.844  68.273  0.00  0.00    -0.017 C 
ATOM     21  C   UNL     1      -5.462  16.985  66.884  0.00  0.00    +0.042 C 
ATOM     22  C   UNL     1      -9.178  16.546  66.338  0.00  0.00    +0.004 C 
ATOM     23  C   UNL     1      -9.150  17.704  68.578  0.00  0.00    +0.039 C 
ATOM     24  C   UNL     1      -7.526  14.907  67.277  0.00  0.00    +0.004 C 
ENDROOT
BRANCH   3  25
ATOM     25  C   UNL     1     -10.804  14.791  67.773  0.00  0.00    +0.237 C 
ATOM     26  O   UNL     1     -10.960  13.628  68.171  0.00  0.00    -0.281 OA
BRANCH  25  27
ATOM     27  S   UNL     1     -11.029  14.821  65.974  0.00  0.00    -0.036 S 
BRANCH  27  28
ATOM     28  C   UNL     1     -12.583  14.028  65.482  0.00  0.00    +0.258 C 
ATOM     29  F   UNL     1     -12.411  12.662  65.532  0.00  0.00    -0.221 F 
ENDBRANCH  27  28
ENDBRANCH  25  27
ENDBRANCH   3  25
BRANCH   3  30
ATOM     30  O   UNL     1      -9.960  15.616  69.736  0.00  0.00    -0.443 OA
BRANCH  30  31
ATOM     31  C   UNL     1     -11.312  15.995  69.809  0.00  0.00    +0.376 C 
ATOM     32  O   UNL     1     -11.841  16.666  68.860  0.00  0.00    -0.241 OA
BRANCH  31  33
ATOM     33  C   UNL     1     -12.184  15.597  70.876  0.00  0.00    +0.221 A 
ATOM     34  O   UNL     1     -13.460  15.739  71.009  0.00  0.00    -0.444 OA
ATOM     35  C   UNL     1     -13.849  15.350  72.186  0.00  0.00    +0.180 A 
ATOM     36  C   UNL     1     -12.772  15.409  73.070  0.00  0.00    +0.044 A 
ATOM     37  C   UNL     1     -11.719  15.524  72.188  0.00  0.00    +0.047 A 
ENDBRANCH  31  33
ENDBRANCH  30  31
ENDBRANCH   3  30
TORSDOF 6
ENDMDL
MODEL 6
REMARK VINA RESULT:      -7.2      3.860      6.068
REMARK  Name = 
REMARK  6 active torsions:
REMARK  status: ('A' for Active; 'I' for Inactive)
REMARK    1  A    between atoms: C_24  and  O_25
REMARK    2  A    between atoms: C_24  and  C_33
REMARK    3  A    between atoms: O_25  and  C_26
REMARK    4  A    between atoms: C_26  and  C_28
REMARK    5  A    between atoms: C_33  and  S_35
REMARK    6  A    between atoms: S_35  and  C_36
REMARK                            x       y       z     vdW  Elec       q    Type
REMARK                         _______ _______ _______ _____ _____    ______ ____
ROOT
ATOM      1  C   UNL     1      -6.932   9.633  69.426  0.00  0.00    +0.004 C 
ATOM      2  C   UNL     1      -7.704   8.250  68.995  0.00  0.00    +0.045 C 
ATOM      3  C   UNL     1      -9.060   8.641  69.779  0.00  0.00    +0.196 C 
ATOM      4  C   UNL     1      -9.894   9.422  68.956  0.00  0.00    +0.044 C 
ATOM      5  C   UNL     1      -8.723  10.189  68.139  0.00  0.00    +0.007 C 
ATOM      6  C   UNL     1      -9.906  10.536  66.983  0.00  0.00    +0.036 C 
ATOM      7  C   UNL     1     -10.114  11.999  67.599  0.00  0.00    +0.168 C 
ATOM      8  C   UNL     1     -11.179  11.740  68.827  0.00  0.00    +0.182 C 
ATOM      9  O   UNL     1     -12.063  10.834  67.980  0.00  0.00    -0.220 OA
ATOM     10  F   UNL     1      -9.029  12.563  68.055  0.00  0.00    -0.237 F 
ATOM     11  C   UNL     1     -10.780  12.813  66.574  0.00  0.00    +0.066 C 
ATOM     12  C   UNL     1     -10.935  12.259  65.242  0.00  0.00    -0.003 C 
ATOM     13  C   UNL     1     -11.642  12.878  64.331  0.00  0.00    +0.036 C 
ATOM     14  C   UNL     1     -11.771  14.331  64.564  0.00  0.00    +0.195 C 
ATOM     15  C   UNL     1     -10.655  14.903  65.336  0.00  0.00    +0.038 C 
ATOM     16  O   UNL     1     -12.544  15.051  63.846  0.00  0.00    -0.287 OA
ATOM     17  C   UNL     1     -10.292  10.835  64.844  0.00  0.00    +0.180 C 
ATOM     18  F   UNL     1      -9.570  11.367  63.634  0.00  0.00    -0.233 F 
ATOM     19  C   UNL     1     -12.145  13.326  67.038  0.00  0.00    +0.011 C 
ATOM     20  C   UNL     1     -10.057  14.094  66.256  0.00  0.00    -0.017 C 
ATOM     21  C   UNL     1      -8.943  11.064  65.794  0.00  0.00    +0.042 C 
ATOM     22  C   UNL     1     -10.661   8.535  68.018  0.00  0.00    +0.004 C 
ATOM     23  C   UNL     1     -10.454  10.499  69.586  0.00  0.00    +0.039 C 
ATOM     24  C   UNL     1      -8.213   8.791  67.533  0.00  0.00    +0.004 C 
ENDROOT
BRANCH   3  25
ATOM     25  C   UNL     1      -9.471   7.253  70.190  0.00  0.00    +0.237 C 
ATOM     26  O   UNL     1      -8.557   6.439  69.997  0.00  0.00    -0.281 OA
BRANCH  25  27
ATOM     27  S   UNL     1     -11.020   6.536  69.580  0.00  0.00    -0.036 S 
BRANCH  27  28
ATOM     28  C   UNL     1     -12.329   6.609  70.831  0.00  0.00    +0.258 C 
ATOM     29  F   UNL     1     -11.882   5.975  71.969  0.00  0.00    -0.221 F 
ENDBRANCH  27  28
ENDBRANCH  25  27
ENDBRANCH   3  25
BRANCH   3  30
ATOM     30  O   UNL     1      -8.754   9.276  70.990  0.00  0.00    -0.443 OA
BRANCH  30  31
ATOM     31  C   UNL     1      -9.579   8.778  72.014  0.00  0.00    +0.376 C 
ATOM     32  O   UNL     1     -10.821   9.071  72.035  0.00  0.00    -0.241 OA
BRANCH  31  33
ATOM     33  C   UNL     1      -9.117   7.870  73.025  0.00  0.00    +0.221 A 
ATOM     34  O   UNL     1      -9.773   7.222  73.927  0.00  0.00    -0.444 OA
ATOM     35  C   UNL     1      -8.964   6.600  74.731  0.00  0.00    +0.180 A 
ATOM     36  C   UNL     1      -7.717   7.222  74.701  0.00  0.00    +0.044 A 
ATOM     37  C   UNL     1      -7.840   7.997  73.567  0.00  0.00    +0.047 A 
ENDBRANCH  31  33
ENDBRANCH  30  31
ENDBRANCH   3  30
TORSDOF 6
ENDMDL
MODEL 7
REMARK VINA RESULT:      -7.2      3.869      5.953
REMARK  Name = 
REMARK  6 active torsions:
REMARK  status: ('A' for Active; 'I' for Inactive)
REMARK    1  A    between atoms: C_24  and  O_25
REMARK    2  A    between atoms: C_24  and  C_33
REMARK    3  A    between atoms: O_25  and  C_26
REMARK    4  A    between atoms: C_26  and  C_28
REMARK    5  A    between atoms: C_33  and  S_35
REMARK    6  A    between atoms: S_35  and  C_36
REMARK                            x       y       z     vdW  Elec       q    Type
REMARK                         _______ _______ _______ _____ _____    ______ ____
ROOT
ATOM      1  C   UNL     1      -6.564   9.494  67.917  0.00  0.00    +0.004 C 
ATOM      2  C   UNL     1      -7.445   8.175  67.493  0.00  0.00    +0.045 C 
ATOM      3  C   UNL     1      -8.636   8.509  68.529  0.00  0.00    +0.196 C 
ATOM      4  C   UNL     1      -9.568   9.385  67.938  0.00  0.00    +0.044 C 
ATOM      5  C   UNL     1      -8.524  10.208  67.012  0.00  0.00    +0.007 C 
ATOM      6  C   UNL     1      -9.871  10.691  66.112  0.00  0.00    +0.036 C 
ATOM      7  C   UNL     1      -9.922  12.088  66.893  0.00  0.00    +0.168 C 
ATOM      8  C   UNL     1     -10.776  11.726  68.253  0.00  0.00    +0.182 C 
ATOM      9  O   UNL     1     -11.819  10.926  67.485  0.00  0.00    -0.220 OA
ATOM     10  F   UNL     1      -8.758  12.584  67.210  0.00  0.00    -0.237 F 
ATOM     11  C   UNL     1     -10.722  13.012  66.079  0.00  0.00    +0.066 C 
ATOM     12  C   UNL     1     -11.116  12.598  64.745  0.00  0.00    -0.003 C 
ATOM     13  C   UNL     1     -11.944  13.318  64.031  0.00  0.00    +0.036 C 
ATOM     14  C   UNL     1     -11.982  14.743  64.421  0.00  0.00    +0.195 C 
ATOM     15  C   UNL     1     -10.734  15.215  65.044  0.00  0.00    +0.038 C 
ATOM     16  O   UNL     1     -12.839  15.545  63.917  0.00  0.00    -0.287 OA
ATOM     17  C   UNL     1     -10.598  11.210  64.109  0.00  0.00    +0.180 C 
ATOM     18  F   UNL     1     -10.071  11.849  62.851  0.00  0.00    -0.233 F 
ATOM     19  C   UNL     1     -11.972  13.500  66.815  0.00  0.00    +0.011 C 
ATOM     20  C   UNL     1     -10.019  14.306  65.768  0.00  0.00    -0.017 C 
ATOM     21  C   UNL     1      -9.102  11.319  64.833  0.00  0.00    +0.042 C 
ATOM     22  C   UNL     1     -10.512   8.610  67.063  0.00  0.00    +0.004 C 
ATOM     23  C   UNL     1      -9.978  10.402  68.755  0.00  0.00    +0.039 C 
ATOM     24  C   UNL     1      -8.171   8.869  66.197  0.00  0.00    +0.004 C 
ENDROOT
BRANCH   3  25
ATOM     25  C   UNL     1      -9.020   7.094  68.869  0.00  0.00    +0.237 C 
ATOM     26  O   UNL     1      -8.150   6.293  68.500  0.00  0.00    -0.281 OA
BRANCH  25  27
ATOM     27  S   UNL     1     -10.644   6.445  68.390  0.00  0.00    -0.036 S 
BRANCH  27  28
ATOM     28  C   UNL     1     -10.495   5.072  67.217  0.00  0.00    +0.258 C 
ATOM     29  F   UNL     1      -9.994   5.562  66.031  0.00  0.00    -0.221 F 
ENDBRANCH  27  28
ENDBRANCH  25  27
ENDBRANCH   3  25
BRANCH   3  30
ATOM     30  O   UNL     1      -8.110   9.014  69.726  0.00  0.00    -0.443 OA
BRANCH  30  31
ATOM     31  C   UNL     1      -8.300   8.083  70.763  0.00  0.00    +0.376 C 
ATOM     32  O   UNL     1      -7.323   7.370  71.170  0.00  0.00    -0.241 OA
BRANCH  31  33
ATOM     33  C   UNL     1      -9.541   7.933  71.467  0.00  0.00    +0.221 A 
ATOM     34  O   UNL     1     -10.467   8.795  71.719  0.00  0.00    -0.444 OA
ATOM     35  C   UNL     1     -11.376   8.285  72.495  0.00  0.00    +0.180 A 
ATOM     36  C   UNL     1     -10.827   7.219  73.207  0.00  0.00    +0.044 A 
ATOM     37  C   UNL     1      -9.672   6.994  72.489  0.00  0.00    +0.047 A 
ENDBRANCH  31  33
ENDBRANCH  30  31
ENDBRANCH   3  30
TORSDOF 6
ENDMDL
MODEL 8
REMARK VINA RESULT:      -6.9      3.742      9.245
REMARK  Name = 
REMARK  6 active torsions:
REMARK  status: ('A' for Active; 'I' for Inactive)
REMARK    1  A    between atoms: C_24  and  O_25
REMARK    2  A    between atoms: C_24  and  C_33
REMARK    3  A    between atoms: O_25  and  C_26
REMARK    4  A    between atoms: C_26  and  C_28
REMARK    5  A    between atoms: C_33  and  S_35
REMARK    6  A    between atoms: S_35  and  C_36
REMARK                            x       y       z     vdW  Elec       q    Type
REMARK                         _______ _______ _______ _____ _____    ______ ____
ROOT
ATOM      1  C   UNL     1      -9.171   7.610  66.216  0.00  0.00    +0.004 C 
ATOM      2  C   UNL     1      -8.105   8.813  66.551  0.00  0.00    +0.045 C 
ATOM      3  C   UNL     1      -9.231   9.769  67.203  0.00  0.00    +0.196 C 
ATOM      4  C   UNL     1      -9.397   9.468  68.569  0.00  0.00    +0.044 C 
ATOM      5  C   UNL     1      -9.088   7.880  68.473  0.00  0.00    +0.007 C 
ATOM      6  C   UNL     1      -8.808   7.944  70.139  0.00  0.00    +0.036 C 
ATOM      7  C   UNL     1     -10.286   7.402  70.432  0.00  0.00    +0.168 C 
ATOM      8  C   UNL     1     -11.202   8.769  70.383  0.00  0.00    +0.182 C 
ATOM      9  O   UNL     1     -10.204   9.566  71.212  0.00  0.00    -0.220 OA
ATOM     10  F   UNL     1     -10.733   6.529  69.571  0.00  0.00    -0.237 F 
ATOM     11  C   UNL     1     -10.297   6.888  71.807  0.00  0.00    +0.066 C 
ATOM     12  C   UNL     1      -9.036   6.787  72.519  0.00  0.00    -0.003 C 
ATOM     13  C   UNL     1      -9.001   6.471  73.788  0.00  0.00    +0.036 C 
ATOM     14  C   UNL     1     -10.190   5.725  74.250  0.00  0.00    +0.195 C 
ATOM     15  C   UNL     1     -10.852   4.958  73.181  0.00  0.00    +0.038 C 
ATOM     16  O   UNL     1     -10.372   5.467  75.487  0.00  0.00    -0.287 OA
ATOM     17  C   UNL     1      -7.633   7.113  71.795  0.00  0.00    +0.180 C 
ATOM     18  F   UNL     1      -6.998   5.802  72.176  0.00  0.00    -0.233 F 
ATOM     19  C   UNL     1     -11.288   7.638  72.699  0.00  0.00    +0.011 C 
ATOM     20  C   UNL     1     -10.789   5.470  71.918  0.00  0.00    -0.017 C 
ATOM     21  C   UNL     1      -8.128   6.488  70.332  0.00  0.00    +0.042 C 
ATOM     22  C   UNL     1      -8.322  10.140  69.374  0.00  0.00    +0.004 C 
ATOM     23  C   UNL     1     -10.702   9.407  68.975  0.00  0.00    +0.039 C 
ATOM     24  C   UNL     1      -7.590   8.189  67.977  0.00  0.00    +0.004 C 
ENDROOT
BRANCH   3  25
ATOM     25  C   UNL     1      -8.656  11.092  66.773  0.00  0.00    +0.237 C 
ATOM     26  O   UNL     1      -7.478  10.972  66.409  0.00  0.00    -0.281 OA
BRANCH  25  27
ATOM     27  S   UNL     1      -8.780  12.541  67.856  0.00  0.00    -0.036 S 
BRANCH  27  28
ATOM     28  C   UNL     1      -8.853  14.082  66.905  0.00  0.00    +0.258 C 
ATOM     29  F   UNL     1      -9.990  14.768  67.270  0.00  0.00    -0.221 F 
ENDBRANCH  27  28
ENDBRANCH  25  27
ENDBRANCH   3  25
BRANCH   3  30
ATOM     30  O   UNL     1     -10.428   9.670  66.482  0.00  0.00    -0.443 OA
BRANCH  30  31
ATOM     31  C   UNL     1     -10.389  10.527  65.368  0.00  0.00    +0.376 C 
ATOM     32  O   UNL     1      -9.779  10.169  64.306  0.00  0.00    -0.241 OA
BRANCH  31  33
ATOM     33  C   UNL     1     -11.077  11.785  65.320  0.00  0.00    +0.221 A 
ATOM     34  O   UNL     1     -12.100  12.203  65.985  0.00  0.00    -0.444 OA
ATOM     35  C   UNL     1     -12.492  13.364  65.552  0.00  0.00    +0.180 A 
ATOM     36  C   UNL     1     -12.055  13.536  64.239  0.00  0.00    +0.044 A 
ATOM     37  C   UNL     1     -11.117  12.531  64.143  0.00  0.00    +0.047 A 
ENDBRANCH  31  33
ENDBRANCH  30  31
ENDBRANCH   3  30
TORSDOF 6
ENDMDL
MODEL 9
REMARK VINA RESULT:      -6.5      3.617      5.858
REMARK  Name = 
REMARK  6 active torsions:
REMARK  status: ('A' for Active; 'I' for Inactive)
REMARK    1  A    between atoms: C_24  and  O_25
REMARK    2  A    between atoms: C_24  and  C_33
REMARK    3  A    between atoms: O_25  and  C_26
REMARK    4  A    between atoms: C_26  and  C_28
REMARK    5  A    between atoms: C_33  and  S_35
REMARK    6  A    between atoms: S_35  and  C_36
REMARK                            x       y       z     vdW  Elec       q    Type
REMARK                         _______ _______ _______ _____ _____    ______ ____
ROOT
ATOM      1  C   UNL     1     -10.803   8.764  69.662  0.00  0.00    +0.004 C 
ATOM      2  C   UNL     1      -9.161   8.773  69.632  0.00  0.00    +0.045 C 
ATOM      3  C   UNL     1      -9.084   8.313  68.087  0.00  0.00    +0.196 C 
ATOM      4  C   UNL     1      -9.156   9.434  67.237  0.00  0.00    +0.044 C 
ATOM      5  C   UNL     1     -10.127  10.339  68.167  0.00  0.00    +0.007 C 
ATOM      6  C   UNL     1      -9.583  11.659  67.262  0.00  0.00    +0.036 C 
ATOM      7  C   UNL     1     -10.897  11.604  66.348  0.00  0.00    +0.168 C 
ATOM      8  C   UNL     1     -10.514  10.477  65.211  0.00  0.00    +0.182 C 
ATOM      9  O   UNL     1      -9.120  11.050  64.993  0.00  0.00    -0.220 OA
ATOM     10  F   UNL     1     -11.989  11.260  66.974  0.00  0.00    -0.237 F 
ATOM     11  C   UNL     1     -11.020  12.908  65.683  0.00  0.00    +0.066 C 
ATOM     12  C   UNL     1     -10.128  13.979  66.089  0.00  0.00    -0.003 C 
ATOM     13  C   UNL     1     -10.097  15.114  65.438  0.00  0.00    +0.036 C 
ATOM     14  C   UNL     1     -11.337  15.406  64.690  0.00  0.00    +0.195 C 
ATOM     15  C   UNL     1     -12.533  14.766  65.264  0.00  0.00    +0.038 C 
ATOM     16  O   UNL     1     -11.412  16.402  63.893  0.00  0.00    -0.287 OA
ATOM     17  C   UNL     1      -9.103  13.799  67.320  0.00  0.00    +0.180 C 
ATOM     18  F   UNL     1      -9.567  15.037  68.040  0.00  0.00    -0.233 F 
ATOM     19  C   UNL     1     -10.958  12.789  64.159  0.00  0.00    +0.011 C 
ATOM     20  C   UNL     1     -12.356  13.568  65.891  0.00  0.00    -0.017 C 
ATOM     21  C   UNL     1     -10.159  12.852  68.193  0.00  0.00    +0.042 C 
ATOM     22  C   UNL     1      -7.807  10.086  67.137  0.00  0.00    +0.004 C 
ATOM     23  C   UNL     1      -9.984   9.270  66.161  0.00  0.00    +0.039 C 
ATOM     24  C   UNL     1      -9.008  10.376  69.321  0.00  0.00    +0.004 C 
ENDROOT
BRANCH   3  25
ATOM     25  C   UNL     1      -7.823   7.497  68.175  0.00  0.00    +0.237 C 
ATOM     26  O   UNL     1      -7.224   7.710  69.238  0.00  0.00    -0.281 OA
BRANCH  25  27
ATOM     27  S   UNL     1      -6.619   7.520  66.819  0.00  0.00    -0.036 S 
BRANCH  27  28
ATOM     28  C   UNL     1      -7.310   6.815  65.299  0.00  0.00    +0.258 C 
ATOM     29  F   UNL     1      -7.612   7.846  64.437  0.00  0.00    -0.221 F 
ENDBRANCH  27  28
ENDBRANCH  25  27
ENDBRANCH   3  25
BRANCH   3  30
ATOM     30  O   UNL     1     -10.081   7.367  67.813  0.00  0.00    -0.443 OA
BRANCH  30  31
ATOM     31  C   UNL     1      -9.680   6.101  68.276  0.00  0.00    +0.376 C 
ATOM     32  O   UNL     1      -9.501   5.903  69.524  0.00  0.00    -0.241 OA
BRANCH  31  33
ATOM     33  C   UNL     1      -9.531   4.961  67.418  0.00  0.00    +0.221 A 
ATOM     34  O   UNL     1      -8.512   4.195  67.217  0.00  0.00    -0.444 OA
ATOM     35  C   UNL     1      -8.752   3.346  66.264  0.00  0.00    +0.180 A 
ATOM     36  C   UNL     1      -9.761   3.848  65.443  0.00  0.00    +0.044 A 
ATOM     37  C   UNL     1     -10.266   4.855  66.238  0.00  0.00    +0.047 A 
ENDBRANCH  31  33
ENDBRANCH  30  31
ENDBRANCH   3  30
TORSDOF 6
ENDMDL
