MODEL 1
REMARK VINA RESULT:      -7.0      0.000      0.000
REMARK  Name = 
REMARK  7 active torsions:
REMARK  status: ('A' for Active; 'I' for Inactive)
REMARK    1  A    between atoms: C_2  and  N_3
REMARK    2  A    between atoms: C_2  and  C_17
REMARK    3  A    between atoms: N_3  and  C_4
REMARK    4  A    between atoms: C_4  and  C_5
REMARK    5  A    between atoms: C_5  and  C_6
REMARK    6  A    between atoms: C_6  and  C_7
REMARK    7  A    between atoms: C_11  and  C_12
REMARK                            x       y       z     vdW  Elec       q    Type
REMARK                         _______ _______ _______ _____ _____    ______ ____
ROOT
ATOM      1  N   UNL     1     -12.066  12.239  66.052  0.00  0.00    -0.215 NA
ENDROOT
BRANCH   1   3
ATOM      2  C   UNL     1     -10.500  10.807  67.054  0.00  0.00    +0.024 C 
ATOM      3  C   UNL     1     -10.830  12.452  67.057  0.00  0.00    +0.095 C 
BRANCH   3   4
ATOM      4  C   UNL     1     -11.813  12.290  68.367  0.00  0.00    -0.006 A 
ATOM      5  C   UNL     1     -11.847  13.422  69.143  0.00  0.00    -0.003 A 
ATOM      6  C   UNL     1     -12.349  13.292  70.431  0.00  0.00    -0.000 A 
ATOM      7  C   UNL     1     -12.769  14.433  71.076  0.00  0.00    -0.000 A 
ATOM      8  C   UNL     1     -12.456  15.667  70.530  0.00  0.00    -0.000 A 
ATOM      9  C   UNL     1     -11.568  15.770  69.481  0.00  0.00    -0.000 A 
ATOM     10  C   UNL     1     -12.421  12.028  70.998  0.00  0.00    -0.000 A 
ATOM     11  C   UNL     1     -11.921  10.909  70.352  0.00  0.00    -0.000 A 
ATOM     12  C   UNL     1     -11.262  14.619  68.810  0.00  0.00    -0.000 A 
ATOM     13  C   UNL     1     -11.553  11.089  69.024  0.00  0.00    -0.003 A 
ENDBRANCH   3   4
ENDBRANCH   1   3
BRANCH   1  14
ATOM     14  C   UNL     1     -12.127  13.478  65.311  0.00  0.00    +0.089 C 
BRANCH  14  15
ATOM     15  C   UNL     1     -10.771  14.104  65.095  0.00  0.00    +0.023 C 
BRANCH  15  16
ATOM     16  C   UNL     1     -10.962  15.612  64.970  0.00  0.00    +0.028 C 
BRANCH  16  17
ATOM     17  C   UNL     1     -10.014  16.211  65.950  0.00  0.00    -0.022 A 
ATOM     18  C   UNL     1     -10.201  17.562  66.216  0.00  0.00    -0.000 A 
ATOM     19  C   UNL     1      -9.509  18.158  67.233  0.00  0.00    +0.071 A 
ATOM     20  C   UNL     1      -8.557  17.415  67.884  0.00  0.00    +0.004 A 
ATOM     21  C   UNL     1      -8.146  16.195  67.363  0.00  0.00    -0.000 A 
ATOM     22  C   UNL     1      -8.776  15.698  66.229  0.00  0.00    -0.004 A 
BRANCH  19  23
ATOM     23  C   UNL     1      -9.850  19.557  67.594  0.00  0.00    +0.419 C 
ATOM     24  F   UNL     1      -8.779  20.385  67.340  0.00  0.00    -0.166 F 
ATOM     25  F   UNL     1     -10.981  19.930  66.899  0.00  0.00    -0.166 F 
ATOM     26  F   UNL     1     -10.085  19.606  68.962  0.00  0.00    -0.166 F 
ENDBRANCH  19  23
ENDBRANCH  16  17
ENDBRANCH  15  16
ENDBRANCH  14  15
ENDBRANCH   1  14
TORSDOF 7
ENDMDL
MODEL 2
REMARK VINA RESULT:      -6.7      2.799      5.793
REMARK  Name = 
REMARK  7 active torsions:
REMARK  status: ('A' for Active; 'I' for Inactive)
REMARK    1  A    between atoms: C_2  and  N_3
REMARK    2  A    between atoms: C_2  and  C_17
REMARK    3  A    between atoms: N_3  and  C_4
REMARK    4  A    between atoms: C_4  and  C_5
REMARK    5  A    between atoms: C_5  and  C_6
REMARK    6  A    between atoms: C_6  and  C_7
REMARK    7  A    between atoms: C_11  and  C_12
REMARK                            x       y       z     vdW  Elec       q    Type
REMARK                         _______ _______ _______ _____ _____    ______ ____
ROOT
ATOM      1  N   UNL     1      -9.111  11.974  68.449  0.00  0.00    -0.215 NA
ENDROOT
BRANCH   1   3
ATOM      2  C   UNL     1      -7.345  13.161  67.457  0.00  0.00    +0.024 C 
ATOM      3  C   UNL     1      -8.540  12.097  66.951  0.00  0.00    +0.095 C 
BRANCH   3   4
ATOM      4  C   UNL     1      -9.562  13.345  66.620  0.00  0.00    -0.006 A 
ATOM      5  C   UNL     1     -10.305  13.130  65.485  0.00  0.00    -0.003 A 
ATOM      6  C   UNL     1     -10.930  14.232  64.919  0.00  0.00    -0.000 A 
ATOM      7  C   UNL     1     -11.977  14.006  64.057  0.00  0.00    -0.000 A 
ATOM      8  C   UNL     1     -12.205  12.718  63.600  0.00  0.00    -0.000 A 
ATOM      9  C   UNL     1     -11.289  11.715  63.832  0.00  0.00    -0.000 A 
ATOM     10  C   UNL     1     -10.487  15.503  65.260  0.00  0.00    -0.000 A 
ATOM     11  C   UNL     1      -9.383  15.696  66.074  0.00  0.00    -0.000 A 
ATOM     12  C   UNL     1     -10.327  11.955  64.774  0.00  0.00    -0.000 A 
ATOM     13  C   UNL     1      -8.888  14.561  66.705  0.00  0.00    -0.003 A 
ENDBRANCH   3   4
ENDBRANCH   1   3
BRANCH   1  14
ATOM     14  C   UNL     1     -10.060  10.887  68.370  0.00  0.00    +0.089 C 
BRANCH  14  15
ATOM     15  C   UNL     1     -11.495  11.351  68.420  0.00  0.00    +0.023 C 
BRANCH  15  16
ATOM     16  C   UNL     1     -11.835  11.677  69.870  0.00  0.00    +0.028 C 
BRANCH  16  17
ATOM     17  C   UNL     1     -11.952  13.160  69.923  0.00  0.00    -0.022 A 
ATOM     18  C   UNL     1     -12.460  13.680  71.108  0.00  0.00    -0.000 A 
ATOM     19  C   UNL     1     -12.432  15.029  71.327  0.00  0.00    +0.071 A 
ATOM     20  C   UNL     1     -12.004  15.837  70.304  0.00  0.00    +0.004 A 
ATOM     21  C   UNL     1     -11.847  15.321  69.024  0.00  0.00    -0.000 A 
ATOM     22  C   UNL     1     -12.039  13.961  68.817  0.00  0.00    -0.004 A 
BRANCH  19  23
ATOM     23  C   UNL     1     -12.833  15.535  72.664  0.00  0.00    +0.419 C 
ATOM     24  F   UNL     1     -12.751  14.525  73.596  0.00  0.00    -0.166 F 
ATOM     25  F   UNL     1     -12.037  16.614  72.984  0.00  0.00    -0.166 F 
ATOM     26  F   UNL     1     -14.167  15.919  72.598  0.00  0.00    -0.166 F 
ENDBRANCH  19  23
ENDBRANCH  16  17
ENDBRANCH  15  16
ENDBRANCH  14  15
ENDBRANCH   1  14
TORSDOF 7
ENDMDL
MODEL 3
REMARK VINA RESULT:      -6.6      3.551      5.164
REMARK  Name = 
REMARK  7 active torsions:
REMARK  status: ('A' for Active; 'I' for Inactive)
REMARK    1  A    between atoms: C_2  and  N_3
REMARK    2  A    between atoms: C_2  and  C_17
REMARK    3  A    between atoms: N_3  and  C_4
REMARK    4  A    between atoms: C_4  and  C_5
REMARK    5  A    between atoms: C_5  and  C_6
REMARK    6  A    between atoms: C_6  and  C_7
REMARK    7  A    between atoms: C_11  and  C_12
REMARK                            x       y       z     vdW  Elec       q    Type
REMARK                         _______ _______ _______ _____ _____    ______ ____
ROOT
ATOM      1  N   UNL     1     -11.204  16.825  67.986  0.00  0.00    -0.215 NA
ENDROOT
BRANCH   1   3
ATOM      2  C   UNL     1      -9.495  15.705  69.142  0.00  0.00    +0.024 C 
ATOM      3  C   UNL     1     -10.761  16.736  69.529  0.00  0.00    +0.095 C 
BRANCH   3   4
ATOM      4  C   UNL     1     -11.769  15.460  69.788  0.00  0.00    -0.006 A 
ATOM      5  C   UNL     1     -12.095  15.308  71.112  0.00  0.00    -0.003 A 
ATOM      6  C   UNL     1     -12.640  14.089  71.494  0.00  0.00    -0.000 A 
ATOM      7  C   UNL     1     -13.336  14.038  72.680  0.00  0.00    -0.000 A 
ATOM      8  C   UNL     1     -13.260  15.113  73.550  0.00  0.00    -0.000 A 
ATOM      9  C   UNL     1     -12.348  16.126  73.342  0.00  0.00    -0.000 A 
ATOM     10  C   UNL     1     -12.476  12.991  70.661  0.00  0.00    -0.000 A 
ATOM     11  C   UNL     1     -11.707  13.057  69.511  0.00  0.00    -0.000 A 
ATOM     12  C   UNL     1     -11.760  16.190  72.109  0.00  0.00    -0.000 A 
ATOM     13  C   UNL     1     -11.302  14.329  69.124  0.00  0.00    -0.003 A 
ENDBRANCH   3   4
ENDBRANCH   1   3
BRANCH   1  14
ATOM     14  C   UNL     1     -10.034  17.348  67.319  0.00  0.00    +0.089 C 
BRANCH  14  15
ATOM     15  C   UNL     1      -9.965  16.968  65.861  0.00  0.00    +0.023 C 
BRANCH  15  16
ATOM     16  C   UNL     1      -9.247  15.627  65.757  0.00  0.00    +0.028 C 
BRANCH  16  17
ATOM     17  C   UNL     1     -10.326  14.610  65.629  0.00  0.00    -0.022 A 
ATOM     18  C   UNL     1      -9.947  13.297  65.879  0.00  0.00    -0.000 A 
ATOM     19  C   UNL     1     -10.897  12.318  65.971  0.00  0.00    +0.071 A 
ATOM     20  C   UNL     1     -12.197  12.658  65.693  0.00  0.00    +0.004 A 
ATOM     21  C   UNL     1     -12.489  13.880  65.101  0.00  0.00    -0.000 A 
ATOM     22  C   UNL     1     -11.460  14.787  64.882  0.00  0.00    -0.004 A 
BRANCH  19  23
ATOM     23  C   UNL     1     -10.474  10.961  66.397  0.00  0.00    +0.419 C 
ATOM     24  F   UNL     1     -10.432  10.116  65.310  0.00  0.00    -0.166 F 
ATOM     25  F   UNL     1      -9.257  11.058  67.038  0.00  0.00    -0.166 F 
ATOM     26  F   UNL     1     -11.438  10.459  67.263  0.00  0.00    -0.166 F 
ENDBRANCH  19  23
ENDBRANCH  16  17
ENDBRANCH  15  16
ENDBRANCH  14  15
ENDBRANCH   1  14
TORSDOF 7
ENDMDL
MODEL 4
REMARK VINA RESULT:      -6.5      1.942      2.735
REMARK  Name = 
REMARK  7 active torsions:
REMARK  status: ('A' for Active; 'I' for Inactive)
REMARK    1  A    between atoms: C_2  and  N_3
REMARK    2  A    between atoms: C_2  and  C_17
REMARK    3  A    between atoms: N_3  and  C_4
REMARK    4  A    between atoms: C_4  and  C_5
REMARK    5  A    between atoms: C_5  and  C_6
REMARK    6  A    between atoms: C_6  and  C_7
REMARK    7  A    between atoms: C_11  and  C_12
REMARK                            x       y       z     vdW  Elec       q    Type
REMARK                         _______ _______ _______ _____ _____    ______ ____
ROOT
ATOM      1  N   UNL     1     -11.717  13.840  67.464  0.00  0.00    -0.215 NA
ENDROOT
BRANCH   1   3
ATOM      2  C   UNL     1     -10.442  11.968  68.083  0.00  0.00    +0.024 C 
ATOM      3  C   UNL     1     -10.727  13.508  68.686  0.00  0.00    +0.095 C 
BRANCH   3   4
ATOM      4  C   UNL     1     -11.977  12.957  69.604  0.00  0.00    -0.006 A 
ATOM      5  C   UNL     1     -12.226  13.759  70.690  0.00  0.00    -0.003 A 
ATOM      6  C   UNL     1     -13.004  13.223  71.708  0.00  0.00    -0.000 A 
ATOM      7  C   UNL     1     -13.600  14.095  72.590  0.00  0.00    -0.000 A 
ATOM      8  C   UNL     1     -13.212  15.426  72.584  0.00  0.00    -0.000 A 
ATOM      9  C   UNL     1     -12.111  15.836  71.863  0.00  0.00    -0.000 A 
ATOM     10  C   UNL     1     -13.161  11.846  71.778  0.00  0.00    -0.000 A 
ATOM     11  C   UNL     1     -12.489  10.991  70.920  0.00  0.00    -0.000 A 
ATOM     12  C   UNL     1     -11.621  14.969  70.927  0.00  0.00    -0.000 A 
ATOM     13  C   UNL     1     -11.834  11.594  69.852  0.00  0.00    -0.003 A 
ENDBRANCH   3   4
ENDBRANCH   1   3
BRANCH   1  14
ATOM     14  C   UNL     1     -11.053  14.915  66.763  0.00  0.00    +0.089 C 
BRANCH  14  15
ATOM     15  C   UNL     1     -10.172  15.749  67.660  0.00  0.00    +0.023 C 
BRANCH  15  16
ATOM     16  C   UNL     1     -10.990  16.938  68.151  0.00  0.00    +0.028 C 
BRANCH  16  17
ATOM     17  C   UNL     1     -10.169  18.140  67.836  0.00  0.00    -0.022 A 
ATOM     18  C   UNL     1      -9.010  18.288  68.587  0.00  0.00    -0.000 A 
ATOM     19  C   UNL     1      -8.098  19.249  68.249  0.00  0.00    +0.071 A 
ATOM     20  C   UNL     1      -8.425  20.118  67.239  0.00  0.00    +0.004 A 
ATOM     21  C   UNL     1      -9.726  20.171  66.757  0.00  0.00    -0.000 A 
ATOM     22  C   UNL     1     -10.665  19.271  67.245  0.00  0.00    -0.004 A 
BRANCH  19  23
ATOM     23  C   UNL     1      -6.800  19.275  68.970  0.00  0.00    +0.419 C 
ATOM     24  F   UNL     1      -6.451  18.002  69.362  0.00  0.00    -0.166 F 
ATOM     25  F   UNL     1      -5.852  19.853  68.152  0.00  0.00    -0.166 F 
ATOM     26  F   UNL     1      -6.963  20.026  70.128  0.00  0.00    -0.166 F 
ENDBRANCH  19  23
ENDBRANCH  16  17
ENDBRANCH  15  16
ENDBRANCH  14  15
ENDBRANCH   1  14
TORSDOF 7
ENDMDL
MODEL 5
REMARK VINA RESULT:      -6.5      4.015      5.602
REMARK  Name = 
REMARK  7 active torsions:
REMARK  status: ('A' for Active; 'I' for Inactive)
REMARK    1  A    between atoms: C_2  and  N_3
REMARK    2  A    between atoms: C_2  and  C_17
REMARK    3  A    between atoms: N_3  and  C_4
REMARK    4  A    between atoms: C_4  and  C_5
REMARK    5  A    between atoms: C_5  and  C_6
REMARK    6  A    between atoms: C_6  and  C_7
REMARK    7  A    between atoms: C_11  and  C_12
REMARK                            x       y       z     vdW  Elec       q    Type
REMARK                         _______ _______ _______ _____ _____    ______ ____
ROOT
ATOM      1  N   UNL     1     -11.616  14.945  67.263  0.00  0.00    -0.215 NA
ENDROOT
BRANCH   1   3
ATOM      2  C   UNL     1      -9.830  13.802  68.271  0.00  0.00    +0.024 C 
ATOM      3  C   UNL     1     -10.833  15.089  68.659  0.00  0.00    +0.095 C 
BRANCH   3   4
ATOM      4  C   UNL     1     -11.898  14.081  69.408  0.00  0.00    -0.006 A 
ATOM      5  C   UNL     1     -12.158  14.456  70.702  0.00  0.00    -0.003 A 
ATOM      6  C   UNL     1     -12.750  13.511  71.529  0.00  0.00    -0.000 A 
ATOM      7  C   UNL     1     -13.381  13.957  72.668  0.00  0.00    -0.000 A 
ATOM      8  C   UNL     1     -13.193  15.269  73.070  0.00  0.00    -0.000 A 
ATOM      9  C   UNL     1     -12.237  16.061  72.469  0.00  0.00    -0.000 A 
ATOM     10  C   UNL     1     -12.698  12.173  71.163  0.00  0.00    -0.000 A 
ATOM     11  C   UNL     1     -11.992  11.749  70.049  0.00  0.00    -0.000 A 
ATOM     12  C   UNL     1     -11.716  15.618  71.285  0.00  0.00    -0.000 A 
ATOM     13  C   UNL     1     -11.535  12.752  69.202  0.00  0.00    -0.003 A 
ENDBRANCH   3   4
ENDBRANCH   1   3
BRANCH   1  14
ATOM     14  C   UNL     1     -10.569  15.028  66.269  0.00  0.00    +0.089 C 
BRANCH  14  15
ATOM     15  C   UNL     1     -11.047  14.687  64.879  0.00  0.00    +0.023 C 
BRANCH  15  16
ATOM     16  C   UNL     1     -11.978  13.484  64.983  0.00  0.00    +0.028 C 
BRANCH  16  17
ATOM     17  C   UNL     1     -11.128  12.299  64.685  0.00  0.00    -0.022 A 
ATOM     18  C   UNL     1     -10.848  11.474  65.767  0.00  0.00    -0.000 A 
ATOM     19  C   UNL     1     -10.236  10.268  65.563  0.00  0.00    +0.071 A 
ATOM     20  C   UNL     1      -9.812   9.969  64.293  0.00  0.00    +0.004 A 
ATOM     21  C   UNL     1      -9.783  10.956  63.316  0.00  0.00    -0.000 A 
ATOM     22  C   UNL     1     -10.275  12.219  63.617  0.00  0.00    -0.004 A 
BRANCH  19  23
ATOM     23  C   UNL     1     -10.098   9.344  66.717  0.00  0.00    +0.419 C 
ATOM     24  F   UNL     1     -10.157   8.037  66.285  0.00  0.00    -0.166 F 
ATOM     25  F   UNL     1      -8.919   9.630  67.372  0.00  0.00    -0.166 F 
ATOM     26  F   UNL     1     -11.182   9.541  67.562  0.00  0.00    -0.166 F 
ENDBRANCH  19  23
ENDBRANCH  16  17
ENDBRANCH  15  16
ENDBRANCH  14  15
ENDBRANCH   1  14
TORSDOF 7
ENDMDL
MODEL 6
REMARK VINA RESULT:      -6.3      2.313      5.443
REMARK  Name = 
REMARK  7 active torsions:
REMARK  status: ('A' for Active; 'I' for Inactive)
REMARK    1  A    between atoms: C_2  and  N_3
REMARK    2  A    between atoms: C_2  and  C_17
REMARK    3  A    between atoms: N_3  and  C_4
REMARK    4  A    between atoms: C_4  and  C_5
REMARK    5  A    between atoms: C_5  and  C_6
REMARK    6  A    between atoms: C_6  and  C_7
REMARK    7  A    between atoms: C_11  and  C_12
REMARK                            x       y       z     vdW  Elec       q    Type
REMARK                         _______ _______ _______ _____ _____    ______ ____
ROOT
ATOM      1  N   UNL     1      -8.430  11.640  68.465  0.00  0.00    -0.215 NA
ENDROOT
BRANCH   1   3
ATOM      2  C   UNL     1      -6.827  13.083  67.538  0.00  0.00    +0.024 C 
ATOM      3  C   UNL     1      -8.106  12.153  66.977  0.00  0.00    +0.095 C 
BRANCH   3   4
ATOM      4  C   UNL     1      -9.146  13.419  67.141  0.00  0.00    -0.006 A 
ATOM      5  C   UNL     1     -10.222  13.330  66.294  0.00  0.00    -0.003 A 
ATOM      6  C   UNL     1     -10.967  14.483  66.092  0.00  0.00    -0.000 A 
ATOM      7  C   UNL     1     -12.244  14.347  65.597  0.00  0.00    -0.000 A 
ATOM      8  C   UNL     1     -12.642  13.119  65.095  0.00  0.00    -0.000 A 
ATOM      9  C   UNL     1     -11.727  12.107  64.900  0.00  0.00    -0.000 A 
ATOM     10  C   UNL     1     -10.404  15.710  66.414  0.00  0.00    -0.000 A 
ATOM     11  C   UNL     1      -9.091  15.819  66.841  0.00  0.00    -0.000 A 
ATOM     12  C   UNL     1     -10.506  12.247  65.498  0.00  0.00    -0.000 A 
ATOM     13  C   UNL     1      -8.448  14.625  67.142  0.00  0.00    -0.003 A 
ENDBRANCH   3   4
ENDBRANCH   1   3
BRANCH   1  14
ATOM     14  C   UNL     1      -9.255  10.472  68.257  0.00  0.00    +0.089 C 
BRANCH  14  15
ATOM     15  C   UNL     1     -10.334  10.318  69.301  0.00  0.00    +0.023 C 
BRANCH  15  16
ATOM     16  C   UNL     1     -11.616  10.931  68.749  0.00  0.00    +0.028 C 
BRANCH  16  17
ATOM     17  C   UNL     1     -12.072  11.894  69.789  0.00  0.00    -0.022 A 
ATOM     18  C   UNL     1     -11.592  13.191  69.657  0.00  0.00    -0.000 A 
ATOM     19  C   UNL     1     -12.097  14.187  70.446  0.00  0.00    +0.071 A 
ATOM     20  C   UNL     1     -12.987  13.838  71.431  0.00  0.00    +0.004 A 
ATOM     21  C   UNL     1     -13.168  12.503  71.768  0.00  0.00    -0.000 A 
ATOM     22  C   UNL     1     -12.509  11.526  71.033  0.00  0.00    -0.004 A 
BRANCH  19  23
ATOM     23  C   UNL     1     -11.681  15.585  70.171  0.00  0.00    +0.419 C 
ATOM     24  F   UNL     1     -10.309  15.659  70.069  0.00  0.00    -0.166 F 
ATOM     25  F   UNL     1     -12.319  16.019  69.028  0.00  0.00    -0.166 F 
ATOM     26  F   UNL     1     -12.049  16.368  71.258  0.00  0.00    -0.166 F 
ENDBRANCH  19  23
ENDBRANCH  16  17
ENDBRANCH  15  16
ENDBRANCH  14  15
ENDBRANCH   1  14
TORSDOF 7
ENDMDL
MODEL 7
REMARK VINA RESULT:      -6.3      3.528      5.753
REMARK  Name = 
REMARK  7 active torsions:
REMARK  status: ('A' for Active; 'I' for Inactive)
REMARK    1  A    between atoms: C_2  and  N_3
REMARK    2  A    between atoms: C_2  and  C_17
REMARK    3  A    between atoms: N_3  and  C_4
REMARK    4  A    between atoms: C_4  and  C_5
REMARK    5  A    between atoms: C_5  and  C_6
REMARK    6  A    between atoms: C_6  and  C_7
REMARK    7  A    between atoms: C_11  and  C_12
REMARK                            x       y       z     vdW  Elec       q    Type
REMARK                         _______ _______ _______ _____ _____    ______ ____
ROOT
ATOM      1  N   UNL     1     -10.881   8.744  68.841  0.00  0.00    -0.215 NA
ENDROOT
BRANCH   1   3
ATOM      2  C   UNL     1     -10.927   9.560  71.042  0.00  0.00    +0.024 C 
ATOM      3  C   UNL     1      -9.979   9.780  69.676  0.00  0.00    +0.095 C 
BRANCH   3   4
ATOM      4  C   UNL     1     -10.909  11.048  69.189  0.00  0.00    -0.006 A 
ATOM      5  C   UNL     1     -10.187  12.003  68.517  0.00  0.00    -0.003 A 
ATOM      6  C   UNL     1     -10.774  13.252  68.369  0.00  0.00    -0.000 A 
ATOM      7  C   UNL     1     -10.285  14.081  67.385  0.00  0.00    -0.000 A 
ATOM      8  C   UNL     1      -9.094  13.750  66.759  0.00  0.00    -0.000 A 
ATOM      9  C   UNL     1      -8.303  12.730  67.243  0.00  0.00    -0.000 A 
ATOM     10  C   UNL     1     -11.831  13.599  69.198  0.00  0.00    -0.000 A 
ATOM     11  C   UNL     1     -12.252  12.772  70.227  0.00  0.00    -0.000 A 
ATOM     12  C   UNL     1      -8.872  11.873  68.144  0.00  0.00    -0.000 A 
ATOM     13  C   UNL     1     -11.712  11.492  70.237  0.00  0.00    -0.003 A 
ENDBRANCH   3   4
ENDBRANCH   1   3
BRANCH   1  14
ATOM     14  C   UNL     1      -9.939   8.097  67.958  0.00  0.00    +0.089 C 
BRANCH  14  15
ATOM     15  C   UNL     1     -10.177   8.418  66.503  0.00  0.00    +0.023 C 
BRANCH  15  16
ATOM     16  C   UNL     1      -8.897   9.020  65.936  0.00  0.00    +0.028 C 
BRANCH  16  17
ATOM     17  C   UNL     1      -9.339   9.944  64.856  0.00  0.00    -0.022 A 
ATOM     18  C   UNL     1     -10.545  10.597  65.081  0.00  0.00    -0.000 A 
ATOM     19  C   UNL     1     -10.944  11.600  64.242  0.00  0.00    +0.071 A 
ATOM     20  C   UNL     1     -10.181  11.847  63.128  0.00  0.00    +0.004 A 
ATOM     21  C   UNL     1      -9.193  10.949  62.745  0.00  0.00    -0.000 A 
ATOM     22  C   UNL     1      -8.927   9.852  63.554  0.00  0.00    -0.004 A 
BRANCH  19  23
ATOM     23  C   UNL     1     -12.153  12.382  64.602  0.00  0.00    +0.419 C 
ATOM     24  F   UNL     1     -11.905  13.729  64.459  0.00  0.00    -0.166 F 
ATOM     25  F   UNL     1     -13.205  11.954  63.820  0.00  0.00    -0.166 F 
ATOM     26  F   UNL     1     -12.428  12.161  65.946  0.00  0.00    -0.166 F 
ENDBRANCH  19  23
ENDBRANCH  16  17
ENDBRANCH  15  16
ENDBRANCH  14  15
ENDBRANCH   1  14
TORSDOF 7
ENDMDL
MODEL 8
REMARK VINA RESULT:      -6.3      3.745      5.614
REMARK  Name = 
REMARK  7 active torsions:
REMARK  status: ('A' for Active; 'I' for Inactive)
REMARK    1  A    between atoms: C_2  and  N_3
REMARK    2  A    between atoms: C_2  and  C_17
REMARK    3  A    between atoms: N_3  and  C_4
REMARK    4  A    between atoms: C_4  and  C_5
REMARK    5  A    between atoms: C_5  and  C_6
REMARK    6  A    between atoms: C_6  and  C_7
REMARK    7  A    between atoms: C_11  and  C_12
REMARK                            x       y       z     vdW  Elec       q    Type
REMARK                         _______ _______ _______ _____ _____    ______ ____
ROOT
ATOM      1  N   UNL     1     -10.487   9.922  67.825  0.00  0.00    -0.215 NA
ENDROOT
BRANCH   1   3
ATOM      2  C   UNL     1      -8.548   8.750  68.442  0.00  0.00    +0.024 C 
ATOM      3  C   UNL     1      -9.668   9.744  69.197  0.00  0.00    +0.095 C 
BRANCH   3   4
ATOM      4  C   UNL     1     -10.587   8.446  69.625  0.00  0.00    -0.006 A 
ATOM      5  C   UNL     1     -11.532   8.759  70.570  0.00  0.00    -0.003 A 
ATOM      6  C   UNL     1     -12.118   7.703  71.254  0.00  0.00    -0.000 A 
ATOM      7  C   UNL     1     -13.317   7.932  71.889  0.00  0.00    -0.000 A 
ATOM      8  C   UNL     1     -13.761   9.237  72.033  0.00  0.00    -0.000 A 
ATOM      9  C   UNL     1     -12.936  10.300  71.736  0.00  0.00    -0.000 A 
ATOM     10  C   UNL     1     -11.485   6.468  71.249  0.00  0.00    -0.000 A 
ATOM     11  C   UNL     1     -10.243   6.287  70.662  0.00  0.00    -0.000 A 
ATOM     12  C   UNL     1     -11.807  10.029  71.014  0.00  0.00    -0.000 A 
ATOM     13  C   UNL     1      -9.777   7.345  69.891  0.00  0.00    -0.003 A 
ENDBRANCH   3   4
ENDBRANCH   1   3
BRANCH   1  14
ATOM     14  C   UNL     1     -10.148  11.258  67.391  0.00  0.00    +0.089 C 
BRANCH  14  15
ATOM     15  C   UNL     1     -10.276  12.286  68.487  0.00  0.00    +0.023 C 
BRANCH  15  16
ATOM     16  C   UNL     1     -11.731  12.741  68.540  0.00  0.00    +0.028 C 
BRANCH  16  17
ATOM     17  C   UNL     1     -11.739  13.936  69.426  0.00  0.00    -0.022 A 
ATOM     18  C   UNL     1     -12.567  13.853  70.539  0.00  0.00    -0.000 A 
ATOM     19  C   UNL     1     -12.505  14.815  71.508  0.00  0.00    +0.071 A 
ATOM     20  C   UNL     1     -11.698  15.902  71.283  0.00  0.00    +0.004 A 
ATOM     21  C   UNL     1     -11.168  16.129  70.020  0.00  0.00    -0.000 A 
ATOM     22  C   UNL     1     -11.390  15.195  69.016  0.00  0.00    -0.004 A 
BRANCH  19  23
ATOM     23  C   UNL     1     -13.284  14.612  72.756  0.00  0.00    +0.419 C 
ATOM     24  F   UNL     1     -12.433  14.525  73.835  0.00  0.00    -0.166 F 
ATOM     25  F   UNL     1     -14.192  15.642  72.881  0.00  0.00    -0.166 F 
ATOM     26  F   UNL     1     -13.944  13.393  72.660  0.00  0.00    -0.166 F 
ENDBRANCH  19  23
ENDBRANCH  16  17
ENDBRANCH  15  16
ENDBRANCH  14  15
ENDBRANCH   1  14
TORSDOF 7
ENDMDL
MODEL 9
REMARK VINA RESULT:      -6.2      3.382      5.715
REMARK  Name = 
REMARK  7 active torsions:
REMARK  status: ('A' for Active; 'I' for Inactive)
REMARK    1  A    between atoms: C_2  and  N_3
REMARK    2  A    between atoms: C_2  and  C_17
REMARK    3  A    between atoms: N_3  and  C_4
REMARK    4  A    between atoms: C_4  and  C_5
REMARK    5  A    between atoms: C_5  and  C_6
REMARK    6  A    between atoms: C_6  and  C_7
REMARK    7  A    between atoms: C_11  and  C_12
REMARK                            x       y       z     vdW  Elec       q    Type
REMARK                         _______ _______ _______ _____ _____    ______ ____
ROOT
ATOM      1  N   UNL     1     -11.750  11.870  66.555  0.00  0.00    -0.215 NA
ENDROOT
BRANCH   1   3
ATOM      2  C   UNL     1      -9.698  11.349  65.539  0.00  0.00    +0.024 C 
ATOM      3  C   UNL     1     -10.283  11.508  67.104  0.00  0.00    +0.095 C 
BRANCH   3   4
ATOM      4  C   UNL     1     -10.656   9.906  67.167  0.00  0.00    -0.006 A 
ATOM      5  C   UNL     1     -10.588   9.399  68.441  0.00  0.00    -0.003 A 
ATOM      6  C   UNL     1     -10.536   8.018  68.571  0.00  0.00    -0.000 A 
ATOM      7  C   UNL     1     -10.871   7.473  69.789  0.00  0.00    -0.000 A 
ATOM      8  C   UNL     1     -11.002   8.310  70.886  0.00  0.00    -0.000 A 
ATOM      9  C   UNL     1     -10.607   9.629  70.818  0.00  0.00    -0.000 A 
ATOM     10  C   UNL     1     -10.172   7.254  67.471  0.00  0.00    -0.000 A 
ATOM     11  C   UNL     1      -9.770   7.836  66.280  0.00  0.00    -0.000 A 
ATOM     12  C   UNL     1     -10.385  10.149  69.573  0.00  0.00    -0.000 A 
ATOM     13  C   UNL     1      -9.967   9.207  66.177  0.00  0.00    -0.003 A 
ENDBRANCH   3   4
ENDBRANCH   1   3
BRANCH   1  14
ATOM     14  C   UNL     1     -11.986  13.206  67.052  0.00  0.00    +0.089 C 
BRANCH  14  15
ATOM     15  C   UNL     1     -11.056  13.590  68.176  0.00  0.00    +0.023 C 
BRANCH  15  16
ATOM     16  C   UNL     1     -11.645  14.807  68.881  0.00  0.00    +0.028 C 
BRANCH  16  17
ATOM     17  C   UNL     1     -12.189  14.294  70.168  0.00  0.00    -0.022 A 
ATOM     18  C   UNL     1     -12.166  15.190  71.229  0.00  0.00    -0.000 A 
ATOM     19  C   UNL     1     -12.809  14.882  72.396  0.00  0.00    +0.071 A 
ATOM     20  C   UNL     1     -13.361  13.631  72.513  0.00  0.00    +0.004 A 
ATOM     21  C   UNL     1     -13.058  12.643  71.585  0.00  0.00    -0.000 A 
ATOM     22  C   UNL     1     -12.267  12.966  70.490  0.00  0.00    -0.004 A 
BRANCH  19  23
ATOM     23  C   UNL     1     -12.901  15.924  73.448  0.00  0.00    +0.419 C 
ATOM     24  F   UNL     1     -11.902  16.857  73.278  0.00  0.00    -0.166 F 
ATOM     25  F   UNL     1     -14.159  16.486  73.405  0.00  0.00    -0.166 F 
ATOM     26  F   UNL     1     -12.683  15.317  74.679  0.00  0.00    -0.166 F 
ENDBRANCH  19  23
ENDBRANCH  16  17
ENDBRANCH  15  16
ENDBRANCH  14  15
ENDBRANCH   1  14
TORSDOF 7
ENDMDL
