MODEL 1
REMARK VINA RESULT:      -4.9      0.000      0.000
REMARK  Name = 
REMARK  1 active torsions:
REMARK  status: ('A' for Active; 'I' for Inactive)
REMARK    1  A    between atoms: C_2  and  C_4
REMARK                            x       y       z     vdW  Elec       q    Type
REMARK                         _______ _______ _______ _____ _____    ______ ____
ROOT
ATOM      1  C   UNL     1     -11.257  14.441  64.928  0.00  0.00    +0.160 A 
ATOM      2  N   UNL     1     -10.411  13.487  64.465  0.00  0.00    -0.236 NA
ATOM      3  C   UNL     1     -10.902  12.437  63.764  0.00  0.00    +0.120 A 
ATOM      4  C   UNL     1     -12.269  12.188  63.713  0.00  0.00    +0.120 A 
ATOM      5  N   UNL     1     -13.007  12.820  64.660  0.00  0.00    -0.239 NA
ATOM      6  C   UNL     1     -12.541  13.980  65.166  0.00  0.00    +0.123 A 
ENDROOT
BRANCH   1   8
ATOM      7  N   UNL     1      -9.964  16.330  65.571  0.00  0.00    -0.101 NA
ATOM      8  C   UNL     1     -10.920  15.851  64.864  0.00  0.00    +0.316 C 
ATOM      9  O   UNL     1     -11.625  16.624  63.937  0.00  0.00    -0.262 OA
ENDBRANCH   1   8
TORSDOF 1
ENDMDL
MODEL 2
REMARK VINA RESULT:      -4.2      1.546      1.754
REMARK  Name = 
REMARK  1 active torsions:
REMARK  status: ('A' for Active; 'I' for Inactive)
REMARK    1  A    between atoms: C_2  and  C_4
REMARK                            x       y       z     vdW  Elec       q    Type
REMARK                         _______ _______ _______ _____ _____    ______ ____
ROOT
ATOM      1  C   UNL     1     -11.569  14.789  65.684  0.00  0.00    +0.160 A 
ATOM      2  N   UNL     1     -11.188  14.348  66.909  0.00  0.00    -0.236 NA
ATOM      3  C   UNL     1     -11.088  13.017  67.142  0.00  0.00    +0.120 A 
ATOM      4  C   UNL     1     -11.595  12.093  66.236  0.00  0.00    +0.120 A 
ATOM      5  N   UNL     1     -12.472  12.593  65.329  0.00  0.00    -0.239 NA
ATOM      6  C   UNL     1     -12.372  13.896  64.994  0.00  0.00    +0.123 A 
ENDROOT
BRANCH   1   8
ATOM      7  N   UNL     1      -9.786  16.346  65.457  0.00  0.00    -0.101 NA
ATOM      8  C   UNL     1     -10.930  15.929  65.055  0.00  0.00    +0.316 C 
ATOM      9  O   UNL     1     -11.580  16.482  63.948  0.00  0.00    -0.262 OA
ENDBRANCH   1   8
TORSDOF 1
ENDMDL
MODEL 3
REMARK VINA RESULT:      -4.0      2.107      3.512
REMARK  Name = 
REMARK  1 active torsions:
REMARK  status: ('A' for Active; 'I' for Inactive)
REMARK    1  A    between atoms: C_2  and  C_4
REMARK                            x       y       z     vdW  Elec       q    Type
REMARK                         _______ _______ _______ _____ _____    ______ ____
ROOT
ATOM      1  C   UNL     1     -11.392  14.025  64.984  0.00  0.00    +0.160 A 
ATOM      2  N   UNL     1     -10.144  14.232  65.472  0.00  0.00    -0.236 NA
ATOM      3  C   UNL     1      -9.744  15.488  65.782  0.00  0.00    +0.120 A 
ATOM      4  C   UNL     1     -10.490  16.593  65.389  0.00  0.00    +0.120 A 
ATOM      5  N   UNL     1     -11.404  16.357  64.414  0.00  0.00    -0.239 NA
ATOM      6  C   UNL     1     -11.912  15.112  64.302  0.00  0.00    +0.123 A 
ENDROOT
BRANCH   1   8
ATOM      7  N   UNL     1     -11.988  12.338  66.550  0.00  0.00    -0.101 NA
ATOM      8  C   UNL     1     -12.201  12.901  65.418  0.00  0.00    +0.316 C 
ATOM      9  O   UNL     1     -13.262  12.532  64.587  0.00  0.00    -0.262 OA
ENDBRANCH   1   8
TORSDOF 1
ENDMDL
MODEL 4
REMARK VINA RESULT:      -4.0      6.019      6.726
REMARK  Name = 
REMARK  1 active torsions:
REMARK  status: ('A' for Active; 'I' for Inactive)
REMARK    1  A    between atoms: C_2  and  C_4
REMARK                            x       y       z     vdW  Elec       q    Type
REMARK                         _______ _______ _______ _____ _____    ______ ____
ROOT
ATOM      1  C   UNL     1     -12.735  14.694  70.929  0.00  0.00    +0.160 A 
ATOM      2  N   UNL     1     -12.321  15.860  70.373  0.00  0.00    -0.236 NA
ATOM      3  C   UNL     1     -11.910  15.880  69.082  0.00  0.00    +0.120 A 
ATOM      4  C   UNL     1     -11.675  14.698  68.389  0.00  0.00    +0.120 A 
ATOM      5  N   UNL     1     -11.543  13.590  69.162  0.00  0.00    -0.239 NA
ATOM      6  C   UNL     1     -12.161  13.569  70.361  0.00  0.00    +0.123 A 
ENDROOT
BRANCH   1   8
ATOM      7  N   UNL     1     -14.156  13.582  72.478  0.00  0.00    -0.101 NA
ATOM      8  C   UNL     1     -13.895  14.638  71.799  0.00  0.00    +0.316 C 
ATOM      9  O   UNL     1     -14.647  15.809  71.920  0.00  0.00    -0.262 OA
ENDBRANCH   1   8
TORSDOF 1
ENDMDL
MODEL 5
REMARK VINA RESULT:      -4.0      2.167      3.615
REMARK  Name = 
REMARK  1 active torsions:
REMARK  status: ('A' for Active; 'I' for Inactive)
REMARK    1  A    between atoms: C_2  and  C_4
REMARK                            x       y       z     vdW  Elec       q    Type
REMARK                         _______ _______ _______ _____ _____    ______ ____
ROOT
ATOM      1  C   UNL     1     -11.235  15.069  65.808  0.00  0.00    +0.160 A 
ATOM      2  N   UNL     1     -11.715  14.111  66.640  0.00  0.00    -0.236 NA
ATOM      3  C   UNL     1     -11.859  14.379  67.960  0.00  0.00    +0.120 A 
ATOM      4  C   UNL     1     -11.306  15.524  68.522  0.00  0.00    +0.120 A 
ATOM      5  N   UNL     1     -10.354  16.134  67.770  0.00  0.00    -0.239 NA
ATOM      6  C   UNL     1     -10.402  15.983  66.431  0.00  0.00    +0.123 A 
ENDROOT
BRANCH   1   8
ATOM      7  N   UNL     1     -12.517  14.379  63.927  0.00  0.00    -0.101 NA
ATOM      8  C   UNL     1     -11.803  15.284  64.490  0.00  0.00    +0.316 C 
ATOM      9  O   UNL     1     -11.605  16.543  63.918  0.00  0.00    -0.262 OA
ENDBRANCH   1   8
TORSDOF 1
ENDMDL
MODEL 6
REMARK VINA RESULT:      -3.9      6.577      7.323
REMARK  Name = 
REMARK  1 active torsions:
REMARK  status: ('A' for Active; 'I' for Inactive)
REMARK    1  A    between atoms: C_2  and  C_4
REMARK                            x       y       z     vdW  Elec       q    Type
REMARK                         _______ _______ _______ _____ _____    ______ ____
ROOT
ATOM      1  C   UNL     1     -12.701  15.537  70.851  0.00  0.00    +0.160 A 
ATOM      2  N   UNL     1     -12.111  16.315  71.792  0.00  0.00    -0.236 NA
ATOM      3  C   UNL     1     -12.051  15.887  73.076  0.00  0.00    +0.120 A 
ATOM      4  C   UNL     1     -12.787  14.785  73.497  0.00  0.00    +0.120 A 
ATOM      5  N   UNL     1     -13.794  14.411  72.667  0.00  0.00    -0.239 NA
ATOM      6  C   UNL     1     -13.681  14.697  71.354  0.00  0.00    +0.123 A 
ENDROOT
BRANCH   1   8
ATOM      7  N   UNL     1     -11.608  16.383  68.916  0.00  0.00    -0.101 NA
ATOM      8  C   UNL     1     -12.130  15.383  69.526  0.00  0.00    +0.316 C 
ATOM      9  O   UNL     1     -12.101  14.089  69.000  0.00  0.00    -0.262 OA
ENDBRANCH   1   8
TORSDOF 1
ENDMDL
MODEL 7
REMARK VINA RESULT:      -3.8      2.413      4.211
REMARK  Name = 
REMARK  1 active torsions:
REMARK  status: ('A' for Active; 'I' for Inactive)
REMARK    1  A    between atoms: C_2  and  C_4
REMARK                            x       y       z     vdW  Elec       q    Type
REMARK                         _______ _______ _______ _____ _____    ______ ____
ROOT
ATOM      1  C   UNL     1     -11.139  14.530  66.249  0.00  0.00    +0.160 A 
ATOM      2  N   UNL     1     -10.964  14.993  67.512  0.00  0.00    -0.236 NA
ATOM      3  C   UNL     1     -10.655  16.296  67.713  0.00  0.00    +0.120 A 
ATOM      4  C   UNL     1     -10.278  17.112  66.653  0.00  0.00    +0.120 A 
ATOM      5  N   UNL     1      -9.908  16.459  65.522  0.00  0.00    -0.239 NA
ATOM      6  C   UNL     1     -10.427  15.235  65.293  0.00  0.00    +0.123 A 
ENDROOT
BRANCH   1   8
ATOM      7  N   UNL     1     -13.146  13.948  65.114  0.00  0.00    -0.101 NA
ATOM      8  C   UNL     1     -12.209  13.606  65.920  0.00  0.00    +0.316 C 
ATOM      9  O   UNL     1     -12.112  12.318  66.451  0.00  0.00    -0.262 OA
ENDBRANCH   1   8
TORSDOF 1
ENDMDL
MODEL 8
REMARK VINA RESULT:      -3.8      3.054      5.463
REMARK  Name = 
REMARK  1 active torsions:
REMARK  status: ('A' for Active; 'I' for Inactive)
REMARK    1  A    between atoms: C_2  and  C_4
REMARK                            x       y       z     vdW  Elec       q    Type
REMARK                         _______ _______ _______ _____ _____    ______ ____
ROOT
ATOM      1  C   UNL     1     -10.472  17.676  66.306  0.00  0.00    +0.160 A 
ATOM      2  N   UNL     1     -10.164  18.930  65.893  0.00  0.00    -0.236 NA
ATOM      3  C   UNL     1      -9.302  19.683  66.618  0.00  0.00    +0.120 A 
ATOM      4  C   UNL     1      -8.914  19.295  67.895  0.00  0.00    +0.120 A 
ATOM      5  N   UNL     1      -9.697  18.351  68.476  0.00  0.00    -0.239 NA
ATOM      6  C   UNL     1     -10.371  17.498  67.676  0.00  0.00    +0.123 A 
ENDROOT
BRANCH   1   8
ATOM      7  N   UNL     1     -10.086  15.423  65.652  0.00  0.00    -0.101 NA
ATOM      8  C   UNL     1     -10.578  16.572  65.370  0.00  0.00    +0.316 C 
ATOM      9  O   UNL     1     -11.312  16.807  64.204  0.00  0.00    -0.262 OA
ENDBRANCH   1   8
TORSDOF 1
ENDMDL
MODEL 9
REMARK VINA RESULT:      -3.7      2.152      3.521
REMARK  Name = 
REMARK  1 active torsions:
REMARK  status: ('A' for Active; 'I' for Inactive)
REMARK    1  A    between atoms: C_2  and  C_4
REMARK                            x       y       z     vdW  Elec       q    Type
REMARK                         _______ _______ _______ _____ _____    ______ ____
ROOT
ATOM      1  C   UNL     1     -11.864  13.868  64.855  0.00  0.00    +0.160 A 
ATOM      2  N   UNL     1     -11.166  15.010  64.638  0.00  0.00    -0.236 NA
ATOM      3  C   UNL     1     -10.532  15.616  65.669  0.00  0.00    +0.120 A 
ATOM      4  C   UNL     1     -10.774  15.232  66.983  0.00  0.00    +0.120 A 
ATOM      5  N   UNL     1     -11.900  14.497  67.172  0.00  0.00    -0.239 NA
ATOM      6  C   UNL     1     -12.357  13.751  66.144  0.00  0.00    +0.123 A 
ENDROOT
BRANCH   1   8
ATOM      7  N   UNL     1     -12.888  12.212  63.489  0.00  0.00    -0.101 NA
ATOM      8  C   UNL     1     -11.811  12.756  63.924  0.00  0.00    +0.316 C 
ATOM      9  O   UNL     1     -10.545  12.378  63.469  0.00  0.00    -0.262 OA
ENDBRANCH   1   8
TORSDOF 1
ENDMDL
