MODEL 1
REMARK VINA RESULT:      -6.8      0.000      0.000
REMARK  Name = 
REMARK  4 active torsions:
REMARK  status: ('A' for Active; 'I' for Inactive)
REMARK    1  A    between atoms: N_2  and  C_3
REMARK    2  A    between atoms: C_3  and  C_4
REMARK    3  A    between atoms: C_4  and  C_5
REMARK    4  A    between atoms: C_5  and  C_6
REMARK                            x       y       z     vdW  Elec       q    Type
REMARK                         _______ _______ _______ _____ _____    ______ ____
ROOT
ATOM      1  C   UNL     1     -11.420  14.676  69.040  0.00  0.00    +0.045 C 
ATOM      2  C   UNL     1     -11.632  13.769  67.905  0.00  0.00    -0.018 A 
ATOM      3  C   UNL     1     -11.400  12.399  67.931  0.00  0.00    -0.004 A 
ATOM      4  C   UNL     1     -11.467  11.707  66.747  0.00  0.00    -0.000 A 
ATOM      5  C   UNL     1     -11.858  12.386  65.599  0.00  0.00    -0.000 A 
ATOM      6  C   UNL     1     -12.481  13.625  65.675  0.00  0.00    -0.000 A 
ATOM      7  C   UNL     1     -11.532  11.556  69.127  0.00  0.00    -0.000 C 
ATOM      8  C   UNL     1     -11.869  11.880  70.377  0.00  0.00    -0.000 C 
ATOM      9  C   UNL     1     -12.443  13.168  70.788  0.00  0.00    -0.004 A 
ATOM     10  C   UNL     1     -13.453  13.034  71.735  0.00  0.00    -0.000 A 
ATOM     11  C   UNL     1     -14.170  14.131  72.181  0.00  0.00    -0.000 A 
ATOM     12  C   UNL     1     -13.563  15.366  71.984  0.00  0.00    -0.000 A 
ATOM     13  C   UNL     1     -12.717  15.509  70.891  0.00  0.00    -0.004 A 
ATOM     14  C   UNL     1     -12.135  14.402  66.775  0.00  0.00    -0.004 A 
ATOM     15  C   UNL     1     -12.344  14.402  70.153  0.00  0.00    -0.018 A 
ENDROOT
BRANCH   1  16
ATOM     16  C   UNL     1     -11.283  16.115  68.685  0.00  0.00    +0.010 C 
BRANCH  16  17
ATOM     17  C   UNL     1      -9.799  16.445  68.816  0.00  0.00    +0.019 C 
BRANCH  17  18
ATOM     18  C   UNL     1      -9.475  17.775  68.160  0.00  0.00    +0.089 C 
BRANCH  18  20
ATOM     19  C   UNL     1     -10.528  19.287  66.605  0.00  0.00    +0.107 C 
ATOM     20  N   UNL     1     -10.662  18.530  67.838  0.00  0.00    -0.217 NA
ENDBRANCH  18  20
ENDBRANCH  17  18
ENDBRANCH  16  17
ENDBRANCH   1  16
TORSDOF 4
ENDMDL
MODEL 2
REMARK VINA RESULT:      -6.7      2.529      5.132
REMARK  Name = 
REMARK  4 active torsions:
REMARK  status: ('A' for Active; 'I' for Inactive)
REMARK    1  A    between atoms: N_2  and  C_3
REMARK    2  A    between atoms: C_3  and  C_4
REMARK    3  A    between atoms: C_4  and  C_5
REMARK    4  A    between atoms: C_5  and  C_6
REMARK                            x       y       z     vdW  Elec       q    Type
REMARK                         _______ _______ _______ _____ _____    ______ ____
ROOT
ATOM      1  C   UNL     1     -11.905  12.926  69.319  0.00  0.00    +0.045 C 
ATOM      2  C   UNL     1     -12.213  13.772  70.478  0.00  0.00    -0.018 A 
ATOM      3  C   UNL     1     -13.129  13.449  71.474  0.00  0.00    -0.004 A 
ATOM      4  C   UNL     1     -13.448  14.413  72.398  0.00  0.00    -0.000 A 
ATOM      5  C   UNL     1     -12.773  15.627  72.356  0.00  0.00    -0.000 A 
ATOM      6  C   UNL     1     -11.593  15.767  71.638  0.00  0.00    -0.000 A 
ATOM      7  C   UNL     1     -13.443  12.080  71.902  0.00  0.00    -0.000 C 
ATOM      8  C   UNL     1     -12.972  10.910  71.464  0.00  0.00    -0.000 C 
ATOM      9  C   UNL     1     -11.803  10.747  70.589  0.00  0.00    -0.004 A 
ATOM     10  C   UNL     1     -11.002   9.669  70.951  0.00  0.00    -0.000 A 
ATOM     11  C   UNL     1      -9.810   9.407  70.295  0.00  0.00    -0.000 A 
ATOM     12  C   UNL     1      -9.683   9.974  69.032  0.00  0.00    -0.000 A 
ATOM     13  C   UNL     1     -10.342  11.172  68.787  0.00  0.00    -0.004 A 
ATOM     14  C   UNL     1     -11.466  14.942  70.526  0.00  0.00    -0.004 A 
ATOM     15  C   UNL     1     -11.248  11.667  69.705  0.00  0.00    -0.018 A 
ENDROOT
BRANCH   1  16
ATOM     16  C   UNL     1     -11.271  13.632  68.170  0.00  0.00    +0.010 C 
BRANCH  16  17
ATOM     17  C   UNL     1     -12.319  13.662  67.061  0.00  0.00    +0.019 C 
BRANCH  17  18
ATOM     18  C   UNL     1     -11.819  12.950  65.818  0.00  0.00    +0.089 C 
BRANCH  18  20
ATOM     19  C   UNL     1     -12.403  12.189  63.607  0.00  0.00    +0.107 C 
ATOM     20  N   UNL     1     -12.888  12.631  64.903  0.00  0.00    -0.217 NA
ENDBRANCH  18  20
ENDBRANCH  17  18
ENDBRANCH  16  17
ENDBRANCH   1  16
TORSDOF 4
ENDMDL
MODEL 3
REMARK VINA RESULT:      -6.3      2.636      6.329
REMARK  Name = 
REMARK  4 active torsions:
REMARK  status: ('A' for Active; 'I' for Inactive)
REMARK    1  A    between atoms: N_2  and  C_3
REMARK    2  A    between atoms: C_3  and  C_4
REMARK    3  A    between atoms: C_4  and  C_5
REMARK    4  A    between atoms: C_5  and  C_6
REMARK                            x       y       z     vdW  Elec       q    Type
REMARK                         _______ _______ _______ _____ _____    ______ ____
ROOT
ATOM      1  C   UNL     1     -11.730  12.762  69.777  0.00  0.00    +0.045 C 
ATOM      2  C   UNL     1     -12.223  13.719  70.773  0.00  0.00    -0.018 A 
ATOM      3  C   UNL     1     -11.573  14.894  71.134  0.00  0.00    -0.004 A 
ATOM      4  C   UNL     1     -12.057  15.600  72.207  0.00  0.00    -0.000 A 
ATOM      5  C   UNL     1     -13.226  15.165  72.820  0.00  0.00    -0.000 A 
ATOM      6  C   UNL     1     -14.070  14.258  72.192  0.00  0.00    -0.000 A 
ATOM      7  C   UNL     1     -10.717  15.680  70.236  0.00  0.00    -0.000 C 
ATOM      8  C   UNL     1     -10.377  15.465  68.963  0.00  0.00    -0.000 C 
ATOM      9  C   UNL     1     -11.012  14.483  68.075  0.00  0.00    -0.004 A 
ATOM     10  C   UNL     1     -11.197  14.961  66.782  0.00  0.00    -0.000 A 
ATOM     11  C   UNL     1     -11.857  14.208  65.825  0.00  0.00    -0.000 A 
ATOM     12  C   UNL     1     -11.925  12.843  66.076  0.00  0.00    -0.000 A 
ATOM     13  C   UNL     1     -11.948  12.425  67.402  0.00  0.00    -0.004 A 
ATOM     14  C   UNL     1     -13.452  13.369  71.320  0.00  0.00    -0.004 A 
ATOM     15  C   UNL     1     -11.709  13.329  68.419  0.00  0.00    -0.018 A 
ENDROOT
BRANCH   1  16
ATOM     16  C   UNL     1     -12.310  11.394  69.871  0.00  0.00    +0.010 C 
BRANCH  16  17
ATOM     17  C   UNL     1     -11.197  10.496  70.402  0.00  0.00    +0.019 C 
BRANCH  17  18
ATOM     18  C   UNL     1     -11.727   9.524  71.439  0.00  0.00    +0.089 C 
BRANCH  18  20
ATOM     19  C   UNL     1     -13.892   8.734  72.146  0.00  0.00    +0.107 C 
ATOM     20  N   UNL     1     -13.042   9.888  71.909  0.00  0.00    -0.217 NA
ENDBRANCH  18  20
ENDBRANCH  17  18
ENDBRANCH  16  17
ENDBRANCH   1  16
TORSDOF 4
ENDMDL
MODEL 4
REMARK VINA RESULT:      -6.2      2.136      3.344
REMARK  Name = 
REMARK  4 active torsions:
REMARK  status: ('A' for Active; 'I' for Inactive)
REMARK    1  A    between atoms: N_2  and  C_3
REMARK    2  A    between atoms: C_3  and  C_4
REMARK    3  A    between atoms: C_4  and  C_5
REMARK    4  A    between atoms: C_5  and  C_6
REMARK                            x       y       z     vdW  Elec       q    Type
REMARK                         _______ _______ _______ _____ _____    ______ ____
ROOT
ATOM      1  C   UNL     1     -11.373  12.842  69.065  0.00  0.00    +0.045 C 
ATOM      2  C   UNL     1     -11.187  12.445  67.664  0.00  0.00    -0.018 A 
ATOM      3  C   UNL     1     -10.236  11.535  67.217  0.00  0.00    -0.004 A 
ATOM      4  C   UNL     1     -10.056  11.397  65.863  0.00  0.00    -0.000 A 
ATOM      5  C   UNL     1     -10.894  12.097  65.004  0.00  0.00    -0.000 A 
ATOM      6  C   UNL     1     -12.083  12.655  65.458  0.00  0.00    -0.000 A 
ATOM      7  C   UNL     1      -9.732  10.403  68.007  0.00  0.00    -0.000 C 
ATOM      8  C   UNL     1     -10.034  10.017  69.249  0.00  0.00    -0.000 C 
ATOM      9  C   UNL     1     -11.168  10.520  70.036  0.00  0.00    -0.004 A 
ATOM     10  C   UNL     1     -11.809   9.522  70.761  0.00  0.00    -0.000 A 
ATOM     11  C   UNL     1     -12.952   9.789  71.497  0.00  0.00    -0.000 A 
ATOM     12  C   UNL     1     -13.157  11.125  71.823  0.00  0.00    -0.000 A 
ATOM     13  C   UNL     1     -12.673  12.090  70.948  0.00  0.00    -0.004 A 
ATOM     14  C   UNL     1     -12.091  13.041  66.794  0.00  0.00    -0.004 A 
ATOM     15  C   UNL     1     -11.846  11.727  69.902  0.00  0.00    -0.018 A 
ENDROOT
BRANCH   1  16
ATOM     16  C   UNL     1     -12.098  14.126  69.269  0.00  0.00    +0.010 C 
BRANCH  16  17
ATOM     17  C   UNL     1     -11.104  15.073  69.935  0.00  0.00    +0.019 C 
BRANCH  17  18
ATOM     18  C   UNL     1     -11.734  15.781  71.120  0.00  0.00    +0.089 C 
BRANCH  18  20
ATOM     19  C   UNL     1     -13.735  15.531  72.440  0.00  0.00    +0.107 C 
ATOM     20  N   UNL     1     -13.174  15.690  71.109  0.00  0.00    -0.217 NA
ENDBRANCH  18  20
ENDBRANCH  17  18
ENDBRANCH  16  17
ENDBRANCH   1  16
TORSDOF 4
ENDMDL
MODEL 5
REMARK VINA RESULT:      -6.1      1.695      2.679
REMARK  Name = 
REMARK  4 active torsions:
REMARK  status: ('A' for Active; 'I' for Inactive)
REMARK    1  A    between atoms: N_2  and  C_3
REMARK    2  A    between atoms: C_3  and  C_4
REMARK    3  A    between atoms: C_4  and  C_5
REMARK    4  A    between atoms: C_5  and  C_6
REMARK                            x       y       z     vdW  Elec       q    Type
REMARK                         _______ _______ _______ _____ _____    ______ ____
ROOT
ATOM      1  C   UNL     1     -11.051  13.381  67.280  0.00  0.00    +0.045 C 
ATOM      2  C   UNL     1     -11.190  12.627  66.029  0.00  0.00    -0.018 A 
ATOM      3  C   UNL     1     -10.430  11.516  65.684  0.00  0.00    -0.004 A 
ATOM      4  C   UNL     1     -10.544  11.023  64.408  0.00  0.00    -0.000 A 
ATOM      5  C   UNL     1     -11.481  11.592  63.554  0.00  0.00    -0.000 A 
ATOM      6  C   UNL     1     -12.501  12.398  64.043  0.00  0.00    -0.000 A 
ATOM      7  C   UNL     1      -9.868  10.561  66.648  0.00  0.00    -0.000 C 
ATOM      8  C   UNL     1      -9.940  10.539  67.981  0.00  0.00    -0.000 C 
ATOM      9  C   UNL     1     -10.842  11.369  68.790  0.00  0.00    -0.004 A 
ATOM     10  C   UNL     1     -11.400  10.677  69.860  0.00  0.00    -0.000 A 
ATOM     11  C   UNL     1     -12.341  11.269  70.687  0.00  0.00    -0.000 A 
ATOM     12  C   UNL     1     -12.365  12.659  70.670  0.00  0.00    -0.000 A 
ATOM     13  C   UNL     1     -11.993  13.303  69.496  0.00  0.00    -0.004 A 
ATOM     14  C   UNL     1     -12.202  13.103  65.204  0.00  0.00    -0.004 A 
ATOM     15  C   UNL     1     -11.431  12.584  68.458  0.00  0.00    -0.018 A 
ENDROOT
BRANCH   1  16
ATOM     16  C   UNL     1     -11.611  14.761  67.255  0.00  0.00    +0.010 C 
BRANCH  16  17
ATOM     17  C   UNL     1     -10.415  15.705  67.309  0.00  0.00    +0.019 C 
BRANCH  17  18
ATOM     18  C   UNL     1      -9.925  16.046  65.914  0.00  0.00    +0.089 C 
BRANCH  18  20
ATOM     19  C   UNL     1     -10.268  18.406  66.265  0.00  0.00    +0.107 C 
ATOM     20  N   UNL     1     -10.518  17.260  65.407  0.00  0.00    -0.217 NA
ENDBRANCH  18  20
ENDBRANCH  17  18
ENDBRANCH  16  17
ENDBRANCH   1  16
TORSDOF 4
ENDMDL
MODEL 6
REMARK VINA RESULT:      -5.8      2.195      4.784
REMARK  Name = 
REMARK  4 active torsions:
REMARK  status: ('A' for Active; 'I' for Inactive)
REMARK    1  A    between atoms: N_2  and  C_3
REMARK    2  A    between atoms: C_3  and  C_4
REMARK    3  A    between atoms: C_4  and  C_5
REMARK    4  A    between atoms: C_5  and  C_6
REMARK                            x       y       z     vdW  Elec       q    Type
REMARK                         _______ _______ _______ _____ _____    ______ ____
ROOT
ATOM      1  C   UNL     1     -10.840  13.916  67.292  0.00  0.00    +0.045 C 
ATOM      2  C   UNL     1     -10.173  15.106  67.833  0.00  0.00    -0.018 A 
ATOM      3  C   UNL     1     -10.772  16.037  68.674  0.00  0.00    -0.004 A 
ATOM      4  C   UNL     1     -10.087  17.193  68.955  0.00  0.00    -0.000 A 
ATOM      5  C   UNL     1      -8.794  17.337  68.468  0.00  0.00    -0.000 A 
ATOM      6  C   UNL     1      -8.077  16.243  68.001  0.00  0.00    -0.000 A 
ATOM      7  C   UNL     1     -11.840  15.724  69.634  0.00  0.00    -0.000 C 
ATOM      8  C   UNL     1     -12.449  14.566  69.898  0.00  0.00    -0.000 C 
ATOM      9  C   UNL     1     -11.991  13.248  69.437  0.00  0.00    -0.004 A 
ATOM     10  C   UNL     1     -12.122  12.260  70.407  0.00  0.00    -0.000 A 
ATOM     11  C   UNL     1     -11.666  10.971  70.186  0.00  0.00    -0.000 A 
ATOM     12  C   UNL     1     -11.488  10.617  68.853  0.00  0.00    -0.000 A 
ATOM     13  C   UNL     1     -11.150  11.620  67.952  0.00  0.00    -0.004 A 
ATOM     14  C   UNL     1      -8.840  15.215  67.457  0.00  0.00    -0.004 A 
ATOM     15  C   UNL     1     -11.189  12.946  68.342  0.00  0.00    -0.018 A 
ENDROOT
BRANCH   1  16
ATOM     16  C   UNL     1     -10.198  13.323  66.086  0.00  0.00    +0.010 C 
BRANCH  16  17
ATOM     17  C   UNL     1     -11.016  13.805  64.891  0.00  0.00    +0.019 C 
BRANCH  17  18
ATOM     18  C   UNL     1     -12.503  13.739  65.184  0.00  0.00    +0.089 C 
BRANCH  18  20
ATOM     19  C   UNL     1     -12.403  12.065  63.452  0.00  0.00    +0.107 C 
ATOM     20  N   UNL     1     -13.122  12.568  64.611  0.00  0.00    -0.217 NA
ENDBRANCH  18  20
ENDBRANCH  17  18
ENDBRANCH  16  17
ENDBRANCH   1  16
TORSDOF 4
ENDMDL
MODEL 7
REMARK VINA RESULT:      -5.8      3.342      5.962
REMARK  Name = 
REMARK  4 active torsions:
REMARK  status: ('A' for Active; 'I' for Inactive)
REMARK    1  A    between atoms: N_2  and  C_3
REMARK    2  A    between atoms: C_3  and  C_4
REMARK    3  A    between atoms: C_4  and  C_5
REMARK    4  A    between atoms: C_5  and  C_6
REMARK                            x       y       z     vdW  Elec       q    Type
REMARK                         _______ _______ _______ _____ _____    ______ ____
ROOT
ATOM      1  C   UNL     1     -11.934  11.519  69.402  0.00  0.00    +0.045 C 
ATOM      2  C   UNL     1     -10.933  10.765  68.638  0.00  0.00    -0.018 A 
ATOM      3  C   UNL     1     -10.885  10.690  67.251  0.00  0.00    -0.004 A 
ATOM      4  C   UNL     1     -10.006   9.804  66.679  0.00  0.00    -0.000 A 
ATOM      5  C   UNL     1      -9.141   9.096  67.504  0.00  0.00    -0.000 A 
ATOM      6  C   UNL     1      -8.918   9.490  68.818  0.00  0.00    -0.000 A 
ATOM      7  C   UNL     1     -11.339  11.753  66.345  0.00  0.00    -0.000 C 
ATOM      8  C   UNL     1     -11.874  12.946  66.615  0.00  0.00    -0.000 C 
ATOM      9  C   UNL     1     -11.897  13.578  67.941  0.00  0.00    -0.004 A 
ATOM     10  C   UNL     1     -11.642  14.944  67.895  0.00  0.00    -0.000 A 
ATOM     11  C   UNL     1     -11.540  15.696  69.053  0.00  0.00    -0.000 A 
ATOM     12  C   UNL     1     -12.120  15.137  70.186  0.00  0.00    -0.000 A 
ATOM     13  C   UNL     1     -12.163  13.751  70.278  0.00  0.00    -0.004 A 
ATOM     14  C   UNL     1      -9.981  10.141  69.435  0.00  0.00    -0.004 A 
ATOM     15  C   UNL     1     -11.819  12.971  69.191  0.00  0.00    -0.018 A 
ENDROOT
BRANCH   1  16
ATOM     16  C   UNL     1     -12.088  11.107  70.825  0.00  0.00    +0.010 C 
BRANCH  16  17
ATOM     17  C   UNL     1     -13.231  10.097  70.852  0.00  0.00    +0.019 C 
BRANCH  17  18
ATOM     18  C   UNL     1     -13.154   9.218  72.086  0.00  0.00    +0.089 C 
BRANCH  18  20
ATOM     19  C   UNL     1     -14.860   7.532  71.850  0.00  0.00    +0.107 C 
ATOM     20  N   UNL     1     -14.453   8.759  72.514  0.00  0.00    -0.217 NA
ENDBRANCH  18  20
ENDBRANCH  17  18
ENDBRANCH  16  17
ENDBRANCH   1  16
TORSDOF 4
ENDMDL
MODEL 8
REMARK VINA RESULT:      -5.8      1.842      4.505
REMARK  Name = 
REMARK  4 active torsions:
REMARK  status: ('A' for Active; 'I' for Inactive)
REMARK    1  A    between atoms: N_2  and  C_3
REMARK    2  A    between atoms: C_3  and  C_4
REMARK    3  A    between atoms: C_4  and  C_5
REMARK    4  A    between atoms: C_5  and  C_6
REMARK                            x       y       z     vdW  Elec       q    Type
REMARK                         _______ _______ _______ _____ _____    ______ ____
ROOT
ATOM      1  C   UNL     1     -11.544  12.432  68.300  0.00  0.00    +0.045 C 
ATOM      2  C   UNL     1     -11.373  13.669  69.072  0.00  0.00    -0.018 A 
ATOM      3  C   UNL     1     -12.145  14.031  70.171  0.00  0.00    -0.004 A 
ATOM      4  C   UNL     1     -11.993  15.295  70.682  0.00  0.00    -0.000 A 
ATOM      5  C   UNL     1     -11.011  16.119  70.144  0.00  0.00    -0.000 A 
ATOM      6  C   UNL     1      -9.992  15.599  69.355  0.00  0.00    -0.000 A 
ATOM      7  C   UNL     1     -12.765  13.078  71.101  0.00  0.00    -0.000 C 
ATOM      8  C   UNL     1     -12.746  11.743  71.108  0.00  0.00    -0.000 C 
ATOM      9  C   UNL     1     -11.857  10.909  70.289  0.00  0.00    -0.004 A 
ATOM     10  C   UNL     1     -11.357   9.811  70.980  0.00  0.00    -0.000 A 
ATOM     11  C   UNL     1     -10.436   8.954  70.399  0.00  0.00    -0.000 A 
ATOM     12  C   UNL     1     -10.379   8.986  69.010  0.00  0.00    -0.000 A 
ATOM     13  C   UNL     1     -10.691  10.181  68.373  0.00  0.00    -0.004 A 
ATOM     14  C   UNL     1     -10.320  14.459  68.630  0.00  0.00    -0.004 A 
ATOM     15  C   UNL     1     -11.228  11.232  69.091  0.00  0.00    -0.018 A 
ENDROOT
BRANCH   1  16
ATOM     16  C   UNL     1     -10.952  12.451  66.934  0.00  0.00    +0.010 C 
BRANCH  16  17
ATOM     17  C   UNL     1     -12.120  12.625  65.968  0.00  0.00    +0.019 C 
BRANCH  17  18
ATOM     18  C   UNL     1     -12.176  14.042  65.429  0.00  0.00    +0.089 C 
BRANCH  18  20
ATOM     19  C   UNL     1     -10.672  15.914  65.213  0.00  0.00    +0.107 C 
ATOM     20  N   UNL     1     -10.891  14.500  64.958  0.00  0.00    -0.217 NA
ENDBRANCH  18  20
ENDBRANCH  17  18
ENDBRANCH  16  17
ENDBRANCH   1  16
TORSDOF 4
ENDMDL
MODEL 9
REMARK VINA RESULT:      -5.7      3.031      6.356
REMARK  Name = 
REMARK  4 active torsions:
REMARK  status: ('A' for Active; 'I' for Inactive)
REMARK    1  A    between atoms: N_2  and  C_3
REMARK    2  A    between atoms: C_3  and  C_4
REMARK    3  A    between atoms: C_4  and  C_5
REMARK    4  A    between atoms: C_5  and  C_6
REMARK                            x       y       z     vdW  Elec       q    Type
REMARK                         _______ _______ _______ _____ _____    ______ ____
ROOT
ATOM      1  C   UNL     1     -10.717  11.556  68.500  0.00  0.00    +0.045 C 
ATOM      2  C   UNL     1     -11.634  11.692  69.638  0.00  0.00    -0.018 A 
ATOM      3  C   UNL     1     -12.035  12.902  70.193  0.00  0.00    -0.004 A 
ATOM      4  C   UNL     1     -12.749  12.874  71.364  0.00  0.00    -0.000 A 
ATOM      5  C   UNL     1     -13.122  11.642  71.889  0.00  0.00    -0.000 A 
ATOM      6  C   UNL     1     -13.079  10.490  71.114  0.00  0.00    -0.000 A 
ATOM      7  C   UNL     1     -12.164  14.159  69.442  0.00  0.00    -0.000 C 
ATOM      8  C   UNL     1     -11.933  14.420  68.153  0.00  0.00    -0.000 C 
ATOM      9  C   UNL     1     -11.728  13.406  67.111  0.00  0.00    -0.004 A 
ATOM     10  C   UNL     1     -12.361  13.724  65.914  0.00  0.00    -0.000 A 
ATOM     11  C   UNL     1     -12.351  12.848  64.841  0.00  0.00    -0.000 A 
ATOM     12  C   UNL     1     -11.350  11.883  64.863  0.00  0.00    -0.000 A 
ATOM     13  C   UNL     1     -10.896  11.444  66.101  0.00  0.00    -0.004 A 
ATOM     14  C   UNL     1     -12.116  10.478  70.111  0.00  0.00    -0.004 A 
ATOM     15  C   UNL     1     -11.289  12.094  67.255  0.00  0.00    -0.018 A 
ENDROOT
BRANCH   1  16
ATOM     16  C   UNL     1     -10.071  10.221  68.363  0.00  0.00    +0.010 C 
BRANCH  16  17
ATOM     17  C   UNL     1      -8.691  10.350  69.000  0.00  0.00    +0.019 C 
BRANCH  17  18
ATOM     18  C   UNL     1      -8.312   9.084  69.745  0.00  0.00    +0.089 C 
BRANCH  18  20
ATOM     19  C   UNL     1      -9.416   8.588  71.830  0.00  0.00    +0.107 C 
ATOM     20  N   UNL     1      -8.312   9.271  71.176  0.00  0.00    -0.217 NA
ENDBRANCH  18  20
ENDBRANCH  17  18
ENDBRANCH  16  17
ENDBRANCH   1  16
TORSDOF 4
ENDMDL
