MODEL 1
REMARK VINA RESULT:      -4.9      0.000      0.000
REMARK  Name = 
REMARK  2 active torsions:
REMARK  status: ('A' for Active; 'I' for Inactive)
REMARK    1  A    between atoms: O_2  and  C_3
REMARK    2  A    between atoms: C_3  and  C_5
REMARK                            x       y       z     vdW  Elec       q    Type
REMARK                         _______ _______ _______ _____ _____    ______ ____
ROOT
ATOM      1  C   UNL     1     -11.003  14.576  65.093  0.00  0.00    +0.114 A 
ATOM      2  C   UNL     1     -10.855  15.942  64.931  0.00  0.00    +0.202 A 
ATOM      3  O   UNL     1     -11.645  16.561  63.971  0.00  0.00    -0.286 OA
ATOM      4  C   UNL     1     -10.144  16.705  65.848  0.00  0.00    +0.042 A 
ATOM      5  C   UNL     1      -9.479  16.067  66.886  0.00  0.00    +0.003 A 
ATOM      6  C   UNL     1      -9.225  14.716  66.693  0.00  0.00    +0.000 A 
ATOM      7  C   UNL     1     -10.018  13.953  65.845  0.00  0.00    +0.010 A 
ENDROOT
BRANCH   1   8
ATOM      8  C   UNL     1     -12.249  13.883  64.744  0.00  0.00    +0.344 C 
ATOM      9  O   UNL     1     -13.314  14.197  65.350  0.00  0.00    -0.245 OA
BRANCH   8  11
ATOM     10  C   UNL     1     -12.416  11.903  63.274  0.00  0.00    +0.256 C 
ATOM     11  O   UNL     1     -12.395  13.285  63.514  0.00  0.00    -0.441 OA
ENDBRANCH   8  11
ENDBRANCH   1   8
TORSDOF 2
ENDMDL
MODEL 2
REMARK VINA RESULT:      -4.7      1.567      3.766
REMARK  Name = 
REMARK  2 active torsions:
REMARK  status: ('A' for Active; 'I' for Inactive)
REMARK    1  A    between atoms: O_2  and  C_3
REMARK    2  A    between atoms: C_3  and  C_5
REMARK                            x       y       z     vdW  Elec       q    Type
REMARK                         _______ _______ _______ _____ _____    ______ ____
ROOT
ATOM      1  C   UNL     1     -11.587  14.804  65.569  0.00  0.00    +0.114 A 
ATOM      2  C   UNL     1     -12.166  13.808  64.803  0.00  0.00    +0.202 A 
ATOM      3  O   UNL     1     -12.486  14.118  63.488  0.00  0.00    -0.286 OA
ATOM      4  C   UNL     1     -12.196  12.489  65.237  0.00  0.00    +0.042 A 
ATOM      5  C   UNL     1     -11.733  12.186  66.511  0.00  0.00    +0.003 A 
ATOM      6  C   UNL     1     -11.673  13.255  67.394  0.00  0.00    +0.000 A 
ATOM      7  C   UNL     1     -11.540  14.558  66.934  0.00  0.00    +0.010 A 
ENDROOT
BRANCH   1   8
ATOM      8  C   UNL     1     -10.824  15.903  64.966  0.00  0.00    +0.344 C 
ATOM      9  O   UNL     1     -11.433  16.749  64.249  0.00  0.00    -0.245 OA
BRANCH   8  11
ATOM     10  C   UNL     1      -9.446  17.443  66.323  0.00  0.00    +0.256 C 
ATOM     11  O   UNL     1      -9.630  16.311  65.516  0.00  0.00    -0.441 OA
ENDBRANCH   8  11
ENDBRANCH   1   8
TORSDOF 2
ENDMDL
MODEL 3
REMARK VINA RESULT:      -4.7      6.174      7.604
REMARK  Name = 
REMARK  2 active torsions:
REMARK  status: ('A' for Active; 'I' for Inactive)
REMARK    1  A    between atoms: O_2  and  C_3
REMARK    2  A    between atoms: C_3  and  C_5
REMARK                            x       y       z     vdW  Elec       q    Type
REMARK                         _______ _______ _______ _____ _____    ______ ____
ROOT
ATOM      1  C   UNL     1     -12.573  14.978  71.595  0.00  0.00    +0.114 A 
ATOM      2  C   UNL     1     -12.685  13.614  71.395  0.00  0.00    +0.202 A 
ATOM      3  O   UNL     1     -13.479  12.900  72.283  0.00  0.00    -0.286 OA
ATOM      4  C   UNL     1     -12.237  13.019  70.223  0.00  0.00    +0.042 A 
ATOM      5  C   UNL     1     -11.569  13.792  69.284  0.00  0.00    +0.003 A 
ATOM      6  C   UNL     1     -11.033  14.981  69.761  0.00  0.00    +0.000 A 
ATOM      7  C   UNL     1     -11.567  15.609  70.879  0.00  0.00    +0.010 A 
ENDROOT
BRANCH   1   8
ATOM      8  C   UNL     1     -13.614  15.749  72.287  0.00  0.00    +0.344 C 
ATOM      9  O   UNL     1     -14.798  15.713  71.844  0.00  0.00    -0.245 OA
BRANCH   8  11
ATOM     10  C   UNL     1     -12.455  15.634  74.467  0.00  0.00    +0.256 C 
ATOM     11  O   UNL     1     -13.464  16.097  73.610  0.00  0.00    -0.441 OA
ENDBRANCH   8  11
ENDBRANCH   1   8
TORSDOF 2
ENDMDL
MODEL 4
REMARK VINA RESULT:      -4.6      1.271      3.872
REMARK  Name = 
REMARK  2 active torsions:
REMARK  status: ('A' for Active; 'I' for Inactive)
REMARK    1  A    between atoms: O_2  and  C_3
REMARK    2  A    between atoms: C_3  and  C_5
REMARK                            x       y       z     vdW  Elec       q    Type
REMARK                         _______ _______ _______ _____ _____    ______ ____
ROOT
ATOM      1  C   UNL     1     -11.167  14.188  64.853  0.00  0.00    +0.114 A 
ATOM      2  C   UNL     1     -12.405  13.571  64.896  0.00  0.00    +0.202 A 
ATOM      3  O   UNL     1     -13.451  14.277  65.475  0.00  0.00    -0.286 OA
ATOM      4  C   UNL     1     -12.658  12.412  64.174  0.00  0.00    +0.042 A 
ATOM      5  C   UNL     1     -11.618  11.805  63.484  0.00  0.00    +0.003 A 
ATOM      6  C   UNL     1     -10.341  12.152  63.902  0.00  0.00    +0.000 A 
ATOM      7  C   UNL     1     -10.098  13.365  64.532  0.00  0.00    +0.010 A 
ENDROOT
BRANCH   1   8
ATOM      8  C   UNL     1     -11.028  15.650  64.861  0.00  0.00    +0.344 C 
ATOM      9  O   UNL     1     -11.619  16.326  63.970  0.00  0.00    -0.245 OA
BRANCH   8  11
ATOM     10  C   UNL     1     -10.729  15.767  67.312  0.00  0.00    +0.256 C 
ATOM     11  O   UNL     1     -10.702  16.315  66.021  0.00  0.00    -0.441 OA
ENDBRANCH   8  11
ENDBRANCH   1   8
TORSDOF 2
ENDMDL
MODEL 5
REMARK VINA RESULT:      -4.5      2.733      4.264
REMARK  Name = 
REMARK  2 active torsions:
REMARK  status: ('A' for Active; 'I' for Inactive)
REMARK    1  A    between atoms: O_2  and  C_3
REMARK    2  A    between atoms: C_3  and  C_5
REMARK                            x       y       z     vdW  Elec       q    Type
REMARK                         _______ _______ _______ _____ _____    ______ ____
ROOT
ATOM      1  C   UNL     1     -10.496  18.111  66.469  0.00  0.00    +0.114 A 
ATOM      2  C   UNL     1     -10.560  17.922  67.839  0.00  0.00    +0.202 A 
ATOM      3  O   UNL     1     -11.215  16.786  68.296  0.00  0.00    -0.286 OA
ATOM      4  C   UNL     1      -9.794  18.686  68.708  0.00  0.00    +0.042 A 
ATOM      5  C   UNL     1      -9.032  19.730  68.200  0.00  0.00    +0.003 A 
ATOM      6  C   UNL     1      -9.414  20.193  66.949  0.00  0.00    +0.000 A 
ATOM      7  C   UNL     1     -10.093  19.373  66.057  0.00  0.00    +0.010 A 
ENDROOT
BRANCH   1   8
ATOM      8  C   UNL     1     -10.570  16.989  65.526  0.00  0.00    +0.344 C 
ATOM      9  O   UNL     1     -11.242  17.126  64.464  0.00  0.00    -0.245 OA
BRANCH   8  11
ATOM     10  C   UNL     1      -9.789  14.658  65.790  0.00  0.00    +0.256 C 
ATOM     11  O   UNL     1      -9.593  16.020  65.514  0.00  0.00    -0.441 OA
ENDBRANCH   8  11
ENDBRANCH   1   8
TORSDOF 2
ENDMDL
MODEL 6
REMARK VINA RESULT:      -4.5      3.603      4.669
REMARK  Name = 
REMARK  2 active torsions:
REMARK  status: ('A' for Active; 'I' for Inactive)
REMARK    1  A    between atoms: O_2  and  C_3
REMARK    2  A    between atoms: C_3  and  C_5
REMARK                            x       y       z     vdW  Elec       q    Type
REMARK                         _______ _______ _______ _____ _____    ______ ____
ROOT
ATOM      1  C   UNL     1     -10.210  17.452  67.652  0.00  0.00    +0.114 A 
ATOM      2  C   UNL     1     -10.274  17.929  66.355  0.00  0.00    +0.202 A 
ATOM      3  O   UNL     1     -10.551  17.010  65.350  0.00  0.00    -0.286 OA
ATOM      4  C   UNL     1     -10.314  19.291  66.088  0.00  0.00    +0.042 A 
ATOM      5  C   UNL     1     -10.178  20.190  67.137  0.00  0.00    +0.003 A 
ATOM      6  C   UNL     1      -9.599  19.679  68.290  0.00  0.00    +0.000 A 
ATOM      7  C   UNL     1      -9.662  18.322  68.583  0.00  0.00    +0.010 A 
ENDROOT
BRANCH   1   8
ATOM      8  C   UNL     1     -10.923  16.239  68.070  0.00  0.00    +0.344 C 
ATOM      9  O   UNL     1     -10.317  15.130  68.034  0.00  0.00    -0.245 OA
BRANCH   8  11
ATOM     10  C   UNL     1     -12.099  15.720  70.182  0.00  0.00    +0.256 C 
ATOM     11  O   UNL     1     -12.004  16.321  68.918  0.00  0.00    -0.441 OA
ENDBRANCH   8  11
ENDBRANCH   1   8
TORSDOF 2
ENDMDL
MODEL 7
REMARK VINA RESULT:      -4.3      1.969      4.256
REMARK  Name = 
REMARK  2 active torsions:
REMARK  status: ('A' for Active; 'I' for Inactive)
REMARK    1  A    between atoms: O_2  and  C_3
REMARK    2  A    between atoms: C_3  and  C_5
REMARK                            x       y       z     vdW  Elec       q    Type
REMARK                         _______ _______ _______ _____ _____    ______ ____
ROOT
ATOM      1  C   UNL     1     -10.325  16.146  66.299  0.00  0.00    +0.114 A 
ATOM      2  C   UNL     1     -10.882  15.740  65.098  0.00  0.00    +0.202 A 
ATOM      3  O   UNL     1     -11.287  16.732  64.215  0.00  0.00    -0.286 OA
ATOM      4  C   UNL     1     -10.810  14.419  64.681  0.00  0.00    +0.042 A 
ATOM      5  C   UNL     1     -10.265  13.468  65.534  0.00  0.00    +0.003 A 
ATOM      6  C   UNL     1     -10.223  13.824  66.875  0.00  0.00    +0.000 A 
ATOM      7  C   UNL     1     -10.193  15.157  67.262  0.00  0.00    +0.010 A 
ENDROOT
BRANCH   1   8
ATOM      8  C   UNL     1      -9.662  17.448  66.447  0.00  0.00    +0.344 C 
ATOM      9  O   UNL     1      -8.568  17.648  65.846  0.00  0.00    -0.245 OA
BRANCH   8  11
ATOM     10  C   UNL     1     -10.450  19.759  66.061  0.00  0.00    +0.256 C 
ATOM     11  O   UNL     1     -10.386  18.565  66.795  0.00  0.00    -0.441 OA
ENDBRANCH   8  11
ENDBRANCH   1   8
TORSDOF 2
ENDMDL
MODEL 8
REMARK VINA RESULT:      -4.3      1.994      3.953
REMARK  Name = 
REMARK  2 active torsions:
REMARK  status: ('A' for Active; 'I' for Inactive)
REMARK    1  A    between atoms: O_2  and  C_3
REMARK    2  A    between atoms: C_3  and  C_5
REMARK                            x       y       z     vdW  Elec       q    Type
REMARK                         _______ _______ _______ _____ _____    ______ ____
ROOT
ATOM      1  C   UNL     1     -10.647  14.937  65.559  0.00  0.00    +0.114 A 
ATOM      2  C   UNL     1     -11.307  14.611  66.731  0.00  0.00    +0.202 A 
ATOM      3  O   UNL     1     -11.415  15.601  67.700  0.00  0.00    -0.286 OA
ATOM      4  C   UNL     1     -12.046  13.441  66.841  0.00  0.00    +0.042 A 
ATOM      5  C   UNL     1     -12.033  12.532  65.792  0.00  0.00    +0.003 A 
ATOM      6  C   UNL     1     -10.970  12.655  64.908  0.00  0.00    +0.000 A 
ATOM      7  C   UNL     1     -10.312  13.867  64.743  0.00  0.00    +0.010 A 
ENDROOT
BRANCH   1   8
ATOM      8  C   UNL     1     -10.561  16.320  65.076  0.00  0.00    +0.344 C 
ATOM      9  O   UNL     1     -11.448  16.747  64.282  0.00  0.00    -0.245 OA
BRANCH   8  11
ATOM     10  C   UNL     1     -10.348  18.546  66.130  0.00  0.00    +0.256 C 
ATOM     11  O   UNL     1      -9.871  17.271  65.793  0.00  0.00    -0.441 OA
ENDBRANCH   8  11
ENDBRANCH   1   8
TORSDOF 2
ENDMDL
MODEL 9
REMARK VINA RESULT:      -4.3      2.117      4.016
REMARK  Name = 
REMARK  2 active torsions:
REMARK  status: ('A' for Active; 'I' for Inactive)
REMARK    1  A    between atoms: O_2  and  C_3
REMARK    2  A    between atoms: C_3  and  C_5
REMARK                            x       y       z     vdW  Elec       q    Type
REMARK                         _______ _______ _______ _____ _____    ______ ____
ROOT
ATOM      1  C   UNL     1     -11.552  12.583  66.025  0.00  0.00    +0.114 A 
ATOM      2  C   UNL     1     -12.337  12.913  64.935  0.00  0.00    +0.202 A 
ATOM      3  O   UNL     1     -13.312  13.884  65.121  0.00  0.00    -0.286 OA
ATOM      4  C   UNL     1     -12.010  12.486  63.655  0.00  0.00    +0.042 A 
ATOM      5  C   UNL     1     -10.935  11.624  63.483  0.00  0.00    +0.003 A 
ATOM      6  C   UNL     1     -10.540  10.930  64.618  0.00  0.00    +0.000 A 
ATOM      7  C   UNL     1     -10.791  11.431  65.889  0.00  0.00    +0.010 A 
ENDROOT
BRANCH   1   8
ATOM      8  C   UNL     1     -11.317  13.525  67.126  0.00  0.00    +0.344 C 
ATOM      9  O   UNL     1     -11.964  13.380  68.203  0.00  0.00    -0.245 OA
BRANCH   8  11
ATOM     10  C   UNL     1      -9.530  14.935  66.162  0.00  0.00    +0.256 C 
ATOM     11  O   UNL     1     -10.135  14.224  67.210  0.00  0.00    -0.441 OA
ENDBRANCH   8  11
ENDBRANCH   1   8
TORSDOF 2
ENDMDL
