MODEL 1
REMARK VINA RESULT:      -6.5      0.000      0.000
REMARK  Name = 
REMARK  2 active torsions:
REMARK  status: ('A' for Active; 'I' for Inactive)
REMARK    1  A    between atoms: N9_10  and  C1*_11
REMARK    2  A    between atoms: C4*_13  and  C5*_14
REMARK                            x       y       z     vdW  Elec       q    Type
REMARK                         _______ _______ _______ _____ _____    ______ ____
ROOT
ATOM      1  N6    A A   1     -13.530  15.669  73.181  0.00  0.00    -0.105 NA
ATOM      2  C6    A A   1     -13.200  14.647  72.347  0.00  0.00    +0.192 A 
ATOM      3  C5    A A   1     -12.556  14.845  71.144  0.00  0.00    +0.152 A 
ATOM      4  N7    A A   1     -12.632  15.894  70.333  0.00  0.00    -0.219 NA
ATOM      5  C8    A A   1     -11.964  15.593  69.197  0.00  0.00    +0.182 A 
ATOM      6  N9    A A   1     -11.694  14.308  69.220  0.00  0.00    -0.269 N 
ATOM      7  C4    A A   1     -12.050  13.803  70.388  0.00  0.00    +0.169 A 
ATOM      8  N3    A A   1     -12.379  12.548  70.772  0.00  0.00    -0.205 NA
ATOM      9  C2    A A   1     -13.242  12.334  71.795  0.00  0.00    +0.202 A 
ATOM     10  N1    A A   1     -13.581  13.375  72.594  0.00  0.00    -0.204 NA
ENDROOT
BRANCH   6  11
ATOM     11  C1*   A A   1     -10.581  13.582  68.368  0.00  0.00    +0.241 C 
ATOM     12  C2*   A A   1     -11.715  13.367  67.106  0.00  0.00    +0.234 C 
ATOM     13  O2*   A A   1     -12.022  11.953  67.484  0.00  0.00    -0.216 OA
ATOM     14  C3*   A A   1     -10.438  12.951  66.078  0.00  0.00    +0.216 C 
ATOM     15  O3*   A A   1      -9.667  12.062  67.015  0.00  0.00    -0.218 OA
ATOM     16  C4*   A A   1      -9.519  14.344  66.437  0.00  0.00    +0.183 C 
ATOM     17  O4*   A A   1     -10.235  14.838  67.633  0.00  0.00    -0.331 OA
BRANCH  16  18
ATOM     18  C5*   A A   1     -10.515  15.228  65.446  0.00  0.00    +0.214 C 
ATOM     19  O5*   A A   1      -9.919  16.505  65.459  0.00  0.00    -0.218 OA
ENDBRANCH  16  18
ENDBRANCH   6  11
TORSDOF 2
ENDMDL
MODEL 2
REMARK VINA RESULT:      -6.4      3.703      5.015
REMARK  Name = 
REMARK  2 active torsions:
REMARK  status: ('A' for Active; 'I' for Inactive)
REMARK    1  A    between atoms: N9_10  and  C1*_11
REMARK    2  A    between atoms: C4*_13  and  C5*_14
REMARK                            x       y       z     vdW  Elec       q    Type
REMARK                         _______ _______ _______ _____ _____    ______ ____
ROOT
ATOM      1  N6    A A   1     -10.025  19.968  66.031  0.00  0.00    -0.105 NA
ATOM      2  C6    A A   1     -10.140  18.773  66.669  0.00  0.00    +0.192 A 
ATOM      3  C5    A A   1     -10.374  17.591  66.000  0.00  0.00    +0.152 A 
ATOM      4  N7    A A   1     -11.047  17.404  64.870  0.00  0.00    -0.219 NA
ATOM      5  C8    A A   1     -11.162  16.072  64.668  0.00  0.00    +0.182 A 
ATOM      6  N9    A A   1     -10.779  15.466  65.768  0.00  0.00    -0.269 N 
ATOM      7  C4    A A   1     -10.301  16.356  66.619  0.00  0.00    +0.169 A 
ATOM      8  N3    A A   1     -10.180  16.350  67.967  0.00  0.00    -0.205 NA
ATOM      9  C2    A A   1     -10.226  17.503  68.678  0.00  0.00    +0.202 A 
ATOM     10  N1    A A   1     -10.141  18.683  68.016  0.00  0.00    -0.204 NA
ENDROOT
BRANCH   6  11
ATOM     11  C1*   A A   1     -10.320  13.960  65.882  0.00  0.00    +0.241 C 
ATOM     12  C2*   A A   1     -11.915  13.527  66.322  0.00  0.00    +0.234 C 
ATOM     13  O2*   A A   1     -11.612  13.489  67.785  0.00  0.00    -0.216 OA
ATOM     14  C3*   A A   1     -11.509  11.906  66.064  0.00  0.00    +0.216 C 
ATOM     15  O3*   A A   1     -10.157  11.899  66.721  0.00  0.00    -0.218 OA
ATOM     16  C4*   A A   1     -10.888  12.172  64.496  0.00  0.00    +0.183 C 
ATOM     17  O4*   A A   1     -10.784  13.648  64.495  0.00  0.00    -0.331 OA
BRANCH  16  18
ATOM     18  C5*   A A   1     -12.442  12.257  63.920  0.00  0.00    +0.214 C 
ATOM     19  O5*   A A   1     -12.388  13.344  63.024  0.00  0.00    -0.218 OA
ENDBRANCH  16  18
ENDBRANCH   6  11
TORSDOF 2
ENDMDL
MODEL 3
REMARK VINA RESULT:      -6.2      1.510      2.988
REMARK  Name = 
REMARK  2 active torsions:
REMARK  status: ('A' for Active; 'I' for Inactive)
REMARK    1  A    between atoms: N9_10  and  C1*_11
REMARK    2  A    between atoms: C4*_13  and  C5*_14
REMARK                            x       y       z     vdW  Elec       q    Type
REMARK                         _______ _______ _______ _____ _____    ______ ____
ROOT
ATOM      1  N6    A A   1     -13.499  13.291  72.327  0.00  0.00    -0.105 NA
ATOM      2  C6    A A   1     -12.818  14.190  71.568  0.00  0.00    +0.192 A 
ATOM      3  C5    A A   1     -12.430  13.928  70.271  0.00  0.00    +0.152 A 
ATOM      4  N7    A A   1     -12.109  12.760  69.729  0.00  0.00    -0.219 NA
ATOM      5  C8    A A   1     -11.638  12.992  68.483  0.00  0.00    +0.182 A 
ATOM      6  N9    A A   1     -11.453  14.286  68.361  0.00  0.00    -0.269 N 
ATOM      7  C4    A A   1     -11.911  14.902  69.436  0.00  0.00    +0.169 A 
ATOM      8  N3    A A   1     -11.610  16.096  69.996  0.00  0.00    -0.205 NA
ATOM      9  C2    A A   1     -11.725  16.290  71.333  0.00  0.00    +0.202 A 
ATOM     10  N1    A A   1     -12.381  15.363  72.074  0.00  0.00    -0.204 NA
ENDROOT
BRANCH   6  11
ATOM     11  C1*   A A   1     -11.346  15.080  67.000  0.00  0.00    +0.241 C 
ATOM     12  C2*   A A   1     -10.188  13.947  66.453  0.00  0.00    +0.234 C 
ATOM     13  O2*   A A   1      -9.022  14.821  66.788  0.00  0.00    -0.216 OA
ATOM     14  C3*   A A   1     -10.370  14.569  64.890  0.00  0.00    +0.216 C 
ATOM     15  O3*   A A   1     -10.387  16.035  65.226  0.00  0.00    -0.218 OA
ATOM     16  C4*   A A   1     -12.070  14.418  64.885  0.00  0.00    +0.183 C 
ATOM     17  O4*   A A   1     -12.324  14.175  66.322  0.00  0.00    -0.331 OA
BRANCH  16  18
ATOM     18  C5*   A A   1     -11.902  12.789  64.614  0.00  0.00    +0.214 C 
ATOM     19  O5*   A A   1     -13.237  12.348  64.509  0.00  0.00    -0.218 OA
ENDBRANCH  16  18
ENDBRANCH   6  11
TORSDOF 2
ENDMDL
MODEL 4
REMARK VINA RESULT:      -5.9      1.530      3.009
REMARK  Name = 
REMARK  2 active torsions:
REMARK  status: ('A' for Active; 'I' for Inactive)
REMARK    1  A    between atoms: N9_10  and  C1*_11
REMARK    2  A    between atoms: C4*_13  and  C5*_14
REMARK                            x       y       z     vdW  Elec       q    Type
REMARK                         _______ _______ _______ _____ _____    ______ ____
ROOT
ATOM      1  N6    A A   1     -14.049  13.100  72.500  0.00  0.00    -0.105 NA
ATOM      2  C6    A A   1     -13.236  14.127  72.137  0.00  0.00    +0.192 A 
ATOM      3  C5    A A   1     -12.660  14.216  70.887  0.00  0.00    +0.152 A 
ATOM      4  N7    A A   1     -12.291  13.228  70.080  0.00  0.00    -0.219 NA
ATOM      5  C8    A A   1     -11.628  13.770  69.033  0.00  0.00    +0.182 A 
ATOM      6  N9    A A   1     -11.392  15.030  69.319  0.00  0.00    -0.269 N 
ATOM      7  C4    A A   1     -11.993  15.346  70.452  0.00  0.00    +0.169 A 
ATOM      8  N3    A A   1     -11.748  16.309  71.371  0.00  0.00    -0.205 NA
ATOM      9  C2    A A   1     -12.063  16.124  72.677  0.00  0.00    +0.202 A 
ATOM     10  N1    A A   1     -12.850  15.075  73.018  0.00  0.00    -0.204 NA
ENDROOT
BRANCH   6  11
ATOM     11  C1*   A A   1     -11.054  16.166  68.276  0.00  0.00    +0.241 C 
ATOM     12  C2*   A A   1      -9.458  15.562  68.162  0.00  0.00    +0.234 C 
ATOM     13  O2*   A A   1      -8.896  16.578  69.104  0.00  0.00    -0.216 OA
ATOM     14  C3*   A A   1      -9.231  16.520  66.787  0.00  0.00    +0.216 C 
ATOM     15  O3*   A A   1      -9.887  17.782  67.275  0.00  0.00    -0.218 OA
ATOM     16  C4*   A A   1     -10.630  15.947  65.993  0.00  0.00    +0.183 C 
ATOM     17  O4*   A A   1     -11.313  15.263  67.113  0.00  0.00    -0.331 OA
BRANCH  16  18
ATOM     18  C5*   A A   1      -9.812  14.555  65.609  0.00  0.00    +0.214 C 
ATOM     19  O5*   A A   1     -10.849  13.609  65.470  0.00  0.00    -0.218 OA
ENDBRANCH  16  18
ENDBRANCH   6  11
TORSDOF 2
ENDMDL
MODEL 5
REMARK VINA RESULT:      -5.8      4.080      5.353
REMARK  Name = 
REMARK  2 active torsions:
REMARK  status: ('A' for Active; 'I' for Inactive)
REMARK    1  A    between atoms: N9_10  and  C1*_11
REMARK    2  A    between atoms: C4*_13  and  C5*_14
REMARK                            x       y       z     vdW  Elec       q    Type
REMARK                         _______ _______ _______ _____ _____    ______ ____
ROOT
ATOM      1  N6    A A   1     -13.187  12.567  64.625  0.00  0.00    -0.105 NA
ATOM      2  C6    A A   1     -12.219  12.874  65.528  0.00  0.00    +0.192 A 
ATOM      3  C5    A A   1     -11.673  14.136  65.636  0.00  0.00    +0.152 A 
ATOM      4  N7    A A   1     -11.506  15.045  64.682  0.00  0.00    -0.219 NA
ATOM      5  C8    A A   1     -10.791  16.068  65.200  0.00  0.00    +0.182 A 
ATOM      6  N9    A A   1     -10.330  15.683  66.368  0.00  0.00    -0.269 N 
ATOM      7  C4    A A   1     -10.833  14.500  66.673  0.00  0.00    +0.169 A 
ATOM      8  N3    A A   1     -10.398  13.511  67.488  0.00  0.00    -0.205 NA
ATOM      9  C2    A A   1     -10.700  12.214  67.235  0.00  0.00    +0.202 A 
ATOM     10  N1    A A   1     -11.647  11.931  66.308  0.00  0.00    -0.204 NA
ENDROOT
BRANCH   6  11
ATOM     11  C1*   A A   1      -9.831  16.634  67.525  0.00  0.00    +0.241 C 
ATOM     12  C2*   A A   1      -8.558  17.164  66.514  0.00  0.00    +0.234 C 
ATOM     13  O2*   A A   1      -7.547  16.257  67.138  0.00  0.00    -0.216 OA
ATOM     14  C3*   A A   1      -8.276  18.435  67.594  0.00  0.00    +0.216 C 
ATOM     15  O3*   A A   1      -8.399  17.672  68.884  0.00  0.00    -0.218 OA
ATOM     16  C4*   A A   1      -9.899  18.964  67.603  0.00  0.00    +0.183 C 
ATOM     17  O4*   A A   1     -10.562  17.810  66.958  0.00  0.00    -0.331 OA
BRANCH  16  18
ATOM     18  C5*   A A   1      -9.649  19.678  66.125  0.00  0.00    +0.214 C 
ATOM     19  O5*   A A   1     -10.937  19.673  65.552  0.00  0.00    -0.218 OA
ENDBRANCH  16  18
ENDBRANCH   6  11
TORSDOF 2
ENDMDL
MODEL 6
REMARK VINA RESULT:      -5.7      3.359      5.369
REMARK  Name = 
REMARK  2 active torsions:
REMARK  status: ('A' for Active; 'I' for Inactive)
REMARK    1  A    between atoms: N9_10  and  C1*_11
REMARK    2  A    between atoms: C4*_13  and  C5*_14
REMARK                            x       y       z     vdW  Elec       q    Type
REMARK                         _______ _______ _______ _____ _____    ______ ____
ROOT
ATOM      1  N6    A A   1     -11.033  11.783  65.897  0.00  0.00    -0.105 NA
ATOM      2  C6    A A   1     -11.218  12.882  66.676  0.00  0.00    +0.192 A 
ATOM      3  C5    A A   1     -10.624  14.096  66.404  0.00  0.00    +0.152 A 
ATOM      4  N7    A A   1      -9.457  14.327  65.814  0.00  0.00    -0.219 NA
ATOM      5  C8    A A   1      -9.200  15.652  65.900  0.00  0.00    +0.182 A 
ATOM      6  N9    A A   1     -10.073  16.175  66.729  0.00  0.00    -0.269 N 
ATOM      7  C4    A A   1     -10.959  15.258  67.076  0.00  0.00    +0.169 A 
ATOM      8  N3    A A   1     -11.760  15.133  68.159  0.00  0.00    -0.205 NA
ATOM      9  C2    A A   1     -12.136  13.912  68.613  0.00  0.00    +0.202 A 
ATOM     10  N1    A A   1     -11.912  12.827  67.833  0.00  0.00    -0.204 NA
ENDROOT
BRANCH   6  11
ATOM     11  C1*   A A   1     -10.464  17.702  66.818  0.00  0.00    +0.241 C 
ATOM     12  C2*   A A   1      -9.311  17.905  68.064  0.00  0.00    +0.234 C 
ATOM     13  O2*   A A   1     -10.326  17.820  69.159  0.00  0.00    -0.216 OA
ATOM     14  C3*   A A   1      -9.460  19.580  67.881  0.00  0.00    +0.216 C 
ATOM     15  O3*   A A   1     -10.956  19.666  67.755  0.00  0.00    -0.218 OA
ATOM     16  C4*   A A   1      -9.190  19.553  66.195  0.00  0.00    +0.183 C 
ATOM     17  O4*   A A   1      -9.337  18.107  65.922  0.00  0.00    -0.331 OA
BRANCH  16  18
ATOM     18  C5*   A A   1      -7.567  19.359  66.482  0.00  0.00    +0.214 C 
ATOM     19  O5*   A A   1      -7.139  18.607  65.369  0.00  0.00    -0.218 OA
ENDBRANCH  16  18
ENDBRANCH   6  11
TORSDOF 2
ENDMDL
MODEL 7
REMARK VINA RESULT:      -5.7      4.278      5.701
REMARK  Name = 
REMARK  2 active torsions:
REMARK  status: ('A' for Active; 'I' for Inactive)
REMARK    1  A    between atoms: N9_10  and  C1*_11
REMARK    2  A    between atoms: C4*_13  and  C5*_14
REMARK                            x       y       z     vdW  Elec       q    Type
REMARK                         _______ _______ _______ _____ _____    ______ ____
ROOT
ATOM      1  N6    A A   1      -7.505  21.126  67.271  0.00  0.00    -0.105 NA
ATOM      2  C6    A A   1      -7.574  19.821  67.647  0.00  0.00    +0.192 A 
ATOM      3  C5    A A   1      -8.407  18.911  67.032  0.00  0.00    +0.152 A 
ATOM      4  N7    A A   1      -9.585  19.130  66.459  0.00  0.00    -0.219 NA
ATOM      5  C8    A A   1     -10.119  17.932  66.130  0.00  0.00    +0.182 A 
ATOM      6  N9    A A   1      -9.394  17.000  66.705  0.00  0.00    -0.269 N 
ATOM      7  C4    A A   1      -8.341  17.552  67.281  0.00  0.00    +0.169 A 
ATOM      8  N3    A A   1      -7.553  17.151  68.306  0.00  0.00    -0.205 NA
ATOM      9  C2    A A   1      -6.935  18.055  69.106  0.00  0.00    +0.202 A 
ATOM     10  N1    A A   1      -6.907  19.355  68.725  0.00  0.00    -0.204 NA
ENDROOT
BRANCH   6  11
ATOM     11  C1*   A A   1      -9.339  15.480  66.282  0.00  0.00    +0.241 C 
ATOM     12  C2*   A A   1     -10.848  15.232  67.048  0.00  0.00    +0.234 C 
ATOM     13  O2*   A A   1     -10.239  14.669  68.292  0.00  0.00    -0.216 OA
ATOM     14  C3*   A A   1     -10.957  13.735  66.269  0.00  0.00    +0.216 C 
ATOM     15  O3*   A A   1      -9.542  13.267  66.469  0.00  0.00    -0.218 OA
ATOM     16  C4*   A A   1     -10.663  14.373  64.713  0.00  0.00    +0.183 C 
ATOM     17  O4*   A A   1     -10.173  15.724  65.064  0.00  0.00    -0.331 OA
BRANCH  16  18
ATOM     18  C5*   A A   1     -12.227  14.924  64.669  0.00  0.00    +0.214 C 
ATOM     19  O5*   A A   1     -12.129  16.085  63.874  0.00  0.00    -0.218 OA
ENDBRANCH  16  18
ENDBRANCH   6  11
TORSDOF 2
ENDMDL
MODEL 8
REMARK VINA RESULT:      -5.7      1.782      2.260
REMARK  Name = 
REMARK  2 active torsions:
REMARK  status: ('A' for Active; 'I' for Inactive)
REMARK    1  A    between atoms: N9_10  and  C1*_11
REMARK    2  A    between atoms: C4*_13  and  C5*_14
REMARK                            x       y       z     vdW  Elec       q    Type
REMARK                         _______ _______ _______ _____ _____    ______ ____
ROOT
ATOM      1  N6    A A   1     -13.600  13.354  72.596  0.00  0.00    -0.105 NA
ATOM      2  C6    A A   1     -12.865  13.101  71.480  0.00  0.00    +0.192 A 
ATOM      3  C5    A A   1     -12.312  14.102  70.709  0.00  0.00    +0.152 A 
ATOM      4  N7    A A   1     -12.770  15.332  70.507  0.00  0.00    -0.219 NA
ATOM      5  C8    A A   1     -12.000  15.914  69.560  0.00  0.00    +0.182 A 
ATOM      6  N9    A A   1     -11.245  14.979  69.029  0.00  0.00    -0.269 N 
ATOM      7  C4    A A   1     -11.411  13.849  69.691  0.00  0.00    +0.169 A 
ATOM      8  N3    A A   1     -11.229  12.555  69.338  0.00  0.00    -0.205 NA
ATOM      9  C2    A A   1     -11.972  11.567  69.897  0.00  0.00    +0.202 A 
ATOM     10  N1    A A   1     -12.721  11.851  70.990  0.00  0.00    -0.204 NA
ENDROOT
BRANCH   6  11
ATOM     11  C1*   A A   1      -9.908  15.218  68.224  0.00  0.00    +0.241 C 
ATOM     12  C2*   A A   1     -10.823  15.379  66.789  0.00  0.00    +0.234 C 
ATOM     13  O2*   A A   1     -10.568  13.974  66.345  0.00  0.00    -0.216 OA
ATOM     14  C3*   A A   1      -9.450  16.006  66.026  0.00  0.00    +0.216 C 
ATOM     15  O3*   A A   1      -8.427  15.045  66.564  0.00  0.00    -0.218 OA
ATOM     16  C4*   A A   1      -9.161  17.187  67.224  0.00  0.00    +0.183 C 
ATOM     17  O4*   A A   1     -10.054  16.704  68.300  0.00  0.00    -0.331 OA
BRANCH  16  18
ATOM     18  C5*   A A   1     -10.387  18.104  66.584  0.00  0.00    +0.214 C 
ATOM     19  O5*   A A   1     -10.836  18.849  67.694  0.00  0.00    -0.218 OA
ENDBRANCH  16  18
ENDBRANCH   6  11
TORSDOF 2
ENDMDL
MODEL 9
REMARK VINA RESULT:      -5.6      3.614      5.933
REMARK  Name = 
REMARK  2 active torsions:
REMARK  status: ('A' for Active; 'I' for Inactive)
REMARK    1  A    between atoms: N9_10  and  C1*_11
REMARK    2  A    between atoms: C4*_13  and  C5*_14
REMARK                            x       y       z     vdW  Elec       q    Type
REMARK                         _______ _______ _______ _____ _____    ______ ____
ROOT
ATOM      1  N6    A A   1      -7.226  19.297  65.426  0.00  0.00    -0.105 NA
ATOM      2  C6    A A   1      -8.119  18.975  66.399  0.00  0.00    +0.192 A 
ATOM      3  C5    A A   1      -8.570  17.688  66.601  0.00  0.00    +0.152 A 
ATOM      4  N7    A A   1      -8.727  16.721  65.704  0.00  0.00    -0.219 NA
ATOM      5  C8    A A   1      -9.341  15.681  66.313  0.00  0.00    +0.182 A 
ATOM      6  N9    A A   1      -9.760  16.097  67.486  0.00  0.00    -0.269 N 
ATOM      7  C4    A A   1      -9.323  17.325  67.702  0.00  0.00    +0.169 A 
ATOM      8  N3    A A   1      -9.779  18.324  68.493  0.00  0.00    -0.205 NA
ATOM      9  C2    A A   1      -9.581  19.623  68.160  0.00  0.00    +0.202 A 
ATOM     10  N1    A A   1      -8.709  19.918  67.165  0.00  0.00    -0.204 NA
ENDROOT
BRANCH   6  11
ATOM     11  C1*   A A   1     -10.126  15.176  68.715  0.00  0.00    +0.241 C 
ATOM     12  C2*   A A   1     -11.761  15.188  68.212  0.00  0.00    +0.234 C 
ATOM     13  O2*   A A   1     -12.160  16.251  69.185  0.00  0.00    -0.216 OA
ATOM     14  C3*   A A   1     -12.062  13.914  69.283  0.00  0.00    +0.216 C 
ATOM     15  O3*   A A   1     -11.282  14.417  70.466  0.00  0.00    -0.218 OA
ATOM     16  C4*   A A   1     -10.790  12.941  68.693  0.00  0.00    +0.183 C 
ATOM     17  O4*   A A   1     -10.043  13.932  67.889  0.00  0.00    -0.331 OA
BRANCH  16  18
ATOM     18  C5*   A A   1     -11.729  12.548  67.382  0.00  0.00    +0.214 C 
ATOM     19  O5*   A A   1     -11.731  11.138  67.408  0.00  0.00    -0.218 OA
ENDBRANCH  16  18
ENDBRANCH   6  11
TORSDOF 2
ENDMDL
