MODEL 1
REMARK VINA RESULT:      -6.6      0.000      0.000
REMARK  Name = 
REMARK  5 active torsions:
REMARK  status: ('A' for Active; 'I' for Inactive)
REMARK    1  A    between atoms: C_2  and  C_3
REMARK    2  A    between atoms: C_2  and  O_14
REMARK    3  A    between atoms: C_3  and  N_4
REMARK    4  A    between atoms: O_14  and  C_15
REMARK    5  A    between atoms: C_15  and  P_16
REMARK                            x       y       z     vdW  Elec       q    Type
REMARK                         _______ _______ _______ _____ _____    ______ ____
ROOT
ATOM      1  N   UNL     1     -11.739  13.425  68.170  0.00  0.00    -0.292 N 
ATOM      2  C   UNL     1     -11.612  13.826  66.883  0.00  0.00    +0.167 A 
ATOM      3  N   UNL     1     -11.421  15.013  66.299  0.00  0.00    -0.205 NA
ATOM      4  C   UNL     1     -11.361  15.080  64.946  0.00  0.00    +0.202 A 
ATOM      5  N   UNL     1     -12.156  14.222  64.262  0.00  0.00    -0.204 NA
ATOM      6  C   UNL     1     -12.417  12.998  64.765  0.00  0.00    +0.192 A 
ATOM      7  N   UNL     1     -13.295  12.067  64.181  0.00  0.00    -0.105 NA
ATOM      8  C   UNL     1     -11.986  12.770  66.067  0.00  0.00    +0.152 A 
ATOM      9  N   UNL     1     -11.791  11.667  66.825  0.00  0.00    -0.219 NA
ATOM     10  C   UNL     1     -11.654  12.081  68.109  0.00  0.00    +0.180 A 
ENDROOT
BRANCH   1  11
ATOM     11  C   UNL     1     -12.129  14.261  69.300  0.00  0.00    +0.138 C 
BRANCH  11  13
ATOM     12  C   UNL     1     -11.192  16.444  69.663  0.00  0.00    +0.034 C 
ATOM     13  C   UNL     1     -10.656  14.861  69.849  0.00  0.00    +0.138 C 
BRANCH  13  14
ATOM     14  O   UNL     1     -11.143  14.820  71.317  0.00  0.00    -0.346 OA
BRANCH  14  15
ATOM     15  C   UNL     1     -12.183  15.730  71.273  0.00  0.00    +0.200 C 
BRANCH  15  16
ATOM     16  P   UNL     1     -13.446  15.481  72.515  0.00  0.00    +0.147 P 
ATOM     17  O   UNL     1     -13.112  16.269  73.973  0.00  0.00    -0.355 OA
ATOM     18  O   UNL     1     -13.500  13.828  72.881  0.00  0.00    -0.355 OA
ATOM     19  O   UNL     1     -14.819  15.927  72.075  0.00  0.00    -0.458 OA
ENDBRANCH  15  16
ENDBRANCH  14  15
ENDBRANCH  13  14
ENDBRANCH  11  13
ENDBRANCH   1  11
TORSDOF 5
ENDMDL
MODEL 2
REMARK VINA RESULT:      -6.4      4.618      6.837
REMARK  Name = 
REMARK  5 active torsions:
REMARK  status: ('A' for Active; 'I' for Inactive)
REMARK    1  A    between atoms: C_2  and  C_3
REMARK    2  A    between atoms: C_2  and  O_14
REMARK    3  A    between atoms: C_3  and  N_4
REMARK    4  A    between atoms: O_14  and  C_15
REMARK    5  A    between atoms: C_15  and  P_16
REMARK                            x       y       z     vdW  Elec       q    Type
REMARK                         _______ _______ _______ _____ _____    ______ ____
ROOT
ATOM      1  N   UNL     1     -11.763  14.339  69.292  0.00  0.00    -0.292 N 
ATOM      2  C   UNL     1     -12.302  13.877  70.445  0.00  0.00    +0.167 A 
ATOM      3  N   UNL     1     -12.723  12.675  70.853  0.00  0.00    -0.205 NA
ATOM      4  C   UNL     1     -13.248  12.548  72.096  0.00  0.00    +0.202 A 
ATOM      5  N   UNL     1     -13.968  13.599  72.559  0.00  0.00    -0.204 NA
ATOM      6  C   UNL     1     -13.630  14.856  72.205  0.00  0.00    +0.192 A 
ATOM      7  N   UNL     1     -14.358  16.007  72.558  0.00  0.00    -0.105 NA
ATOM      8  C   UNL     1     -12.654  14.970  71.221  0.00  0.00    +0.152 A 
ATOM      9  N   UNL     1     -11.853  15.969  70.787  0.00  0.00    -0.219 NA
ATOM     10  C   UNL     1     -11.326  15.575  69.602  0.00  0.00    +0.180 A 
ENDROOT
BRANCH   1  11
ATOM     11  C   UNL     1     -11.877  13.718  67.977  0.00  0.00    +0.138 C 
BRANCH  11  13
ATOM     12  C   UNL     1     -11.362  11.383  67.742  0.00  0.00    +0.034 C 
ATOM     13  C   UNL     1     -10.470  12.802  67.872  0.00  0.00    +0.138 C 
BRANCH  13  14
ATOM     14  O   UNL     1     -10.429  12.971  66.334  0.00  0.00    -0.346 OA
BRANCH  14  15
ATOM     15  C   UNL     1     -11.758  12.769  66.014  0.00  0.00    +0.200 C 
BRANCH  15  16
ATOM     16  P   UNL     1     -12.126  12.857  64.265  0.00  0.00    +0.147 P 
ATOM     17  O   UNL     1     -10.817  12.428  63.286  0.00  0.00    -0.355 OA
ATOM     18  O   UNL     1     -12.483  14.469  63.887  0.00  0.00    -0.355 OA
ATOM     19  O   UNL     1     -13.292  11.991  63.851  0.00  0.00    -0.458 OA
ENDBRANCH  15  16
ENDBRANCH  14  15
ENDBRANCH  13  14
ENDBRANCH  11  13
ENDBRANCH   1  11
TORSDOF 5
ENDMDL
MODEL 3
REMARK VINA RESULT:      -6.2      4.677      6.198
REMARK  Name = 
REMARK  5 active torsions:
REMARK  status: ('A' for Active; 'I' for Inactive)
REMARK    1  A    between atoms: C_2  and  C_3
REMARK    2  A    between atoms: C_2  and  O_14
REMARK    3  A    between atoms: C_3  and  N_4
REMARK    4  A    between atoms: O_14  and  C_15
REMARK    5  A    between atoms: C_15  and  P_16
REMARK                            x       y       z     vdW  Elec       q    Type
REMARK                         _______ _______ _______ _____ _____    ______ ____
ROOT
ATOM      1  N   UNL     1     -10.305  16.658  68.645  0.00  0.00    -0.292 N 
ATOM      2  C   UNL     1     -10.088  17.826  67.994  0.00  0.00    +0.167 A 
ATOM      3  N   UNL     1     -10.887  18.813  67.575  0.00  0.00    -0.205 NA
ATOM      4  C   UNL     1     -10.343  19.864  66.913  0.00  0.00    +0.202 A 
ATOM      5  N   UNL     1      -9.289  19.591  66.105  0.00  0.00    -0.204 NA
ATOM      6  C   UNL     1      -8.424  18.610  66.434  0.00  0.00    +0.192 A 
ATOM      7  N   UNL     1      -7.352  18.189  65.626  0.00  0.00    -0.105 NA
ATOM      8  C   UNL     1      -8.789  17.812  67.512  0.00  0.00    +0.152 A 
ATOM      9  N   UNL     1      -8.135  16.947  68.319  0.00  0.00    -0.219 NA
ATOM     10  C   UNL     1      -9.073  16.240  68.996  0.00  0.00    +0.180 A 
ENDROOT
BRANCH   1  11
ATOM     11  C   UNL     1     -11.567  15.928  68.709  0.00  0.00    +0.138 C 
BRANCH  11  13
ATOM     12  C   UNL     1     -12.205  13.829  69.690  0.00  0.00    +0.034 C 
ATOM     13  C   UNL     1     -11.081  14.326  68.541  0.00  0.00    +0.138 C 
BRANCH  13  14
ATOM     14  O   UNL     1     -12.091  14.100  67.391  0.00  0.00    -0.346 OA
BRANCH  14  15
ATOM     15  C   UNL     1     -11.280  14.296  66.289  0.00  0.00    +0.200 C 
BRANCH  15  16
ATOM     16  P   UNL     1     -11.974  13.729  64.741  0.00  0.00    +0.147 P 
ATOM     17  O   UNL     1     -13.185  12.568  64.938  0.00  0.00    -0.355 OA
ATOM     18  O   UNL     1     -10.740  12.971  63.861  0.00  0.00    -0.355 OA
ATOM     19  O   UNL     1     -12.557  14.840  63.900  0.00  0.00    -0.458 OA
ENDBRANCH  15  16
ENDBRANCH  14  15
ENDBRANCH  13  14
ENDBRANCH  11  13
ENDBRANCH   1  11
TORSDOF 5
ENDMDL
MODEL 4
REMARK VINA RESULT:      -6.1      5.436      7.346
REMARK  Name = 
REMARK  5 active torsions:
REMARK  status: ('A' for Active; 'I' for Inactive)
REMARK    1  A    between atoms: C_2  and  C_3
REMARK    2  A    between atoms: C_2  and  O_14
REMARK    3  A    between atoms: C_3  and  N_4
REMARK    4  A    between atoms: O_14  and  C_15
REMARK    5  A    between atoms: C_15  and  P_16
REMARK                            x       y       z     vdW  Elec       q    Type
REMARK                         _______ _______ _______ _____ _____    ______ ____
ROOT
ATOM      1  N   UNL     1     -11.734  10.466  69.985  0.00  0.00    -0.292 N 
ATOM      2  C   UNL     1     -11.852   9.287  70.641  0.00  0.00    +0.167 A 
ATOM      3  N   UNL     1     -11.280   8.087  70.496  0.00  0.00    -0.205 NA
ATOM      4  C   UNL     1     -11.645   7.079  71.326  0.00  0.00    +0.202 A 
ATOM      5  N   UNL     1     -12.943   7.056  71.716  0.00  0.00    -0.204 NA
ATOM      6  C   UNL     1     -13.616   8.213  71.887  0.00  0.00    +0.192 A 
ATOM      7  N   UNL     1     -14.983   8.300  72.205  0.00  0.00    -0.105 NA
ATOM      8  C   UNL     1     -12.963   9.366  71.465  0.00  0.00    +0.152 A 
ATOM      9  N   UNL     1     -13.129  10.689  71.689  0.00  0.00    -0.219 NA
ATOM     10  C   UNL     1     -12.383  11.349  70.769  0.00  0.00    +0.180 A 
ENDROOT
BRANCH   1  11
ATOM     11  C   UNL     1     -11.236  10.651  68.625  0.00  0.00    +0.138 C 
BRANCH  11  13
ATOM     12  C   UNL     1     -10.132  12.673  67.943  0.00  0.00    +0.034 C 
ATOM     13  C   UNL     1     -11.720  12.220  68.260  0.00  0.00    +0.138 C 
BRANCH  13  14
ATOM     14  O   UNL     1     -11.956  11.843  66.778  0.00  0.00    -0.346 OA
BRANCH  14  15
ATOM     15  C   UNL     1     -12.168  13.090  66.221  0.00  0.00    +0.200 C 
BRANCH  15  16
ATOM     16  P   UNL     1     -12.166  13.119  64.433  0.00  0.00    +0.147 P 
ATOM     17  O   UNL     1     -10.660  12.747  63.762  0.00  0.00    -0.355 OA
ATOM     18  O   UNL     1     -12.521  14.699  63.935  0.00  0.00    -0.355 OA
ATOM     19  O   UNL     1     -13.171  12.178  63.814  0.00  0.00    -0.458 OA
ENDBRANCH  15  16
ENDBRANCH  14  15
ENDBRANCH  13  14
ENDBRANCH  11  13
ENDBRANCH   1  11
TORSDOF 5
ENDMDL
MODEL 5
REMARK VINA RESULT:      -6.0      4.777      6.479
REMARK  Name = 
REMARK  5 active torsions:
REMARK  status: ('A' for Active; 'I' for Inactive)
REMARK    1  A    between atoms: C_2  and  C_3
REMARK    2  A    between atoms: C_2  and  O_14
REMARK    3  A    between atoms: C_3  and  N_4
REMARK    4  A    between atoms: O_14  and  C_15
REMARK    5  A    between atoms: C_15  and  P_16
REMARK                            x       y       z     vdW  Elec       q    Type
REMARK                         _______ _______ _______ _____ _____    ______ ____
ROOT
ATOM      1  N   UNL     1     -10.728  15.874  67.210  0.00  0.00    -0.292 N 
ATOM      2  C   UNL     1     -10.355  17.113  67.612  0.00  0.00    +0.167 A 
ATOM      3  N   UNL     1     -10.321  17.729  68.798  0.00  0.00    -0.205 NA
ATOM      4  C   UNL     1      -9.906  19.018  68.859  0.00  0.00    +0.202 A 
ATOM      5  N   UNL     1     -10.232  19.809  67.808  0.00  0.00    -0.204 NA
ATOM      6  C   UNL     1     -10.299  19.286  66.566  0.00  0.00    +0.192 A 
ATOM      7  N   UNL     1     -10.710  19.995  65.424  0.00  0.00    -0.105 NA
ATOM      8  C   UNL     1     -10.204  17.901  66.483  0.00  0.00    +0.152 A 
ATOM      9  N   UNL     1      -9.952  17.024  65.485  0.00  0.00    -0.219 NA
ATOM     10  C   UNL     1     -10.288  15.792  65.939  0.00  0.00    +0.180 A 
ENDROOT
BRANCH   1  11
ATOM     11  C   UNL     1     -11.618  14.966  67.926  0.00  0.00    +0.138 C 
BRANCH  11  13
ATOM     12  C   UNL     1     -11.564  12.803  68.970  0.00  0.00    +0.034 C 
ATOM     13  C   UNL     1     -11.014  13.450  67.519  0.00  0.00    +0.138 C 
BRANCH  13  14
ATOM     14  O   UNL     1     -12.332  13.076  66.801  0.00  0.00    -0.346 OA
BRANCH  14  15
ATOM     15  C   UNL     1     -11.874  12.162  65.871  0.00  0.00    +0.200 C 
BRANCH  15  16
ATOM     16  P   UNL     1     -11.987  12.704  64.171  0.00  0.00    +0.147 P 
ATOM     17  O   UNL     1     -12.990  11.728  63.224  0.00  0.00    -0.355 OA
ATOM     18  O   UNL     1     -10.443  12.592  63.483  0.00  0.00    -0.355 OA
ATOM     19  O   UNL     1     -12.482  14.123  64.024  0.00  0.00    -0.458 OA
ENDBRANCH  15  16
ENDBRANCH  14  15
ENDBRANCH  13  14
ENDBRANCH  11  13
ENDBRANCH   1  11
TORSDOF 5
ENDMDL
MODEL 6
REMARK VINA RESULT:      -6.0      4.359      6.417
REMARK  Name = 
REMARK  5 active torsions:
REMARK  status: ('A' for Active; 'I' for Inactive)
REMARK    1  A    between atoms: C_2  and  C_3
REMARK    2  A    between atoms: C_2  and  O_14
REMARK    3  A    between atoms: C_3  and  N_4
REMARK    4  A    between atoms: O_14  and  C_15
REMARK    5  A    between atoms: C_15  and  P_16
REMARK                            x       y       z     vdW  Elec       q    Type
REMARK                         _______ _______ _______ _____ _____    ______ ____
ROOT
ATOM      1  N   UNL     1     -11.472  14.745  69.526  0.00  0.00    -0.292 N 
ATOM      2  C   UNL     1     -12.111  14.159  70.566  0.00  0.00    +0.167 A 
ATOM      3  N   UNL     1     -12.575  12.925  70.790  0.00  0.00    -0.205 NA
ATOM      4  C   UNL     1     -13.207  12.660  71.960  0.00  0.00    +0.202 A 
ATOM      5  N   UNL     1     -13.956  13.662  72.482  0.00  0.00    -0.204 NA
ATOM      6  C   UNL     1     -13.579  14.946  72.311  0.00  0.00    +0.192 A 
ATOM      7  N   UNL     1     -14.327  16.059  72.735  0.00  0.00    -0.105 NA
ATOM      8  C   UNL     1     -12.521  15.158  71.434  0.00  0.00    +0.152 A 
ATOM      9  N   UNL     1     -11.679  16.187  71.193  0.00  0.00    -0.219 NA
ATOM     10  C   UNL     1     -11.053  15.927  70.018  0.00  0.00    +0.180 A 
ENDROOT
BRANCH   1  11
ATOM     11  C   UNL     1     -11.476  14.285  68.141  0.00  0.00    +0.138 C 
BRANCH  11  13
ATOM     12  C   UNL     1     -10.049  12.804  66.900  0.00  0.00    +0.034 C 
ATOM     13  C   UNL     1      -9.839  14.235  67.758  0.00  0.00    +0.138 C 
BRANCH  13  14
ATOM     14  O   UNL     1     -10.071  15.084  66.486  0.00  0.00    -0.346 OA
BRANCH  14  15
ATOM     15  C   UNL     1      -9.304  16.198  66.772  0.00  0.00    +0.200 C 
BRANCH  15  16
ATOM     16  P   UNL     1     -10.055  17.757  66.320  0.00  0.00    +0.147 P 
ATOM     17  O   UNL     1     -11.000  17.663  64.922  0.00  0.00    -0.355 OA
ATOM     18  O   UNL     1      -8.812  18.854  65.970  0.00  0.00    -0.355 OA
ATOM     19  O   UNL     1     -10.927  18.342  67.405  0.00  0.00    -0.458 OA
ENDBRANCH  15  16
ENDBRANCH  14  15
ENDBRANCH  13  14
ENDBRANCH  11  13
ENDBRANCH   1  11
TORSDOF 5
ENDMDL
MODEL 7
REMARK VINA RESULT:      -6.0      2.886      4.470
REMARK  Name = 
REMARK  5 active torsions:
REMARK  status: ('A' for Active; 'I' for Inactive)
REMARK    1  A    between atoms: C_2  and  C_3
REMARK    2  A    between atoms: C_2  and  O_14
REMARK    3  A    between atoms: C_3  and  N_4
REMARK    4  A    between atoms: O_14  and  C_15
REMARK    5  A    between atoms: C_15  and  P_16
REMARK                            x       y       z     vdW  Elec       q    Type
REMARK                         _______ _______ _______ _____ _____    ______ ____
ROOT
ATOM      1  N   UNL     1      -9.569  15.837  67.689  0.00  0.00    -0.292 N 
ATOM      2  C   UNL     1      -9.031  17.079  67.693  0.00  0.00    +0.167 A 
ATOM      3  N   UNL     1      -8.301  17.769  68.576  0.00  0.00    -0.205 NA
ATOM      4  C   UNL     1      -7.930  19.038  68.276  0.00  0.00    +0.202 A 
ATOM      5  N   UNL     1      -8.815  19.774  67.559  0.00  0.00    -0.204 NA
ATOM      6  C   UNL     1      -9.604  19.174  66.644  0.00  0.00    +0.192 A 
ATOM      7  N   UNL     1     -10.610  19.827  65.910  0.00  0.00    -0.105 NA
ATOM      8  C   UNL     1      -9.576  17.784  66.632  0.00  0.00    +0.152 A 
ATOM      9  N   UNL     1      -9.963  16.833  65.752  0.00  0.00    -0.219 NA
ATOM     10  C   UNL     1      -9.966  15.650  66.415  0.00  0.00    +0.180 A 
ENDROOT
BRANCH   1  11
ATOM     11  C   UNL     1      -9.863  15.021  68.863  0.00  0.00    +0.138 C 
BRANCH  11  13
ATOM     12  C   UNL     1     -12.067  14.067  68.941  0.00  0.00    +0.034 C 
ATOM     13  C   UNL     1     -11.390  15.559  69.319  0.00  0.00    +0.138 C 
BRANCH  13  14
ATOM     14  O   UNL     1     -11.146  15.126  70.785  0.00  0.00    -0.346 OA
BRANCH  14  15
ATOM     15  C   UNL     1     -11.846  16.104  71.466  0.00  0.00    +0.200 C 
BRANCH  15  16
ATOM     16  P   UNL     1     -13.123  15.486  72.555  0.00  0.00    +0.147 P 
ATOM     17  O   UNL     1     -14.685  15.858  72.030  0.00  0.00    -0.355 OA
ATOM     18  O   UNL     1     -12.943  16.248  74.058  0.00  0.00    -0.355 OA
ATOM     19  O   UNL     1     -13.068  13.991  72.759  0.00  0.00    -0.458 OA
ENDBRANCH  15  16
ENDBRANCH  14  15
ENDBRANCH  13  14
ENDBRANCH  11  13
ENDBRANCH   1  11
TORSDOF 5
ENDMDL
MODEL 8
REMARK VINA RESULT:      -5.8      1.301      1.770
REMARK  Name = 
REMARK  5 active torsions:
REMARK  status: ('A' for Active; 'I' for Inactive)
REMARK    1  A    between atoms: C_2  and  C_3
REMARK    2  A    between atoms: C_2  and  O_14
REMARK    3  A    between atoms: C_3  and  N_4
REMARK    4  A    between atoms: O_14  and  C_15
REMARK    5  A    between atoms: C_15  and  P_16
REMARK                            x       y       z     vdW  Elec       q    Type
REMARK                         _______ _______ _______ _____ _____    ______ ____
ROOT
ATOM      1  N   UNL     1     -10.305  12.614  67.206  0.00  0.00    -0.292 N 
ATOM      2  C   UNL     1     -10.731  13.404  66.192  0.00  0.00    +0.167 A 
ATOM      3  N   UNL     1     -10.938  14.719  66.068  0.00  0.00    -0.205 NA
ATOM      4  C   UNL     1     -11.405  15.205  64.892  0.00  0.00    +0.202 A 
ATOM      5  N   UNL     1     -12.277  14.418  64.216  0.00  0.00    -0.204 NA
ATOM      6  C   UNL     1     -12.161  13.075  64.277  0.00  0.00    +0.192 A 
ATOM      7  N   UNL     1     -13.061  12.170  63.687  0.00  0.00    -0.105 NA
ATOM      8  C   UNL     1     -11.242  12.585  65.198  0.00  0.00    +0.152 A 
ATOM      9  N   UNL     1     -10.628  11.395  65.387  0.00  0.00    -0.219 NA
ATOM     10  C   UNL     1     -10.071  11.422  66.623  0.00  0.00    +0.180 A 
ENDROOT
BRANCH   1  11
ATOM     11  C   UNL     1     -10.345  12.939  68.629  0.00  0.00    +0.138 C 
BRANCH  11  13
ATOM     12  C   UNL     1     -11.978  11.567  69.735  0.00  0.00    +0.034 C 
ATOM     13  C   UNL     1     -11.994  13.049  68.941  0.00  0.00    +0.138 C 
BRANCH  13  14
ATOM     14  O   UNL     1     -11.732  13.811  70.261  0.00  0.00    -0.346 OA
BRANCH  14  15
ATOM     15  C   UNL     1     -12.773  14.720  70.250  0.00  0.00    +0.200 C 
BRANCH  15  16
ATOM     16  P   UNL     1     -13.390  15.169  71.868  0.00  0.00    +0.147 P 
ATOM     17  O   UNL     1     -12.389  16.259  72.684  0.00  0.00    -0.355 OA
ATOM     18  O   UNL     1     -13.428  13.768  72.820  0.00  0.00    -0.355 OA
ATOM     19  O   UNL     1     -14.773  15.774  71.838  0.00  0.00    -0.458 OA
ENDBRANCH  15  16
ENDBRANCH  14  15
ENDBRANCH  13  14
ENDBRANCH  11  13
ENDBRANCH   1  11
TORSDOF 5
ENDMDL
MODEL 9
REMARK VINA RESULT:      -5.8      1.500      1.647
REMARK  Name = 
REMARK  5 active torsions:
REMARK  status: ('A' for Active; 'I' for Inactive)
REMARK    1  A    between atoms: C_2  and  C_3
REMARK    2  A    between atoms: C_2  and  O_14
REMARK    3  A    between atoms: C_3  and  N_4
REMARK    4  A    between atoms: O_14  and  C_15
REMARK    5  A    between atoms: C_15  and  P_16
REMARK                            x       y       z     vdW  Elec       q    Type
REMARK                         _______ _______ _______ _____ _____    ______ ____
ROOT
ATOM      1  N   UNL     1     -10.806  14.306  67.700  0.00  0.00    -0.292 N 
ATOM      2  C   UNL     1     -11.085  14.006  66.409  0.00  0.00    +0.167 A 
ATOM      3  N   UNL     1     -12.027  14.407  65.549  0.00  0.00    -0.205 NA
ATOM      4  C   UNL     1     -12.045  13.881  64.299  0.00  0.00    +0.202 A 
ATOM      5  N   UNL     1     -11.672  12.583  64.183  0.00  0.00    -0.204 NA
ATOM      6  C   UNL     1     -10.731  12.076  65.006  0.00  0.00    +0.192 A 
ATOM      7  N   UNL     1     -10.335  10.727  65.027  0.00  0.00    -0.105 NA
ATOM      8  C   UNL     1     -10.334  12.896  66.057  0.00  0.00    +0.152 A 
ATOM      9  N   UNL     1      -9.281  12.911  66.905  0.00  0.00    -0.219 NA
ATOM     10  C   UNL     1      -9.589  13.768  67.910  0.00  0.00    +0.180 A 
ENDROOT
BRANCH   1  11
ATOM     11  C   UNL     1     -11.736  14.862  68.677  0.00  0.00    +0.138 C 
BRANCH  11  13
ATOM     12  C   UNL     1     -10.599  16.969  68.871  0.00  0.00    +0.034 C 
ATOM     13  C   UNL     1     -10.713  15.576  69.805  0.00  0.00    +0.138 C 
BRANCH  13  14
ATOM     14  O   UNL     1     -11.917  16.147  70.592  0.00  0.00    -0.346 OA
BRANCH  14  15
ATOM     15  C   UNL     1     -12.757  15.051  70.617  0.00  0.00    +0.200 C 
BRANCH  15  16
ATOM     16  P   UNL     1     -13.986  15.082  71.917  0.00  0.00    +0.147 P 
ATOM     17  O   UNL     1     -13.568  16.093  73.205  0.00  0.00    -0.355 OA
ATOM     18  O   UNL     1     -14.101  13.522  72.566  0.00  0.00    -0.355 OA
ATOM     19  O   UNL     1     -15.353  15.512  71.442  0.00  0.00    -0.458 OA
ENDBRANCH  15  16
ENDBRANCH  14  15
ENDBRANCH  13  14
ENDBRANCH  11  13
ENDBRANCH   1  11
TORSDOF 5
ENDMDL
