MODEL 1
REMARK VINA RESULT:      -6.9      0.000      0.000
REMARK  Name = 
REMARK  3 active torsions:
REMARK  status: ('A' for Active; 'I' for Inactive)
REMARK    1  A    between atoms: O_2  and  C_3
REMARK    2  A    between atoms: C_49  and  O_50
REMARK    3  A    between atoms: O_50  and  C_51
REMARK                            x       y       z     vdW  Elec       q    Type
REMARK                         _______ _______ _______ _____ _____    ______ ____
ROOT
ATOM      1  C   UNL     1      -5.938   4.781  71.566  0.00  0.00    +0.144 C 
ATOM      2  C   UNL     1      -7.185   5.419  72.538  0.00  0.00    +0.072 C 
ATOM      3  C   UNL     1      -6.512   6.867  72.645  0.00  0.00    +0.007 C 
ATOM      4  C   UNL     1      -8.221   5.804  71.269  0.00  0.00    +0.174 C 
ATOM      5  C   UNL     1      -9.155   6.819  72.255  0.00  0.00    +0.071 C 
ATOM      6  C   UNL     1     -10.586   6.227  71.839  0.00  0.00    +0.006 C 
ATOM      7  C   UNL     1      -9.032   7.973  71.023  0.00  0.00    +0.158 C 
ATOM      8  O   UNL     1      -8.539   9.019  71.987  0.00  0.00    -0.223 OA
ATOM      9  C   UNL     1     -10.599   8.595  71.127  0.00  0.00    +0.061 C 
ATOM     10  C   UNL     1     -11.240   7.761  69.913  0.00  0.00    +0.005 C 
ATOM     11  C   UNL     1     -10.117   9.933  70.201  0.00  0.00    +0.158 C 
ATOM     12  O   UNL     1      -9.491   9.103  69.122  0.00  0.00    -0.223 OA
ATOM     13  C   UNL     1     -11.621  10.116  69.404  0.00  0.00    +0.053 C 
ATOM     14  C   UNL     1     -11.854  11.566  70.099  0.00  0.00    +0.007 C 
ATOM     15  C   UNL     1     -11.078  10.796  68.075  0.00  0.00    -0.024 C 
ATOM     16  C   UNL     1     -10.589   9.865  67.335  0.00  0.00    -0.005 C 
ATOM     17  C   UNL     1     -10.475   9.962  65.975  0.00  0.00    -0.000 C 
ATOM     18  C   UNL     1     -10.461  11.022  65.260  0.00  0.00    +0.033 C 
ATOM     19  C   UNL     1     -11.454  11.414  64.195  0.00  0.00    +0.036 C 
ATOM     20  C   UNL     1      -9.936  12.041  66.186  0.00  0.00    +0.265 C 
ATOM     21  O   UNL     1     -10.330  13.257  66.139  0.00  0.00    -0.268 OA
ATOM     22  N   UNL     1      -8.739  11.577  66.738  0.00  0.00    -0.171 NA
ATOM     23  C   UNL     1      -7.872  10.927  65.838  0.00  0.00    +0.130 A 
ATOM     24  C   UNL     1      -6.587  11.134  66.391  0.00  0.00    +0.215 A 
ATOM     25  C   UNL     1      -5.583  10.192  66.211  0.00  0.00    +0.081 A 
ATOM     26  C   UNL     1      -6.108   8.909  65.976  0.00  0.00    +0.031 A 
ATOM     27  C   UNL     1      -7.240   8.853  65.165  0.00  0.00    +0.101 A 
ATOM     28  N   UNL     1      -7.924   7.960  64.392  0.00  0.00    -0.226 NA
ATOM     29  C   UNL     1      -8.275   8.571  63.231  0.00  0.00    +0.147 A 
ATOM     30  N   UNL     1      -8.083   9.886  63.511  0.00  0.00    -0.288 N 
ATOM     31  C   UNL     1      -8.037  10.784  62.498  0.00  0.00    +0.081 A 
ATOM     32  C   UNL     1      -8.340  10.299  61.231  0.00  0.00    +0.015 A 
ATOM     33  C   UNL     1      -8.167   8.958  60.907  0.00  0.00    -0.017 A 
ATOM     34  C   UNL     1      -7.463   8.501  59.675  0.00  0.00    +0.031 C 
ATOM     35  C   UNL     1      -8.479   8.097  61.952  0.00  0.00    +0.033 A 
ATOM     36  C   UNL     1      -5.184   7.917  66.208  0.00  0.00    +0.077 A 
ATOM     37  C   UNL     1      -5.387   6.690  67.001  0.00  0.00    +0.251 C 
ATOM     38  C   UNL     1      -4.546   6.958  68.176  0.00  0.00    +0.326 C 
ATOM     39  O   UNL     1      -3.365   7.360  67.477  0.00  0.00    -0.443 OA
ATOM     40  C   UNL     1      -5.116   8.196  68.822  0.00  0.00    +0.100 C 
ATOM     41  O   UNL     1      -4.221   5.929  69.011  0.00  0.00    -0.440 OA
ATOM     42  C   UNL     1      -4.589   6.178  70.344  0.00  0.00    +0.174 C 
ATOM     43  O   UNL     1      -5.698   5.516  66.628  0.00  0.00    -0.284 OA
ATOM     44  C   UNL     1      -3.850   8.252  66.510  0.00  0.00    +0.145 A 
ATOM     45  C   UNL     1      -3.386   9.469  66.008  0.00  0.00    +0.051 A 
ATOM     46  C   UNL     1      -1.938   9.729  66.031  0.00  0.00    +0.038 C 
ATOM     47  C   UNL     1      -4.274  10.536  65.882  0.00  0.00    +0.198 A 
ATOM     48  O   UNL     1      -3.883  11.858  66.063  0.00  0.00    -0.287 OA
ATOM     49  O   UNL     1      -6.139  12.357  66.880  0.00  0.00    -0.285 OA
ATOM     50  C   UNL     1      -8.005  10.030  64.882  0.00  0.00    +0.101 A 
ATOM     51  C   UNL     1      -5.907   5.981  70.475  0.00  0.00    +0.043 C 
ENDROOT
BRANCH   1  53
ATOM     52  C   UNL     1      -6.104   3.016  70.131  0.00  0.00    +0.174 C 
ATOM     53  O   UNL     1      -6.869   3.945  70.709  0.00  0.00    -0.349 OA
ENDBRANCH   1  53
BRANCH   4  54
ATOM     54  O   UNL     1      -9.022   4.529  71.464  0.00  0.00    -0.452 OA
BRANCH  54  55
ATOM     55  C   UNL     1      -9.469   3.800  70.425  0.00  0.00    +0.317 C 
ATOM     56  O   UNL     1      -9.810   2.606  70.612  0.00  0.00    -0.250 OA
ATOM     57  C   UNL     1      -9.708   4.519  69.135  0.00  0.00    +0.121 C 
ENDBRANCH  54  55
ENDBRANCH   4  54
TORSDOF 3
ENDMDL
MODEL 2
REMARK VINA RESULT:      -6.7      3.342      5.985
REMARK  Name = 
REMARK  3 active torsions:
REMARK  status: ('A' for Active; 'I' for Inactive)
REMARK    1  A    between atoms: O_2  and  C_3
REMARK    2  A    between atoms: C_49  and  O_50
REMARK    3  A    between atoms: O_50  and  C_51
REMARK                            x       y       z     vdW  Elec       q    Type
REMARK                         _______ _______ _______ _____ _____    ______ ____
ROOT
ATOM      1  C   UNL     1      -6.777   3.225  61.974  0.00  0.00    +0.144 C 
ATOM      2  C   UNL     1      -6.848   2.207  63.340  0.00  0.00    +0.072 C 
ATOM      3  C   UNL     1      -5.585   2.887  64.049  0.00  0.00    +0.007 C 
ATOM      4  C   UNL     1      -8.011   3.100  64.167  0.00  0.00    +0.174 C 
ATOM      5  C   UNL     1      -7.663   2.318  65.630  0.00  0.00    +0.071 C 
ATOM      6  C   UNL     1      -9.177   1.973  66.028  0.00  0.00    +0.006 C 
ATOM      7  C   UNL     1      -7.600   3.857  66.330  0.00  0.00    +0.158 C 
ATOM      8  O   UNL     1      -6.243   3.585  66.922  0.00  0.00    -0.223 OA
ATOM      9  C   UNL     1      -8.335   3.476  67.802  0.00  0.00    +0.061 C 
ATOM     10  C   UNL     1      -9.813   3.994  67.444  0.00  0.00    +0.005 C 
ATOM     11  C   UNL     1      -7.775   4.941  68.449  0.00  0.00    +0.158 C 
ATOM     12  O   UNL     1      -8.292   5.770  67.313  0.00  0.00    -0.223 OA
ATOM     13  C   UNL     1      -9.135   5.193  69.457  0.00  0.00    +0.053 C 
ATOM     14  C   UNL     1      -8.217   5.062  70.791  0.00  0.00    +0.007 C 
ATOM     15  C   UNL     1      -9.067   6.778  69.517  0.00  0.00    -0.024 C 
ATOM     16  C   UNL     1      -9.563   7.231  68.420  0.00  0.00    -0.005 C 
ATOM     17  C   UNL     1     -10.109   8.480  68.296  0.00  0.00    -0.000 C 
ATOM     18  C   UNL     1      -9.914   9.502  69.040  0.00  0.00    +0.033 C 
ATOM     19  C   UNL     1     -10.942  10.235  69.865  0.00  0.00    +0.036 C 
ATOM     20  C   UNL     1      -8.567   9.262  69.587  0.00  0.00    +0.265 C 
ATOM     21  O   UNL     1      -8.249   9.630  70.771  0.00  0.00    -0.268 OA
ATOM     22  N   UNL     1      -7.687   9.013  68.532  0.00  0.00    -0.171 NA
ATOM     23  C   UNL     1      -7.854   9.837  67.401  0.00  0.00    +0.130 A 
ATOM     24  C   UNL     1      -6.571   9.869  66.808  0.00  0.00    +0.215 A 
ATOM     25  C   UNL     1      -6.432  10.006  65.434  0.00  0.00    +0.081 A 
ATOM     26  C   UNL     1      -7.571   9.548  64.747  0.00  0.00    +0.031 A 
ATOM     27  C   UNL     1      -8.798   9.847  65.336  0.00  0.00    +0.101 A 
ATOM     28  N   UNL     1     -10.117   9.948  65.000  0.00  0.00    -0.226 NA
ATOM     29  C   UNL     1     -10.629  11.062  65.583  0.00  0.00    +0.147 A 
ATOM     30  N   UNL     1      -9.686  11.381  66.507  0.00  0.00    -0.288 N 
ATOM     31  C   UNL     1      -9.700  12.610  67.077  0.00  0.00    +0.081 A 
ATOM     32  C   UNL     1     -10.789  13.419  66.772  0.00  0.00    +0.015 A 
ATOM     33  C   UNL     1     -11.510  13.251  65.595  0.00  0.00    -0.017 A 
ATOM     34  C   UNL     1     -11.858  14.378  64.684  0.00  0.00    +0.031 C 
ATOM     35  C   UNL     1     -11.649  11.919  65.222  0.00  0.00    +0.033 A 
ATOM     36  C   UNL     1      -7.310   9.284  63.422  0.00  0.00    +0.077 A 
ATOM     37  C   UNL     1      -7.684   8.069  62.675  0.00  0.00    +0.251 C 
ATOM     38  C   UNL     1      -6.372   7.439  62.467  0.00  0.00    +0.326 C 
ATOM     39  O   UNL     1      -5.684   8.591  61.972  0.00  0.00    -0.443 OA
ATOM     40  C   UNL     1      -5.823   7.156  63.843  0.00  0.00    +0.100 C 
ATOM     41  O   UNL     1      -6.252   6.439  61.546  0.00  0.00    -0.440 OA
ATOM     42  C   UNL     1      -5.724   5.259  62.095  0.00  0.00    +0.174 C 
ATOM     43  O   UNL     1      -8.684   7.844  61.925  0.00  0.00    -0.284 OA
ATOM     44  C   UNL     1      -6.051   9.599  62.875  0.00  0.00    +0.145 A 
ATOM     45  C   UNL     1      -5.354  10.647  63.480  0.00  0.00    +0.051 A 
ATOM     46  C   UNL     1      -4.192  11.212  62.776  0.00  0.00    +0.038 C 
ATOM     47  C   UNL     1      -5.500  10.859  64.849  0.00  0.00    +0.198 A 
ATOM     48  O   UNL     1      -4.462  11.333  65.645  0.00  0.00    -0.287 OA
ATOM     49  O   UNL     1      -5.390  10.058  67.521  0.00  0.00    -0.285 OA
ATOM     50  C   UNL     1      -8.878  10.279  66.699  0.00  0.00    +0.101 A 
ATOM     51  C   UNL     1      -6.686   4.629  62.780  0.00  0.00    +0.043 C 
ENDROOT
BRANCH   1  53
ATOM     52  C   UNL     1      -8.512   3.582  60.536  0.00  0.00    +0.174 C 
ATOM     53  O   UNL     1      -8.282   3.336  61.829  0.00  0.00    -0.349 OA
ENDBRANCH   1  53
BRANCH   4  54
ATOM     54  O   UNL     1      -9.126   2.182  63.700  0.00  0.00    -0.452 OA
BRANCH  54  55
ATOM     55  C   UNL     1     -10.380   2.625  63.497  0.00  0.00    +0.317 C 
ATOM     56  O   UNL     1     -10.671   3.809  63.798  0.00  0.00    -0.250 OA
ATOM     57  C   UNL     1     -11.313   1.726  62.750  0.00  0.00    +0.121 C 
ENDBRANCH  54  55
ENDBRANCH   4  54
TORSDOF 3
ENDMDL
MODEL 3
REMARK VINA RESULT:      -6.6      2.577      6.644
REMARK  Name = 
REMARK  3 active torsions:
REMARK  status: ('A' for Active; 'I' for Inactive)
REMARK    1  A    between atoms: O_2  and  C_3
REMARK    2  A    between atoms: C_49  and  O_50
REMARK    3  A    between atoms: O_50  and  C_51
REMARK                            x       y       z     vdW  Elec       q    Type
REMARK                         _______ _______ _______ _____ _____    ______ ____
ROOT
ATOM      1  C   UNL     1      -9.058   3.122  73.042  0.00  0.00    +0.144 C 
ATOM      2  C   UNL     1      -8.564   2.125  71.750  0.00  0.00    +0.072 C 
ATOM      3  C   UNL     1      -9.813   2.513  70.827  0.00  0.00    +0.007 C 
ATOM      4  C   UNL     1      -7.496   3.233  71.069  0.00  0.00    +0.174 C 
ATOM      5  C   UNL     1      -7.439   2.376  69.607  0.00  0.00    +0.071 C 
ATOM      6  C   UNL     1      -5.842   2.355  69.460  0.00  0.00    +0.006 C 
ATOM      7  C   UNL     1      -7.708   3.859  68.836  0.00  0.00    +0.158 C 
ATOM      8  O   UNL     1      -8.868   3.298  68.059  0.00  0.00    -0.223 OA
ATOM      9  C   UNL     1      -6.687   3.623  67.512  0.00  0.00    +0.061 C 
ATOM     10  C   UNL     1      -5.424   4.446  68.065  0.00  0.00    +0.005 C 
ATOM     11  C   UNL     1      -7.429   4.928  66.721  0.00  0.00    +0.158 C 
ATOM     12  O   UNL     1      -7.281   5.862  67.883  0.00  0.00    -0.223 OA
ATOM     13  C   UNL     1      -6.009   5.450  65.920  0.00  0.00    +0.053 C 
ATOM     14  C   UNL     1      -6.658   5.109  64.470  0.00  0.00    +0.007 C 
ATOM     15  C   UNL     1      -6.393   6.983  65.778  0.00  0.00    -0.024 C 
ATOM     16  C   UNL     1      -6.181   7.545  66.915  0.00  0.00    -0.005 C 
ATOM     17  C   UNL     1      -5.932   8.882  67.064  0.00  0.00    -0.000 C 
ATOM     18  C   UNL     1      -6.215   9.830  66.253  0.00  0.00    +0.033 C 
ATOM     19  C   UNL     1      -5.244  10.753  65.561  0.00  0.00    +0.036 C 
ATOM     20  C   UNL     1      -7.379   9.304  65.519  0.00  0.00    +0.265 C 
ATOM     21  O   UNL     1      -7.576   9.581  64.285  0.00  0.00    -0.268 OA
ATOM     22  N   UNL     1      -8.344   8.888  66.440  0.00  0.00    -0.171 NA
ATOM     23  C   UNL     1      -8.532   9.742  67.544  0.00  0.00    +0.130 A 
ATOM     24  C   UNL     1      -9.871   9.510  67.933  0.00  0.00    +0.215 A 
ATOM     25  C   UNL     1     -10.250   9.632  69.263  0.00  0.00    +0.081 A 
ATOM     26  C   UNL     1      -9.164   9.435  70.135  0.00  0.00    +0.031 A 
ATOM     27  C   UNL     1      -7.948   9.979  69.725  0.00  0.00    +0.101 A 
ATOM     28  N   UNL     1      -6.749  10.361  70.252  0.00  0.00    -0.226 NA
ATOM     29  C   UNL     1      -6.393  11.551  69.704  0.00  0.00    +0.147 A 
ATOM     30  N   UNL     1      -7.224  11.651  68.633  0.00  0.00    -0.288 N 
ATOM     31  C   UNL     1      -7.375  12.847  68.016  0.00  0.00    +0.081 A 
ATOM     32  C   UNL     1      -6.539  13.872  68.446  0.00  0.00    +0.015 A 
ATOM     33  C   UNL     1      -5.994  13.876  69.725  0.00  0.00    -0.017 A 
ATOM     34  C   UNL     1      -6.035  15.063  70.625  0.00  0.00    +0.031 C 
ATOM     35  C   UNL     1      -5.643  12.608  70.175  0.00  0.00    +0.033 A 
ATOM     36  C   UNL     1      -9.571   9.138  71.415  0.00  0.00    +0.077 A 
ATOM     37  C   UNL     1      -9.076   8.040  72.266  0.00  0.00    +0.251 C 
ATOM     38  C   UNL     1     -10.245   7.148  72.300  0.00  0.00    +0.326 C 
ATOM     39  O   UNL     1     -11.226   8.135  72.632  0.00  0.00    -0.443 OA
ATOM     40  C   UNL     1     -10.499   6.739  70.871  0.00  0.00    +0.100 C 
ATOM     41  O   UNL     1     -10.298   6.158  73.238  0.00  0.00    -0.440 OA
ATOM     42  C   UNL     1     -10.478   4.886  72.669  0.00  0.00    +0.174 C 
ATOM     43  O   UNL     1      -8.182   8.041  73.167  0.00  0.00    -0.284 OA
ATOM     44  C   UNL     1     -10.937   9.186  71.750  0.00  0.00    +0.145 A 
ATOM     45  C   UNL     1     -11.732  10.055  71.000  0.00  0.00    +0.051 A 
ATOM     46  C   UNL     1     -13.082  10.370  71.492  0.00  0.00    +0.038 C 
ATOM     47  C   UNL     1     -11.419  10.276  69.660  0.00  0.00    +0.198 A 
ATOM     48  O   UNL     1     -12.394  10.509  68.695  0.00  0.00    -0.287 OA
ATOM     49  O   UNL     1     -10.938   9.436  67.042  0.00  0.00    -0.285 OA
ATOM     50  C   UNL     1      -7.746  10.400  68.372  0.00  0.00    +0.101 A 
ATOM     51  C   UNL     1      -9.310   4.465  72.167  0.00  0.00    +0.043 C 
ENDROOT
BRANCH   1  53
ATOM     52  C   UNL     1      -7.694   3.897  74.697  0.00  0.00    +0.174 C 
ATOM     53  O   UNL     1      -7.651   3.551  73.408  0.00  0.00    -0.349 OA
ENDBRANCH   1  53
BRANCH   4  54
ATOM     54  O   UNL     1      -6.303   2.578  71.741  0.00  0.00    -0.452 OA
BRANCH  54  55
ATOM     55  C   UNL     1      -5.237   3.287  72.156  0.00  0.00    +0.317 C 
ATOM     56  O   UNL     1      -4.267   2.690  72.685  0.00  0.00    -0.250 OA
ATOM     57  C   UNL     1      -5.196   4.738  71.794  0.00  0.00    +0.121 C 
ENDBRANCH  54  55
ENDBRANCH   4  54
TORSDOF 3
ENDMDL
MODEL 4
REMARK VINA RESULT:      -6.5      2.839      5.796
REMARK  Name = 
REMARK  3 active torsions:
REMARK  status: ('A' for Active; 'I' for Inactive)
REMARK    1  A    between atoms: O_2  and  C_3
REMARK    2  A    between atoms: C_49  and  O_50
REMARK    3  A    between atoms: O_50  and  C_51
REMARK                            x       y       z     vdW  Elec       q    Type
REMARK                         _______ _______ _______ _____ _____    ______ ____
ROOT
ATOM      1  C   UNL     1      -4.327   5.594  63.462  0.00  0.00    +0.144 C 
ATOM      2  C   UNL     1      -5.135   4.285  64.197  0.00  0.00    +0.072 C 
ATOM      3  C   UNL     1      -4.515   4.571  65.644  0.00  0.00    +0.007 C 
ATOM      4  C   UNL     1      -6.583   5.099  64.466  0.00  0.00    +0.174 C 
ATOM      5  C   UNL     1      -7.108   3.929  65.575  0.00  0.00    +0.071 C 
ATOM      6  C   UNL     1      -8.572   3.720  64.955  0.00  0.00    +0.006 C 
ATOM      7  C   UNL     1      -7.492   5.215  66.607  0.00  0.00    +0.158 C 
ATOM      8  O   UNL     1      -6.705   4.607  67.736  0.00  0.00    -0.223 OA
ATOM      9  C   UNL     1      -8.923   4.585  67.245  0.00  0.00    +0.061 C 
ATOM     10  C   UNL     1      -9.948   5.387  66.304  0.00  0.00    +0.005 C 
ATOM     11  C   UNL     1      -8.866   5.741  68.486  0.00  0.00    +0.158 C 
ATOM     12  O   UNL     1      -8.666   6.896  67.554  0.00  0.00    -0.223 OA
ATOM     13  C   UNL     1     -10.563   5.925  68.602  0.00  0.00    +0.053 C 
ATOM     14  C   UNL     1     -10.562   5.326  70.113  0.00  0.00    +0.007 C 
ATOM     15  C   UNL     1     -10.581   7.415  69.149  0.00  0.00    -0.024 C 
ATOM     16  C   UNL     1     -10.378   8.199  68.149  0.00  0.00    -0.005 C 
ATOM     17  C   UNL     1     -10.787   9.504  68.116  0.00  0.00    -0.000 C 
ATOM     18  C   UNL     1     -11.075  10.264  69.104  0.00  0.00    +0.033 C 
ATOM     19  C   UNL     1     -12.406  10.906  69.399  0.00  0.00    +0.036 C 
ATOM     20  C   UNL     1     -10.271   9.700  70.202  0.00  0.00    +0.265 C 
ATOM     21  O   UNL     1     -10.690   9.704  71.411  0.00  0.00    -0.268 OA
ATOM     22  N   UNL     1      -8.941   9.600  69.786  0.00  0.00    -0.171 NA
ATOM     23  C   UNL     1      -8.457  10.699  69.049  0.00  0.00    +0.130 A 
ATOM     24  C   UNL     1      -7.065  10.692  69.299  0.00  0.00    +0.215 A 
ATOM     25  C   UNL     1      -6.174  11.151  68.338  0.00  0.00    +0.081 A 
ATOM     26  C   UNL     1      -6.710  11.054  67.042  0.00  0.00    +0.031 A 
ATOM     27  C   UNL     1      -8.062  11.370  66.916  0.00  0.00    +0.101 A 
ATOM     28  N   UNL     1      -8.959  11.745  65.958  0.00  0.00    -0.226 NA
ATOM     29  C   UNL     1      -9.738  12.737  66.458  0.00  0.00    +0.147 A 
ATOM     30  N   UNL     1      -9.495  12.670  67.793  0.00  0.00    -0.288 N 
ATOM     31  C   UNL     1      -9.861  13.702  68.590  0.00  0.00    +0.081 A 
ATOM     32  C   UNL     1     -10.603  14.712  67.989  0.00  0.00    +0.015 A 
ATOM     33  C   UNL     1     -10.524  14.955  66.623  0.00  0.00    -0.017 A 
ATOM     34  C   UNL     1     -10.322  16.315  66.047  0.00  0.00    +0.031 C 
ATOM     35  C   UNL     1     -10.394  13.796  65.866  0.00  0.00    +0.033 A 
ATOM     36  C   UNL     1      -5.736  11.099  66.071  0.00  0.00    +0.077 A 
ATOM     37  C   UNL     1      -5.590  10.182  64.926  0.00  0.00    +0.251 C 
ATOM     38  C   UNL     1      -4.377   9.439  65.300  0.00  0.00    +0.326 C 
ATOM     39  O   UNL     1      -3.558  10.566  65.626  0.00  0.00    -0.443 OA
ATOM     40  C   UNL     1      -4.700   8.741  66.597  0.00  0.00    +0.100 C 
ATOM     41  O   UNL     1      -3.731   8.700  64.353  0.00  0.00    -0.440 OA
ATOM     42  C   UNL     1      -3.579   7.355  64.729  0.00  0.00    +0.174 C 
ATOM     43  O   UNL     1      -5.982  10.303  63.724  0.00  0.00    -0.284 OA
ATOM     44  C   UNL     1      -4.398  11.355  66.425  0.00  0.00    +0.145 A 
ATOM     45  C   UNL     1      -4.194  12.102  67.587  0.00  0.00    +0.051 A 
ATOM     46  C   UNL     1      -2.852  12.650  67.839  0.00  0.00    +0.038 C 
ATOM     47  C   UNL     1      -5.096  11.979  68.642  0.00  0.00    +0.198 A 
ATOM     48  O   UNL     1      -4.706  12.079  69.973  0.00  0.00    -0.287 OA
ATOM     49  O   UNL     1      -6.503  10.520  70.561  0.00  0.00    -0.285 OA
ATOM     50  C   UNL     1      -8.912  11.449  68.066  0.00  0.00    +0.101 A 
ATOM     51  C   UNL     1      -4.744   6.719  64.553  0.00  0.00    +0.043 C 
ENDROOT
BRANCH   1  53
ATOM     52  C   UNL     1      -4.948   6.570  61.496  0.00  0.00    +0.174 C 
ATOM     53  O   UNL     1      -5.485   5.957  62.554  0.00  0.00    -0.349 OA
ENDBRANCH   1  53
BRANCH   4  54
ATOM     54  O   UNL     1      -7.213   4.503  63.220  0.00  0.00    -0.452 OA
BRANCH  54  55
ATOM     55  C   UNL     1      -8.127   5.169  62.491  0.00  0.00    +0.317 C 
ATOM     56  O   UNL     1      -8.444   6.339  62.820  0.00  0.00    -0.250 OA
ATOM     57  C   UNL     1      -8.580   4.535  61.215  0.00  0.00    +0.121 C 
ENDBRANCH  54  55
ENDBRANCH   4  54
TORSDOF 3
ENDMDL
MODEL 5
REMARK VINA RESULT:      -6.2      4.235      8.204
REMARK  Name = 
REMARK  3 active torsions:
REMARK  status: ('A' for Active; 'I' for Inactive)
REMARK    1  A    between atoms: O_2  and  C_3
REMARK    2  A    between atoms: C_49  and  O_50
REMARK    3  A    between atoms: O_50  and  C_51
REMARK                            x       y       z     vdW  Elec       q    Type
REMARK                         _______ _______ _______ _____ _____    ______ ____
ROOT
ATOM      1  C   UNL     1      -2.011  16.332  68.896  0.00  0.00    +0.144 C 
ATOM      2  C   UNL     1      -3.021  17.570  68.300  0.00  0.00    +0.072 C 
ATOM      3  C   UNL     1      -3.125  16.933  66.836  0.00  0.00    +0.007 C 
ATOM      4  C   UNL     1      -4.461  16.917  68.875  0.00  0.00    +0.174 C 
ATOM      5  C   UNL     1      -5.390  17.911  67.863  0.00  0.00    +0.071 C 
ATOM      6  C   UNL     1      -6.413  18.426  68.986  0.00  0.00    +0.006 C 
ATOM      7  C   UNL     1      -6.237  16.513  67.424  0.00  0.00    +0.158 C 
ATOM      8  O   UNL     1      -6.020  16.785  65.960  0.00  0.00    -0.223 OA
ATOM      9  C   UNL     1      -7.781  17.192  67.337  0.00  0.00    +0.061 C 
ATOM     10  C   UNL     1      -8.301  16.727  68.784  0.00  0.00    +0.005 C 
ATOM     11  C   UNL     1      -8.324  15.822  66.495  0.00  0.00    +0.158 C 
ATOM     12  O   UNL     1      -7.765  14.851  67.489  0.00  0.00    -0.223 OA
ATOM     13  C   UNL     1      -9.898  15.844  67.166  0.00  0.00    +0.053 C 
ATOM     14  C   UNL     1     -10.555  16.136  65.709  0.00  0.00    +0.007 C 
ATOM     15  C   UNL     1     -10.207  14.292  67.039  0.00  0.00    -0.024 C 
ATOM     16  C   UNL     1      -9.603  13.695  68.005  0.00  0.00    -0.005 C 
ATOM     17  C   UNL     1      -9.995  12.486  68.511  0.00  0.00    -0.000 C 
ATOM     18  C   UNL     1     -10.720  11.595  67.947  0.00  0.00    +0.033 C 
ATOM     19  C   UNL     1     -12.062  11.088  68.409  0.00  0.00    +0.036 C 
ATOM     20  C   UNL     1     -10.476  11.827  66.512  0.00  0.00    +0.265 C 
ATOM     21  O   UNL     1     -11.393  11.646  65.638  0.00  0.00    -0.268 OA
ATOM     22  N   UNL     1      -9.099  11.829  66.281  0.00  0.00    -0.171 NA
ATOM     23  C   UNL     1      -8.371  10.838  66.969  0.00  0.00    +0.130 A 
ATOM     24  C   UNL     1      -7.239  10.614  66.151  0.00  0.00    +0.215 A 
ATOM     25  C   UNL     1      -6.028  10.234  66.712  0.00  0.00    +0.081 A 
ATOM     26  C   UNL     1      -5.922  10.648  68.053  0.00  0.00    +0.031 A 
ATOM     27  C   UNL     1      -7.083  10.542  68.816  0.00  0.00    +0.101 A 
ATOM     28  N   UNL     1      -7.467  10.480  70.124  0.00  0.00    -0.226 NA
ATOM     29  C   UNL     1      -8.420   9.521  70.252  0.00  0.00    +0.147 A 
ATOM     30  N   UNL     1      -8.799   9.299  68.966  0.00  0.00    -0.288 N 
ATOM     31  C   UNL     1      -9.516   8.189  68.665  0.00  0.00    +0.081 A 
ATOM     32  C   UNL     1      -9.942   7.420  69.742  0.00  0.00    +0.015 A 
ATOM     33  C   UNL     1      -9.266   7.435  70.956  0.00  0.00    -0.017 A 
ATOM     34  C   UNL     1      -8.871   6.197  71.685  0.00  0.00    +0.031 C 
ATOM     35  C   UNL     1      -8.774   8.691  71.294  0.00  0.00    +0.033 A 
ATOM     36  C   UNL     1      -4.618  10.662  68.492  0.00  0.00    +0.077 A 
ATOM     37  C   UNL     1      -3.944  11.755  69.217  0.00  0.00    +0.251 C 
ATOM     38  C   UNL     1      -3.005  12.246  68.198  0.00  0.00    +0.326 C 
ATOM     39  O   UNL     1      -2.456  10.980  67.821  0.00  0.00    -0.443 OA
ATOM     40  C   UNL     1      -3.852  12.719  67.044  0.00  0.00    +0.100 C 
ATOM     41  O   UNL     1      -1.979  13.062  68.577  0.00  0.00    -0.440 OA
ATOM     42  C   UNL     1      -1.968  14.278  67.874  0.00  0.00    +0.174 C 
ATOM     43  O   UNL     1      -3.759  11.920  70.463  0.00  0.00    -0.284 OA
ATOM     44  C   UNL     1      -3.590  10.170  67.666  0.00  0.00    +0.145 A 
ATOM     45  C   UNL     1      -3.952   9.194  66.736  0.00  0.00    +0.051 A 
ATOM     46  C   UNL     1      -2.885   8.436  66.065  0.00  0.00    +0.038 C 
ATOM     47  C   UNL     1      -5.227   9.229  66.175  0.00  0.00    +0.198 A 
ATOM     48  O   UNL     1      -5.479   8.826  64.868  0.00  0.00    -0.287 OA
ATOM     49  O   UNL     1      -7.298  10.465  64.769  0.00  0.00    -0.285 OA
ATOM     50  C   UNL     1      -8.360  10.357  68.196  0.00  0.00    +0.101 A 
ATOM     51  C   UNL     1      -2.910  15.083  68.381  0.00  0.00    +0.043 C 
ENDROOT
BRANCH   1  53
ATOM     52  C   UNL     1      -1.938  15.438  70.993  0.00  0.00    +0.174 C 
ATOM     53  O   UNL     1      -2.651  16.305  70.270  0.00  0.00    -0.349 OA
ENDBRANCH   1  53
BRANCH   4  54
ATOM     54  O   UNL     1      -4.446  17.819  70.096  0.00  0.00    -0.452 OA
BRANCH  54  55
ATOM     55  C   UNL     1      -5.019  17.458  71.259  0.00  0.00    +0.317 C 
ATOM     56  O   UNL     1      -5.313  18.342  72.102  0.00  0.00    -0.250 OA
ATOM     57  C   UNL     1      -5.439  16.030  71.402  0.00  0.00    +0.121 C 
ENDBRANCH  54  55
ENDBRANCH   4  54
TORSDOF 3
ENDMDL
MODEL 6
REMARK VINA RESULT:      -6.1      2.827      5.326
REMARK  Name = 
REMARK  3 active torsions:
REMARK  status: ('A' for Active; 'I' for Inactive)
REMARK    1  A    between atoms: O_2  and  C_3
REMARK    2  A    between atoms: C_49  and  O_50
REMARK    3  A    between atoms: O_50  and  C_51
REMARK                            x       y       z     vdW  Elec       q    Type
REMARK                         _______ _______ _______ _____ _____    ______ ____
ROOT
ATOM      1  C   UNL     1      -9.842   5.793  73.654  0.00  0.00    +0.144 C 
ATOM      2  C   UNL     1      -9.980   7.485  73.503  0.00  0.00    +0.072 C 
ATOM      3  C   UNL     1      -8.404   7.710  73.340  0.00  0.00    +0.007 C 
ATOM      4  C   UNL     1     -10.324   7.488  71.855  0.00  0.00    +0.174 C 
ATOM      5  C   UNL     1      -9.974   9.142  71.720  0.00  0.00    +0.071 C 
ATOM      6  C   UNL     1     -11.299   9.553  70.916  0.00  0.00    +0.006 C 
ATOM      7  C   UNL     1      -9.025   8.735  70.379  0.00  0.00    +0.158 C 
ATOM      8  O   UNL     1      -7.835   9.467  70.940  0.00  0.00    -0.223 OA
ATOM      9  C   UNL     1      -9.405  10.065  69.410  0.00  0.00    +0.061 C 
ATOM     10  C   UNL     1     -10.520   9.354  68.498  0.00  0.00    +0.005 C 
ATOM     11  C   UNL     1      -8.084   9.701  68.410  0.00  0.00    +0.158 C 
ATOM     12  O   UNL     1      -8.464   8.261  68.243  0.00  0.00    -0.223 OA
ATOM     13  C   UNL     1      -8.836  10.228  66.966  0.00  0.00    +0.053 C 
ATOM     14  C   UNL     1      -7.744  11.419  66.790  0.00  0.00    +0.007 C 
ATOM     15  C   UNL     1      -8.041   9.295  65.956  0.00  0.00    -0.024 C 
ATOM     16  C   UNL     1      -8.563   8.122  66.018  0.00  0.00    -0.005 C 
ATOM     17  C   UNL     1      -8.492   7.208  65.002  0.00  0.00    -0.000 C 
ATOM     18  C   UNL     1      -7.653   7.168  64.037  0.00  0.00    +0.033 C 
ATOM     19  C   UNL     1      -7.957   7.278  62.564  0.00  0.00    +0.036 C 
ATOM     20  C   UNL     1      -6.470   7.844  64.597  0.00  0.00    +0.265 C 
ATOM     21  O   UNL     1      -5.701   8.562  63.869  0.00  0.00    -0.268 OA
ATOM     22  N   UNL     1      -6.136   7.241  65.812  0.00  0.00    -0.171 NA
ATOM     23  C   UNL     1      -6.221   5.835  65.831  0.00  0.00    +0.130 A 
ATOM     24  C   UNL     1      -5.288   5.449  66.821  0.00  0.00    +0.215 A 
ATOM     25  C   UNL     1      -5.495   4.302  67.575  0.00  0.00    +0.081 A 
ATOM     26  C   UNL     1      -6.859   3.966  67.648  0.00  0.00    +0.031 A 
ATOM     27  C   UNL     1      -7.595   4.148  66.479  0.00  0.00    +0.101 A 
ATOM     28  N   UNL     1      -8.758   3.724  65.904  0.00  0.00    -0.226 NA
ATOM     29  C   UNL     1      -8.521   3.448  64.597  0.00  0.00    +0.147 A 
ATOM     30  N   UNL     1      -7.319   4.041  64.375  0.00  0.00    -0.288 N 
ATOM     31  C   UNL     1      -6.612   3.721  63.265  0.00  0.00    +0.081 A 
ATOM     32  C   UNL     1      -7.250   2.899  62.344  0.00  0.00    +0.015 A 
ATOM     33  C   UNL     1      -8.267   2.032  62.727  0.00  0.00    -0.017 A 
ATOM     34  C   UNL     1      -8.305   0.595  62.333  0.00  0.00    +0.031 C 
ATOM     35  C   UNL     1      -9.094   2.559  63.712  0.00  0.00    +0.033 A 
ATOM     36  C   UNL     1      -7.131   3.116  68.696  0.00  0.00    +0.077 A 
ATOM     37  C   UNL     1      -8.209   3.261  69.692  0.00  0.00    +0.251 C 
ATOM     38  C   UNL     1      -7.445   3.589  70.904  0.00  0.00    +0.326 C 
ATOM     39  O   UNL     1      -6.479   2.538  70.810  0.00  0.00    -0.443 OA
ATOM     40  C   UNL     1      -6.723   4.879  70.605  0.00  0.00    +0.100 C 
ATOM     41  O   UNL     1      -8.058   3.501  72.120  0.00  0.00    -0.440 OA
ATOM     42  C   UNL     1      -7.993   4.702  72.846  0.00  0.00    +0.174 C 
ATOM     43  O   UNL     1      -9.368   2.741  69.725  0.00  0.00    -0.284 OA
ATOM     44  C   UNL     1      -6.078   2.589  69.467  0.00  0.00    +0.145 A 
ATOM     45  C   UNL     1      -4.843   2.460  68.829  0.00  0.00    +0.051 A 
ATOM     46  C   UNL     1      -3.801   1.648  69.478  0.00  0.00    +0.038 C 
ATOM     47  C   UNL     1      -4.484   3.385  67.851  0.00  0.00    +0.198 A 
ATOM     48  O   UNL     1      -3.168   3.789  67.653  0.00  0.00    -0.287 OA
ATOM     49  O   UNL     1      -4.004   5.975  66.926  0.00  0.00    -0.285 OA
ATOM     50  C   UNL     1      -7.083   4.936  65.399  0.00  0.00    +0.101 A 
ATOM     51  C   UNL     1      -8.900   5.556  72.356  0.00  0.00    +0.043 C 
ENDROOT
BRANCH   1  53
ATOM     52  C   UNL     1     -11.516   4.292  73.268  0.00  0.00    +0.174 C 
ATOM     53  O   UNL     1     -11.104   5.498  72.868  0.00  0.00    -0.349 OA
ENDBRANCH   1  53
BRANCH   4  54
ATOM     54  O   UNL     1     -11.815   7.611  72.112  0.00  0.00    -0.452 OA
BRANCH  54  55
ATOM     55  C   UNL     1     -12.732   7.146  71.243  0.00  0.00    +0.317 C 
ATOM     56  O   UNL     1     -12.354   6.501  70.234  0.00  0.00    -0.250 OA
ATOM     57  C   UNL     1     -14.171   7.273  71.631  0.00  0.00    +0.121 C 
ENDBRANCH  54  55
ENDBRANCH   4  54
TORSDOF 3
ENDMDL
MODEL 7
REMARK VINA RESULT:      -6.1      3.254      7.755
REMARK  Name = 
REMARK  3 active torsions:
REMARK  status: ('A' for Active; 'I' for Inactive)
REMARK    1  A    between atoms: O_2  and  C_3
REMARK    2  A    between atoms: C_49  and  O_50
REMARK    3  A    between atoms: O_50  and  C_51
REMARK                            x       y       z     vdW  Elec       q    Type
REMARK                         _______ _______ _______ _____ _____    ______ ____
ROOT
ATOM      1  C   UNL     1      -5.885   6.934  60.019  0.00  0.00    +0.144 C 
ATOM      2  C   UNL     1      -6.114   5.253  60.185  0.00  0.00    +0.072 C 
ATOM      3  C   UNL     1      -5.016   5.105  61.340  0.00  0.00    +0.007 C 
ATOM      4  C   UNL     1      -7.438   5.355  61.220  0.00  0.00    +0.174 C 
ATOM      5  C   UNL     1      -7.282   3.732  61.683  0.00  0.00    +0.071 C 
ATOM      6  C   UNL     1      -8.820   3.326  61.479  0.00  0.00    +0.006 C 
ATOM      7  C   UNL     1      -7.412   4.273  63.282  0.00  0.00    +0.158 C 
ATOM      8  O   UNL     1      -6.152   3.552  63.678  0.00  0.00    -0.223 OA
ATOM      9  C   UNL     1      -8.347   3.003  63.884  0.00  0.00    +0.061 C 
ATOM     10  C   UNL     1      -9.776   3.732  63.805  0.00  0.00    +0.005 C 
ATOM     11  C   UNL     1      -7.975   3.493  65.465  0.00  0.00    +0.158 C 
ATOM     12  O   UNL     1      -8.350   4.924  65.231  0.00  0.00    -0.223 OA
ATOM     13  C   UNL     1      -9.487   3.041  66.127  0.00  0.00    +0.053 C 
ATOM     14  C   UNL     1      -8.783   1.912  67.059  0.00  0.00    +0.007 C 
ATOM     15  C   UNL     1      -9.514   4.077  67.330  0.00  0.00    -0.024 C 
ATOM     16  C   UNL     1      -9.855   5.220  66.851  0.00  0.00    -0.005 C 
ATOM     17  C   UNL     1     -10.441   6.208  67.596  0.00  0.00    -0.000 C 
ATOM     18  C   UNL     1     -10.419   6.352  68.866  0.00  0.00    +0.033 C 
ATOM     19  C   UNL     1     -11.601   6.337  69.803  0.00  0.00    +0.036 C 
ATOM     20  C   UNL     1      -9.164   5.687  69.256  0.00  0.00    +0.265 C 
ATOM     21  O   UNL     1      -9.055   5.055  70.363  0.00  0.00    -0.268 OA
ATOM     22  N   UNL     1      -8.117   6.213  68.495  0.00  0.00    -0.171 NA
ATOM     23  C   UNL     1      -8.149   7.609  68.311  0.00  0.00    +0.130 A 
ATOM     24  C   UNL     1      -6.792   7.960  68.124  0.00  0.00    +0.215 A 
ATOM     25  C   UNL     1      -6.447   9.040  67.322  0.00  0.00    +0.081 A 
ATOM     26  C   UNL     1      -7.439   9.314  66.362  0.00  0.00    +0.031 A 
ATOM     27  C   UNL     1      -8.757   9.187  66.796  0.00  0.00    +0.101 A 
ATOM     28  N   UNL     1     -10.010   9.603  66.452  0.00  0.00    -0.226 NA
ATOM     29  C   UNL     1     -10.666   9.983  67.578  0.00  0.00    +0.147 A 
ATOM     30  N   UNL     1      -9.898   9.457  68.567  0.00  0.00    -0.288 N 
ATOM     31  C   UNL     1     -10.066   9.886  69.841  0.00  0.00    +0.081 A 
ATOM     32  C   UNL     1     -11.135  10.746  70.066  0.00  0.00    +0.015 A 
ATOM     33  C   UNL     1     -11.653  11.540  69.049  0.00  0.00    -0.017 A 
ATOM     34  C   UNL     1     -11.914  12.999  69.208  0.00  0.00    +0.031 C 
ATOM     35  C   UNL     1     -11.661  10.910  67.811  0.00  0.00    +0.033 A 
ATOM     36  C   UNL     1      -6.959  10.073  65.320  0.00  0.00    +0.077 A 
ATOM     37  C   UNL     1      -7.146   9.812  63.880  0.00  0.00    +0.251 C 
ATOM     38  C   UNL     1      -5.786   9.429  63.474  0.00  0.00    +0.326 C 
ATOM     39  O   UNL     1      -5.092  10.522  64.080  0.00  0.00    -0.443 OA
ATOM     40  C   UNL     1      -5.446   8.195  64.272  0.00  0.00    +0.100 C 
ATOM     41  O   UNL     1      -5.471   9.403  62.147  0.00  0.00    -0.440 OA
ATOM     42  C   UNL     1      -4.973   8.156  61.734  0.00  0.00    +0.174 C 
ATOM     43  O   UNL     1      -8.004  10.280  63.068  0.00  0.00    -0.284 OA
ATOM     44  C   UNL     1      -5.649  10.586  65.365  0.00  0.00    +0.145 A 
ATOM     45  C   UNL     1      -5.112  10.811  66.634  0.00  0.00    +0.051 A 
ATOM     46  C   UNL     1      -3.886  11.616  66.743  0.00  0.00    +0.038 C 
ATOM     47  C   UNL     1      -5.482   9.975  67.686  0.00  0.00    +0.198 A 
ATOM     48  O   UNL     1      -4.608   9.641  68.715  0.00  0.00    -0.287 OA
ATOM     49  O   UNL     1      -5.750   7.481  68.912  0.00  0.00    -0.285 OA
ATOM     50  C   UNL     1      -9.072   8.501  68.012  0.00  0.00    +0.101 A 
ATOM     51  C   UNL     1      -5.996   7.303  61.595  0.00  0.00    +0.043 C 
ENDROOT
BRANCH   1  53
ATOM     52  C   UNL     1      -7.391   8.388  59.114  0.00  0.00    +0.174 C 
ATOM     53  O   UNL     1      -7.352   7.233  59.783  0.00  0.00    -0.349 OA
ENDBRANCH   1  53
BRANCH   4  54
ATOM     54  O   UNL     1      -8.415   5.153  60.076  0.00  0.00    -0.452 OA
BRANCH  54  55
ATOM     55  C   UNL     1      -9.671   5.636  60.115  0.00  0.00    +0.317 C 
ATOM     56  O   UNL     1      -9.943   6.586  60.889  0.00  0.00    -0.250 OA
ATOM     57  C   UNL     1     -10.633   5.124  59.090  0.00  0.00    +0.121 C 
ENDBRANCH  54  55
ENDBRANCH   4  54
TORSDOF 3
ENDMDL
MODEL 8
REMARK VINA RESULT:      -6.1      2.661      5.895
REMARK  Name = 
REMARK  3 active torsions:
REMARK  status: ('A' for Active; 'I' for Inactive)
REMARK    1  A    between atoms: O_2  and  C_3
REMARK    2  A    between atoms: C_49  and  O_50
REMARK    3  A    between atoms: O_50  and  C_51
REMARK                            x       y       z     vdW  Elec       q    Type
REMARK                         _______ _______ _______ _____ _____    ______ ____
ROOT
ATOM      1  C   UNL     1      -9.897   7.371  70.956  0.00  0.00    +0.144 C 
ATOM      2  C   UNL     1     -10.178   5.769  70.442  0.00  0.00    +0.072 C 
ATOM      3  C   UNL     1     -11.313   6.188  69.394  0.00  0.00    +0.007 C 
ATOM      4  C   UNL     1      -8.921   5.718  69.324  0.00  0.00    +0.174 C 
ATOM      5  C   UNL     1      -9.564   4.343  68.569  0.00  0.00    +0.071 C 
ATOM      6  C   UNL     1      -8.207   3.489  68.540  0.00  0.00    +0.006 C 
ATOM      7  C   UNL     1      -9.338   5.158  67.103  0.00  0.00    +0.158 C 
ATOM      8  O   UNL     1     -10.768   4.921  66.697  0.00  0.00    -0.223 OA
ATOM      9  C   UNL     1      -8.840   3.838  66.175  0.00  0.00    +0.061 C 
ATOM     10  C   UNL     1      -7.259   4.103  66.256  0.00  0.00    +0.005 C 
ATOM     11  C   UNL     1      -9.110   4.742  64.764  0.00  0.00    +0.158 C 
ATOM     12  O   UNL     1      -8.322   5.925  65.237  0.00  0.00    -0.223 OA
ATOM     13  C   UNL     1      -7.822   4.039  63.884  0.00  0.00    +0.053 C 
ATOM     14  C   UNL     1      -8.860   3.380  62.821  0.00  0.00    +0.007 C 
ATOM     15  C   UNL     1      -7.535   5.259  62.910  0.00  0.00    -0.024 C 
ATOM     16  C   UNL     1      -6.856   6.131  63.568  0.00  0.00    -0.005 C 
ATOM     17  C   UNL     1      -6.033   7.051  62.978  0.00  0.00    -0.000 C 
ATOM     18  C   UNL     1      -6.057   7.467  61.768  0.00  0.00    +0.033 C 
ATOM     19  C   UNL     1      -4.967   7.323  60.736  0.00  0.00    +0.036 C 
ATOM     20  C   UNL     1      -7.466   7.279  61.380  0.00  0.00    +0.265 C 
ATOM     21  O   UNL     1      -7.796   6.957  60.186  0.00  0.00    -0.268 OA
ATOM     22  N   UNL     1      -8.284   7.900  62.327  0.00  0.00    -0.171 NA
ATOM     23  C   UNL     1      -7.837   9.158  62.778  0.00  0.00    +0.130 A 
ATOM     24  C   UNL     1      -9.023   9.825  63.161  0.00  0.00    +0.215 A 
ATOM     25  C   UNL     1      -9.006  10.759  64.188  0.00  0.00    +0.081 A 
ATOM     26  C   UNL     1      -7.943  10.530  65.082  0.00  0.00    +0.031 A 
ATOM     27  C   UNL     1      -6.737  10.137  64.506  0.00  0.00    +0.101 A 
ATOM     28  N   UNL     1      -5.405  10.101  64.801  0.00  0.00    -0.226 NA
ATOM     29  C   UNL     1      -4.708  10.516  63.713  0.00  0.00    +0.147 A 
ATOM     30  N   UNL     1      -5.632  10.452  62.719  0.00  0.00    -0.288 N 
ATOM     31  C   UNL     1      -5.391  11.081  61.543  0.00  0.00    +0.081 A 
ATOM     32  C   UNL     1      -4.126  11.635  61.389  0.00  0.00    +0.015 A 
ATOM     33  C   UNL     1      -3.361  12.015  62.486  0.00  0.00    -0.017 A 
ATOM     34  C   UNL     1      -2.689  13.341  62.592  0.00  0.00    +0.031 C 
ATOM     35  C   UNL     1      -3.494  11.155  63.571  0.00  0.00    +0.033 A 
ATOM     36  C   UNL     1      -8.140  11.150  66.294  0.00  0.00    +0.077 A 
ATOM     37  C   UNL     1      -7.986  10.543  67.630  0.00  0.00    +0.251 C 
ATOM     38  C   UNL     1      -9.383  10.477  68.084  0.00  0.00    +0.326 C 
ATOM     39  O   UNL     1      -9.747  11.825  67.774  0.00  0.00    -0.443 OA
ATOM     40  C   UNL     1     -10.100   9.590  67.096  0.00  0.00    +0.100 C 
ATOM     41  O   UNL     1      -9.643  10.255  69.404  0.00  0.00    -0.440 OA
ATOM     42  C   UNL     1     -10.471   9.139  69.611  0.00  0.00    +0.174 C 
ATOM     43  O   UNL     1      -7.000  10.566  68.431  0.00  0.00    -0.284 OA
ATOM     44  C   UNL     1      -9.243  12.006  66.478  0.00  0.00    +0.145 A 
ATOM     45  C   UNL     1      -9.735  12.640  65.336  0.00  0.00    +0.051 A 
ATOM     46  C   UNL     1     -10.674  13.760  65.507  0.00  0.00    +0.038 C 
ATOM     47  C   UNL     1      -9.666  11.982  64.110  0.00  0.00    +0.198 A 
ATOM     48  O   UNL     1     -10.636  12.136  63.125  0.00  0.00    -0.287 OA
ATOM     49  O   UNL     1     -10.188   9.838  62.399  0.00  0.00    -0.285 OA
ATOM     50  C   UNL     1      -6.682   9.669  63.154  0.00  0.00    +0.101 A 
ATOM     51  C   UNL     1      -9.740   8.024  69.480  0.00  0.00    +0.043 C 
ENDROOT
BRANCH   1  53
ATOM     52  C   UNL     1      -8.009   8.066  72.030  0.00  0.00    +0.174 C 
ATOM     53  O   UNL     1      -8.399   7.189  71.102  0.00  0.00    -0.349 OA
ENDBRANCH   1  53
BRANCH   4  54
ATOM     54  O   UNL     1      -8.005   5.009  70.305  0.00  0.00    -0.452 OA
BRANCH  54  55
ATOM     55  C   UNL     1      -6.677   5.221  70.325  0.00  0.00    +0.317 C 
ATOM     56  O   UNL     1      -5.965   4.597  71.151  0.00  0.00    -0.250 OA
ATOM     57  C   UNL     1      -6.101   6.062  69.231  0.00  0.00    +0.121 C 
ENDBRANCH  54  55
ENDBRANCH   4  54
TORSDOF 3
ENDMDL
MODEL 9
REMARK VINA RESULT:      -6.0      4.625      7.463
REMARK  Name = 
REMARK  3 active torsions:
REMARK  status: ('A' for Active; 'I' for Inactive)
REMARK    1  A    between atoms: O_2  and  C_3
REMARK    2  A    between atoms: C_49  and  O_50
REMARK    3  A    between atoms: O_50  and  C_51
REMARK                            x       y       z     vdW  Elec       q    Type
REMARK                         _______ _______ _______ _____ _____    ______ ____
ROOT
ATOM      1  C   UNL     1      -3.971   8.455  65.926  0.00  0.00    +0.144 C 
ATOM      2  C   UNL     1      -5.579   7.899  65.809  0.00  0.00    +0.072 C 
ATOM      3  C   UNL     1      -5.869   8.071  67.373  0.00  0.00    +0.007 C 
ATOM      4  C   UNL     1      -6.244   9.375  65.348  0.00  0.00    +0.174 C 
ATOM      5  C   UNL     1      -7.815   8.855  65.717  0.00  0.00    +0.071 C 
ATOM      6  C   UNL     1      -8.500   9.325  64.346  0.00  0.00    +0.006 C 
ATOM      7  C   UNL     1      -7.997  10.311  66.561  0.00  0.00    +0.158 C 
ATOM      8  O   UNL     1      -8.454   9.590  67.800  0.00  0.00    -0.223 OA
ATOM      9  C   UNL     1      -9.601  10.628  66.136  0.00  0.00    +0.061 C 
ATOM     10  C   UNL     1      -9.305  11.666  64.946  0.00  0.00    +0.005 C 
ATOM     11  C   UNL     1      -9.688  11.785  67.375  0.00  0.00    +0.158 C 
ATOM     12  O   UNL     1      -8.435  12.491  66.958  0.00  0.00    -0.223 OA
ATOM     13  C   UNL     1     -10.746  12.833  66.532  0.00  0.00    +0.053 C 
ATOM     14  C   UNL     1     -11.919  12.591  67.630  0.00  0.00    +0.007 C 
ATOM     15  C   UNL     1     -10.311  14.188  67.235  0.00  0.00    -0.024 C 
ATOM     16  C   UNL     1      -9.206  14.568  66.698  0.00  0.00    -0.005 C 
ATOM     17  C   UNL     1      -8.783  15.869  66.679  0.00  0.00    -0.000 C 
ATOM     18  C   UNL     1      -9.147  16.826  67.445  0.00  0.00    +0.033 C 
ATOM     19  C   UNL     1      -9.840  18.102  67.039  0.00  0.00    +0.036 C 
ATOM     20  C   UNL     1      -9.553  16.129  68.678  0.00  0.00    +0.265 C 
ATOM     21  O   UNL     1     -10.514  16.559  69.406  0.00  0.00    -0.268 OA
ATOM     22  N   UNL     1      -8.514  15.290  69.087  0.00  0.00    -0.171 NA
ATOM     23  C   UNL     1      -7.220  15.835  68.978  0.00  0.00    +0.130 A 
ATOM     24  C   UNL     1      -6.477  15.156  69.972  0.00  0.00    +0.215 A 
ATOM     25  C   UNL     1      -5.121  14.917  69.798  0.00  0.00    +0.081 A 
ATOM     26  C   UNL     1      -4.767  14.887  68.437  0.00  0.00    +0.031 A 
ATOM     27  C   UNL     1      -5.398  15.826  67.623  0.00  0.00    +0.101 A 
ATOM     28  N   UNL     1      -5.229  16.436  66.414  0.00  0.00    -0.226 NA
ATOM     29  C   UNL     1      -5.508  17.757  66.552  0.00  0.00    +0.147 A 
ATOM     30  N   UNL     1      -6.155  17.807  67.745  0.00  0.00    -0.288 N 
ATOM     31  C   UNL     1      -6.320  19.000  68.365  0.00  0.00    +0.081 A 
ATOM     32  C   UNL     1      -5.933  20.126  67.647  0.00  0.00    +0.015 A 
ATOM     33  C   UNL     1      -4.973  20.053  66.645  0.00  0.00    -0.017 A 
ATOM     34  C   UNL     1      -3.818  20.991  66.552  0.00  0.00    +0.031 C 
ATOM     35  C   UNL     1      -5.046  18.882  65.900  0.00  0.00    +0.033 A 
ATOM     36  C   UNL     1      -3.563  14.255  68.226  0.00  0.00    +0.077 A 
ATOM     37  C   UNL     1      -3.279  13.211  67.224  0.00  0.00    +0.251 C 
ATOM     38  C   UNL     1      -3.098  12.028  68.079  0.00  0.00    +0.326 C 
ATOM     39  O   UNL     1      -2.187  12.609  69.016  0.00  0.00    -0.443 OA
ATOM     40  C   UNL     1      -4.407  11.832  68.802  0.00  0.00    +0.100 C 
ATOM     41  O   UNL     1      -2.518  10.911  67.554  0.00  0.00    -0.440 OA
ATOM     42  C   UNL     1      -3.323   9.768  67.693  0.00  0.00    +0.174 C 
ATOM     43  O   UNL     1      -2.777  13.306  66.061  0.00  0.00    -0.284 OA
ATOM     44  C   UNL     1      -2.782  13.842  69.321  0.00  0.00    +0.145 A 
ATOM     45  C   UNL     1      -2.938  14.566  70.505  0.00  0.00    +0.051 A 
ATOM     46  C   UNL     1      -1.945  14.380  71.575  0.00  0.00    +0.038 C 
ATOM     47  C   UNL     1      -4.184  15.110  70.810  0.00  0.00    +0.198 A 
ATOM     48  O   UNL     1      -4.649  15.224  72.115  0.00  0.00    -0.287 OA
ATOM     49  O   UNL     1      -6.932  14.942  71.269  0.00  0.00    -0.285 OA
ATOM     50  C   UNL     1      -6.562  16.529  68.071  0.00  0.00    +0.101 A 
ATOM     51  C   UNL     1      -4.292   9.803  66.768  0.00  0.00    +0.043 C 
ENDROOT
BRANCH   1  53
ATOM     52  C   UNL     1      -2.742   9.240  64.173  0.00  0.00    +0.174 C 
ATOM     53  O   UNL     1      -4.004   9.199  64.606  0.00  0.00    -0.349 OA
ENDBRANCH   1  53
BRANCH   4  54
ATOM     54  O   UNL     1      -6.234   8.982  63.881  0.00  0.00    -0.452 OA
BRANCH  54  55
ATOM     55  C   UNL     1      -6.058   9.885  62.900  0.00  0.00    +0.317 C 
ATOM     56  O   UNL     1      -5.707  11.055  63.194  0.00  0.00    -0.250 OA
ATOM     57  C   UNL     1      -6.117   9.387  61.491  0.00  0.00    +0.121 C 
ENDBRANCH  54  55
ENDBRANCH   4  54
TORSDOF 3
ENDMDL
