MODEL 1
REMARK VINA RESULT:      -7.0      0.000      0.000
REMARK  Name = 
REMARK  12 active torsions:
REMARK  status: ('A' for Active; 'I' for Inactive)
REMARK    1  A    between atoms: C_14  and  N_15
REMARK    2  A    between atoms: N_15  and  C_16
REMARK    3  A    between atoms: C_16  and  C_17
REMARK    4  A    between atoms: C_17  and  N_18
REMARK    5  A    between atoms: N_18  and  C_19
REMARK    6  A    between atoms: C_19  and  C_20
REMARK    7  A    between atoms: C_24  and  N_25
REMARK    8  A    between atoms: N_25  and  C_26
REMARK    9  A    between atoms: C_26  and  C_27
REMARK   10  A    between atoms: C_27  and  N_28
REMARK   11  A    between atoms: N_28  and  C_29
REMARK   12  A    between atoms: C_29  and  C_30
REMARK                            x       y       z     vdW  Elec       q    Type
REMARK                         _______ _______ _______ _____ _____    ______ ____
ROOT
ATOM      1  O   UNL     1     -11.874  11.186  68.197  0.00  0.00    -0.286 OA
ATOM      2  C   UNL     1     -11.694  12.349  68.654  0.00  0.00    +0.200 C 
ATOM      3  C   UNL     1     -10.988  13.384  67.888  0.00  0.00    +0.058 A 
ATOM      4  C   UNL     1     -10.897  14.689  68.350  0.00  0.00    +0.058 A 
ATOM      5  C   UNL     1      -9.909  15.562  67.917  0.00  0.00    +0.069 A 
ATOM      6  C   UNL     1      -9.067  15.099  66.927  0.00  0.00    +0.018 A 
ATOM      7  C   UNL     1      -9.162  13.817  66.401  0.00  0.00    +0.018 A 
ATOM      8  C   UNL     1     -11.829  15.117  69.401  0.00  0.00    +0.200 C 
ATOM      9  O   UNL     1     -11.620  16.254  69.919  0.00  0.00    -0.286 OA
ATOM     10  C   UNL     1     -12.554  14.082  70.149  0.00  0.00    +0.084 A 
ATOM     11  C   UNL     1     -13.122  14.481  71.353  0.00  0.00    +0.199 A 
ATOM     12  O   UNL     1     -13.655  15.775  71.358  0.00  0.00    -0.286 OA
ATOM     13  C   UNL     1     -13.504  13.531  72.291  0.00  0.00    +0.045 A 
ATOM     14  C   UNL     1     -13.181  12.221  72.036  0.00  0.00    +0.045 A 
ATOM     15  C   UNL     1     -12.652  11.769  70.857  0.00  0.00    +0.199 A 
ATOM     16  O   UNL     1     -12.690  10.458  70.427  0.00  0.00    -0.286 OA
ATOM     17  C   UNL     1     -10.046  12.926  66.975  0.00  0.00    +0.069 A 
ATOM     18  C   UNL     1     -12.236  12.743  69.958  0.00  0.00    +0.084 A 
ENDROOT
BRANCH   5  19
ATOM     19  N   UNL     1      -9.415  16.531  68.838  0.00  0.00    -0.236 NA
BRANCH  19  20
ATOM     20  C   UNL     1      -8.132  17.170  68.730  0.00  0.00    +0.131 C 
BRANCH  20  21
ATOM     21  C   UNL     1      -8.214  18.616  68.318  0.00  0.00    +0.112 C 
BRANCH  21  22
ATOM     22  N   UNL     1      -8.273  18.630  66.857  0.00  0.00    -0.213 NA
BRANCH  22  23
ATOM     23  C   UNL     1      -9.103  19.762  66.455  0.00  0.00    +0.124 C 
BRANCH  23  24
ATOM     24  C   UNL     1     -10.526  19.222  66.367  0.00  0.00    +0.201 C 
ATOM     25  O   UNL     1     -10.490  18.093  65.550  0.00  0.00    -0.219 OA
ENDBRANCH  23  24
ENDBRANCH  22  23
ENDBRANCH  21  22
ENDBRANCH  20  21
ENDBRANCH  19  20
ENDBRANCH   5  19
BRANCH  17  26
ATOM     26  N   UNL     1      -9.956  11.541  66.626  0.00  0.00    -0.236 NA
BRANCH  26  27
ATOM     27  C   UNL     1      -9.560  11.088  65.317  0.00  0.00    +0.131 C 
BRANCH  27  28
ATOM     28  C   UNL     1     -10.690  11.058  64.326  0.00  0.00    +0.112 C 
BRANCH  28  29
ATOM     29  N   UNL     1     -10.731  12.227  63.486  0.00  0.00    -0.213 NA
BRANCH  29  30
ATOM     30  C   UNL     1     -12.103  12.716  63.393  0.00  0.00    +0.124 C 
BRANCH  30  31
ATOM     31  C   UNL     1     -12.146  13.979  64.242  0.00  0.00    +0.201 C 
ATOM     32  O   UNL     1     -13.168  13.833  65.175  0.00  0.00    -0.219 OA
ENDBRANCH  30  31
ENDBRANCH  29  30
ENDBRANCH  28  29
ENDBRANCH  27  28
ENDBRANCH  26  27
ENDBRANCH  17  26
TORSDOF 12
ENDMDL
MODEL 2
REMARK VINA RESULT:      -6.7      1.700      6.097
REMARK  Name = 
REMARK  12 active torsions:
REMARK  status: ('A' for Active; 'I' for Inactive)
REMARK    1  A    between atoms: C_14  and  N_15
REMARK    2  A    between atoms: N_15  and  C_16
REMARK    3  A    between atoms: C_16  and  C_17
REMARK    4  A    between atoms: C_17  and  N_18
REMARK    5  A    between atoms: N_18  and  C_19
REMARK    6  A    between atoms: C_19  and  C_20
REMARK    7  A    between atoms: C_24  and  N_25
REMARK    8  A    between atoms: N_25  and  C_26
REMARK    9  A    between atoms: C_26  and  C_27
REMARK   10  A    between atoms: C_27  and  N_28
REMARK   11  A    between atoms: N_28  and  C_29
REMARK   12  A    between atoms: C_29  and  C_30
REMARK                            x       y       z     vdW  Elec       q    Type
REMARK                         _______ _______ _______ _____ _____    ______ ____
ROOT
ATOM      1  O   UNL     1     -11.311  16.650  70.314  0.00  0.00    -0.286 OA
ATOM      2  C   UNL     1     -11.565  15.534  69.780  0.00  0.00    +0.200 C 
ATOM      3  C   UNL     1     -11.074  15.185  68.441  0.00  0.00    +0.058 A 
ATOM      4  C   UNL     1     -11.258  13.916  67.912  0.00  0.00    +0.058 A 
ATOM      5  C   UNL     1     -11.221  13.669  66.547  0.00  0.00    +0.069 A 
ATOM      6  C   UNL     1     -10.896  14.736  65.735  0.00  0.00    +0.018 A 
ATOM      7  C   UNL     1     -10.650  16.010  66.234  0.00  0.00    +0.018 A 
ATOM      8  C   UNL     1     -11.596  12.824  68.834  0.00  0.00    +0.200 C 
ATOM      9  O   UNL     1     -11.920  11.717  68.312  0.00  0.00    -0.286 OA
ATOM     10  C   UNL     1     -12.063  13.175  70.182  0.00  0.00    +0.084 A 
ATOM     11  C   UNL     1     -12.718  12.170  70.884  0.00  0.00    +0.199 A 
ATOM     12  O   UNL     1     -12.206  10.881  70.692  0.00  0.00    -0.286 OA
ATOM     13  C   UNL     1     -13.500  12.487  71.986  0.00  0.00    +0.045 A 
ATOM     14  C   UNL     1     -13.698  13.817  72.263  0.00  0.00    +0.045 A 
ATOM     15  C   UNL     1     -13.055  14.844  71.627  0.00  0.00    +0.199 A 
ATOM     16  O   UNL     1     -12.925  16.124  72.129  0.00  0.00    -0.286 OA
ATOM     17  C   UNL     1     -10.863  16.251  67.575  0.00  0.00    +0.069 A 
ATOM     18  C   UNL     1     -12.318  14.503  70.501  0.00  0.00    +0.084 A 
ENDROOT
BRANCH   5  19
ATOM     19  N   UNL     1     -12.060  12.642  66.024  0.00  0.00    -0.236 NA
BRANCH  19  20
ATOM     20  C   UNL     1     -12.722  12.708  64.750  0.00  0.00    +0.131 C 
BRANCH  20  21
ATOM     21  C   UNL     1     -12.180  11.732  63.741  0.00  0.00    +0.112 C 
BRANCH  21  22
ATOM     22  N   UNL     1     -10.797  12.127  63.480  0.00  0.00    -0.213 NA
BRANCH  22  23
ATOM     23  C   UNL     1     -10.035  10.918  63.183  0.00  0.00    +0.124 C 
BRANCH  23  24
ATOM     24  C   UNL     1      -9.822  10.223  64.524  0.00  0.00    +0.201 C 
ATOM     25  O   UNL     1      -9.034  11.065  65.306  0.00  0.00    -0.219 OA
ENDBRANCH  23  24
ENDBRANCH  22  23
ENDBRANCH  21  22
ENDBRANCH  20  21
ENDBRANCH  19  20
ENDBRANCH   5  19
BRANCH  17  26
ATOM     26  N   UNL     1     -10.879  17.606  68.040  0.00  0.00    -0.236 NA
BRANCH  26  27
ATOM     27  C   UNL     1     -10.507  18.722  67.209  0.00  0.00    +0.131 C 
BRANCH  27  28
ATOM     28  C   UNL     1      -9.030  19.002  67.207  0.00  0.00    +0.112 C 
BRANCH  28  29
ATOM     29  N   UNL     1      -8.452  18.977  68.525  0.00  0.00    -0.213 NA
BRANCH  29  30
ATOM     30  C   UNL     1      -7.208  19.741  68.530  0.00  0.00    +0.124 C 
BRANCH  30  31
ATOM     31  C   UNL     1      -7.090  20.338  67.135  0.00  0.00    +0.201 C 
ATOM     32  O   UNL     1      -6.504  21.595  67.255  0.00  0.00    -0.219 OA
ENDBRANCH  30  31
ENDBRANCH  29  30
ENDBRANCH  28  29
ENDBRANCH  27  28
ENDBRANCH  26  27
ENDBRANCH  17  26
TORSDOF 12
ENDMDL
MODEL 3
REMARK VINA RESULT:      -6.7      1.448      1.814
REMARK  Name = 
REMARK  12 active torsions:
REMARK  status: ('A' for Active; 'I' for Inactive)
REMARK    1  A    between atoms: C_14  and  N_15
REMARK    2  A    between atoms: N_15  and  C_16
REMARK    3  A    between atoms: C_16  and  C_17
REMARK    4  A    between atoms: C_17  and  N_18
REMARK    5  A    between atoms: N_18  and  C_19
REMARK    6  A    between atoms: C_19  and  C_20
REMARK    7  A    between atoms: C_24  and  N_25
REMARK    8  A    between atoms: N_25  and  C_26
REMARK    9  A    between atoms: C_26  and  C_27
REMARK   10  A    between atoms: C_27  and  N_28
REMARK   11  A    between atoms: N_28  and  C_29
REMARK   12  A    between atoms: C_29  and  C_30
REMARK                            x       y       z     vdW  Elec       q    Type
REMARK                         _______ _______ _______ _____ _____    ______ ____
ROOT
ATOM      1  O   UNL     1     -12.021  11.253  68.229  0.00  0.00    -0.286 OA
ATOM      2  C   UNL     1     -11.808  12.408  68.693  0.00  0.00    +0.200 C 
ATOM      3  C   UNL     1     -11.106  13.439  67.918  0.00  0.00    +0.058 A 
ATOM      4  C   UNL     1     -10.979  14.737  68.390  0.00  0.00    +0.058 A 
ATOM      5  C   UNL     1      -9.988  15.598  67.939  0.00  0.00    +0.069 A 
ATOM      6  C   UNL     1      -9.182  15.131  66.922  0.00  0.00    +0.018 A 
ATOM      7  C   UNL     1      -9.314  13.856  66.385  0.00  0.00    +0.018 A 
ATOM      8  C   UNL     1     -11.875  15.170  69.470  0.00  0.00    +0.200 C 
ATOM      9  O   UNL     1     -11.632  16.298  69.994  0.00  0.00    -0.286 OA
ATOM     10  C   UNL     1     -12.597  14.140  70.228  0.00  0.00    +0.084 A 
ATOM     11  C   UNL     1     -13.125  14.536  71.451  0.00  0.00    +0.199 A 
ATOM     12  O   UNL     1     -13.636  15.838  71.484  0.00  0.00    -0.286 OA
ATOM     13  C   UNL     1     -13.497  13.583  72.390  0.00  0.00    +0.045 A 
ATOM     14  C   UNL     1     -13.204  12.270  72.113  0.00  0.00    +0.045 A 
ATOM     15  C   UNL     1     -12.716  11.822  70.916  0.00  0.00    +0.199 A 
ATOM     16  O   UNL     1     -12.788  10.515  70.474  0.00  0.00    -0.286 OA
ATOM     17  C   UNL     1     -10.197  12.974  66.975  0.00  0.00    +0.069 A 
ATOM     18  C   UNL     1     -12.308  12.797  70.015  0.00  0.00    +0.084 A 
ENDROOT
BRANCH   5  19
ATOM     19  N   UNL     1      -9.453  16.548  68.856  0.00  0.00    -0.236 NA
BRANCH  19  20
ATOM     20  C   UNL     1      -8.411  17.484  68.534  0.00  0.00    +0.131 C 
BRANCH  20  21
ATOM     21  C   UNL     1      -8.881  18.913  68.486  0.00  0.00    +0.112 C 
BRANCH  21  22
ATOM     22  N   UNL     1      -7.698  19.732  68.222  0.00  0.00    -0.213 NA
BRANCH  22  23
ATOM     23  C   UNL     1      -6.599  19.202  69.022  0.00  0.00    +0.124 C 
BRANCH  23  24
ATOM     24  C   UNL     1      -5.904  20.415  69.629  0.00  0.00    +0.201 C 
ATOM     25  O   UNL     1      -6.258  20.465  70.976  0.00  0.00    -0.219 OA
ENDBRANCH  23  24
ENDBRANCH  22  23
ENDBRANCH  21  22
ENDBRANCH  20  21
ENDBRANCH  19  20
ENDBRANCH   5  19
BRANCH  17  26
ATOM     26  N   UNL     1     -10.140  11.591  66.609  0.00  0.00    -0.236 NA
BRANCH  26  27
ATOM     27  C   UNL     1      -9.362  11.106  65.499  0.00  0.00    +0.131 C 
BRANCH  27  28
ATOM     28  C   UNL     1     -10.188  10.769  64.289  0.00  0.00    +0.112 C 
BRANCH  28  29
ATOM     29  N   UNL     1     -10.524  11.925  63.499  0.00  0.00    -0.213 NA
BRANCH  29  30
ATOM     30  C   UNL     1     -11.970  12.123  63.509  0.00  0.00    +0.124 C 
BRANCH  30  31
ATOM     31  C   UNL     1     -12.183  13.562  63.957  0.00  0.00    +0.201 C 
ATOM     32  O   UNL     1     -13.088  13.552  65.014  0.00  0.00    -0.219 OA
ENDBRANCH  30  31
ENDBRANCH  29  30
ENDBRANCH  28  29
ENDBRANCH  27  28
ENDBRANCH  26  27
ENDBRANCH  17  26
TORSDOF 12
ENDMDL
MODEL 4
REMARK VINA RESULT:      -6.4      3.424      6.726
REMARK  Name = 
REMARK  12 active torsions:
REMARK  status: ('A' for Active; 'I' for Inactive)
REMARK    1  A    between atoms: C_14  and  N_15
REMARK    2  A    between atoms: N_15  and  C_16
REMARK    3  A    between atoms: C_16  and  C_17
REMARK    4  A    between atoms: C_17  and  N_18
REMARK    5  A    between atoms: N_18  and  C_19
REMARK    6  A    between atoms: C_19  and  C_20
REMARK    7  A    between atoms: C_24  and  N_25
REMARK    8  A    between atoms: N_25  and  C_26
REMARK    9  A    between atoms: C_26  and  C_27
REMARK   10  A    between atoms: C_27  and  N_28
REMARK   11  A    between atoms: N_28  and  C_29
REMARK   12  A    between atoms: C_29  and  C_30
REMARK                            x       y       z     vdW  Elec       q    Type
REMARK                         _______ _______ _______ _____ _____    ______ ____
ROOT
ATOM      1  O   UNL     1     -13.100  11.394  72.011  0.00  0.00    -0.286 OA
ATOM      2  C   UNL     1     -12.437  10.784  71.126  0.00  0.00    +0.200 C 
ATOM      3  C   UNL     1     -11.574  11.496  70.174  0.00  0.00    +0.058 A 
ATOM      4  C   UNL     1     -10.762  10.810  69.283  0.00  0.00    +0.058 A 
ATOM      5  C   UNL     1     -10.289  11.389  68.113  0.00  0.00    +0.069 A 
ATOM      6  C   UNL     1     -10.589  12.722  67.920  0.00  0.00    +0.018 A 
ATOM      7  C   UNL     1     -11.354  13.457  68.818  0.00  0.00    +0.018 A 
ATOM      8  C   UNL     1     -10.478   9.395  69.554  0.00  0.00    +0.200 C 
ATOM      9  O   UNL     1      -9.874   8.751  68.645  0.00  0.00    -0.286 OA
ATOM     10  C   UNL     1     -11.326   8.692  70.525  0.00  0.00    +0.084 A 
ATOM     11  C   UNL     1     -11.283   7.303  70.482  0.00  0.00    +0.199 A 
ATOM     12  O   UNL     1     -10.024   6.756  70.208  0.00  0.00    -0.286 OA
ATOM     13  C   UNL     1     -12.286   6.556  71.086  0.00  0.00    +0.045 A 
ATOM     14  C   UNL     1     -13.363   7.237  71.598  0.00  0.00    +0.045 A 
ATOM     15  C   UNL     1     -13.443   8.600  71.695  0.00  0.00    +0.199 A 
ATOM     16  O   UNL     1     -14.296   9.282  72.540  0.00  0.00    -0.286 OA
ATOM     17  C   UNL     1     -11.945  12.802  69.879  0.00  0.00    +0.069 A 
ATOM     18  C   UNL     1     -12.452   9.321  71.042  0.00  0.00    +0.084 A 
ENDROOT
BRANCH   5  19
ATOM     19  N   UNL     1     -10.111  10.555  66.972  0.00  0.00    -0.236 NA
BRANCH  19  20
ATOM     20  C   UNL     1      -9.238  10.864  65.873  0.00  0.00    +0.131 C 
BRANCH  20  21
ATOM     21  C   UNL     1      -9.860  10.619  64.525  0.00  0.00    +0.112 C 
BRANCH  21  22
ATOM     22  N   UNL     1     -11.093  11.404  64.486  0.00  0.00    -0.213 NA
BRANCH  22  23
ATOM     23  C   UNL     1     -10.743  12.767  64.099  0.00  0.00    +0.124 C 
BRANCH  23  24
ATOM     24  C   UNL     1     -11.935  13.630  64.495  0.00  0.00    +0.201 C 
ATOM     25  O   UNL     1     -12.628  13.941  63.327  0.00  0.00    -0.219 OA
ENDBRANCH  23  24
ENDBRANCH  22  23
ENDBRANCH  21  22
ENDBRANCH  20  21
ENDBRANCH  19  20
ENDBRANCH   5  19
BRANCH  17  26
ATOM     26  N   UNL     1     -12.945  13.486  70.642  0.00  0.00    -0.236 NA
BRANCH  26  27
ATOM     27  C   UNL     1     -13.076  14.920  70.654  0.00  0.00    +0.131 C 
BRANCH  27  28
ATOM     28  C   UNL     1     -13.657  15.459  71.932  0.00  0.00    +0.112 C 
BRANCH  28  29
ATOM     29  N   UNL     1     -13.505  14.554  73.042  0.00  0.00    -0.213 NA
BRANCH  29  30
ATOM     30  C   UNL     1     -12.305  14.902  73.797  0.00  0.00    +0.124 C 
BRANCH  30  31
ATOM     31  C   UNL     1     -12.420  16.393  74.084  0.00  0.00    +0.201 C 
ATOM     32  O   UNL     1     -12.433  16.563  75.465  0.00  0.00    -0.219 OA
ENDBRANCH  30  31
ENDBRANCH  29  30
ENDBRANCH  28  29
ENDBRANCH  27  28
ENDBRANCH  26  27
ENDBRANCH  17  26
TORSDOF 12
ENDMDL
MODEL 5
REMARK VINA RESULT:      -6.2      2.651      7.107
REMARK  Name = 
REMARK  12 active torsions:
REMARK  status: ('A' for Active; 'I' for Inactive)
REMARK    1  A    between atoms: C_14  and  N_15
REMARK    2  A    between atoms: N_15  and  C_16
REMARK    3  A    between atoms: C_16  and  C_17
REMARK    4  A    between atoms: C_17  and  N_18
REMARK    5  A    between atoms: N_18  and  C_19
REMARK    6  A    between atoms: C_19  and  C_20
REMARK    7  A    between atoms: C_24  and  N_25
REMARK    8  A    between atoms: N_25  and  C_26
REMARK    9  A    between atoms: C_26  and  C_27
REMARK   10  A    between atoms: C_27  and  N_28
REMARK   11  A    between atoms: N_28  and  C_29
REMARK   12  A    between atoms: C_29  and  C_30
REMARK                            x       y       z     vdW  Elec       q    Type
REMARK                         _______ _______ _______ _____ _____    ______ ____
ROOT
ATOM      1  O   UNL     1     -12.018  15.197  69.874  0.00  0.00    -0.286 OA
ATOM      2  C   UNL     1     -11.606  14.870  68.726  0.00  0.00    +0.200 C 
ATOM      3  C   UNL     1     -11.774  13.510  68.200  0.00  0.00    +0.058 A 
ATOM      4  C   UNL     1     -11.423  13.191  66.896  0.00  0.00    +0.058 A 
ATOM      5  C   UNL     1     -11.147  11.890  66.498  0.00  0.00    +0.069 A 
ATOM      6  C   UNL     1     -11.329  10.904  67.446  0.00  0.00    +0.018 A 
ATOM      7  C   UNL     1     -11.732  11.179  68.747  0.00  0.00    +0.018 A 
ATOM      8  C   UNL     1     -11.253  14.291  65.937  0.00  0.00    +0.200 C 
ATOM      9  O   UNL     1     -10.775  13.989  64.804  0.00  0.00    -0.286 OA
ATOM     10  C   UNL     1     -11.111  15.654  66.464  0.00  0.00    +0.084 A 
ATOM     11  C   UNL     1     -10.586  16.597  65.589  0.00  0.00    +0.199 A 
ATOM     12  O   UNL     1     -10.988  16.458  64.255  0.00  0.00    -0.286 OA
ATOM     13  C   UNL     1     -10.081  17.795  66.077  0.00  0.00    +0.045 A 
ATOM     14  C   UNL     1     -10.006  17.944  67.439  0.00  0.00    +0.045 A 
ATOM     15  C   UNL     1     -10.534  17.065  68.345  0.00  0.00    +0.199 A 
ATOM     16  O   UNL     1     -10.826  17.367  69.661  0.00  0.00    -0.286 OA
ATOM     17  C   UNL     1     -11.832  12.495  69.148  0.00  0.00    +0.069 A 
ATOM     18  C   UNL     1     -10.989  15.856  67.833  0.00  0.00    +0.084 A 
ENDROOT
BRANCH   5  19
ATOM     19  N   UNL     1     -10.172  11.690  65.479  0.00  0.00    -0.236 NA
BRANCH  19  20
ATOM     20  C   UNL     1     -10.137  10.549  64.606  0.00  0.00    +0.131 C 
BRANCH  20  21
ATOM     21  C   UNL     1     -10.081  10.911  63.146  0.00  0.00    +0.112 C 
BRANCH  21  22
ATOM     22  N   UNL     1      -9.326   9.850  62.482  0.00  0.00    -0.213 NA
BRANCH  22  23
ATOM     23  C   UNL     1      -8.395  10.479  61.551  0.00  0.00    +0.124 C 
BRANCH  23  24
ATOM     24  C   UNL     1      -7.031  10.425  62.229  0.00  0.00    +0.201 C 
ATOM     25  O   UNL     1      -6.970   9.229  62.942  0.00  0.00    -0.219 OA
ENDBRANCH  23  24
ENDBRANCH  22  23
ENDBRANCH  21  22
ENDBRANCH  20  21
ENDBRANCH  19  20
ENDBRANCH   5  19
BRANCH  17  26
ATOM     26  N   UNL     1     -11.976  12.784  70.543  0.00  0.00    -0.236 NA
BRANCH  26  27
ATOM     27  C   UNL     1     -13.068  12.283  71.337  0.00  0.00    +0.131 C 
BRANCH  27  28
ATOM     28  C   UNL     1     -13.486  13.217  72.439  0.00  0.00    +0.112 C 
BRANCH  28  29
ATOM     29  N   UNL     1     -14.429  14.213  72.003  0.00  0.00    -0.213 NA
BRANCH  29  30
ATOM     30  C   UNL     1     -14.042  15.519  72.530  0.00  0.00    +0.124 C 
BRANCH  30  31
ATOM     31  C   UNL     1     -12.889  15.249  73.486  0.00  0.00    +0.201 C 
ATOM     32  O   UNL     1     -12.743  16.363  74.306  0.00  0.00    -0.219 OA
ENDBRANCH  30  31
ENDBRANCH  29  30
ENDBRANCH  28  29
ENDBRANCH  27  28
ENDBRANCH  26  27
ENDBRANCH  17  26
TORSDOF 12
ENDMDL
MODEL 6
REMARK VINA RESULT:      -6.2      2.592      4.201
REMARK  Name = 
REMARK  12 active torsions:
REMARK  status: ('A' for Active; 'I' for Inactive)
REMARK    1  A    between atoms: C_14  and  N_15
REMARK    2  A    between atoms: N_15  and  C_16
REMARK    3  A    between atoms: C_16  and  C_17
REMARK    4  A    between atoms: C_17  and  N_18
REMARK    5  A    between atoms: N_18  and  C_19
REMARK    6  A    between atoms: C_19  and  C_20
REMARK    7  A    between atoms: C_24  and  N_25
REMARK    8  A    between atoms: N_25  and  C_26
REMARK    9  A    between atoms: C_26  and  C_27
REMARK   10  A    between atoms: C_27  and  N_28
REMARK   11  A    between atoms: N_28  and  C_29
REMARK   12  A    between atoms: C_29  and  C_30
REMARK                            x       y       z     vdW  Elec       q    Type
REMARK                         _______ _______ _______ _____ _____    ______ ____
ROOT
ATOM      1  O   UNL     1      -9.963   8.985  67.196  0.00  0.00    -0.286 OA
ATOM      2  C   UNL     1     -10.367   9.847  68.026  0.00  0.00    +0.200 C 
ATOM      3  C   UNL     1     -10.549  11.256  67.655  0.00  0.00    +0.058 A 
ATOM      4  C   UNL     1     -11.102  12.171  68.539  0.00  0.00    +0.058 A 
ATOM      5  C   UNL     1     -10.894  13.538  68.420  0.00  0.00    +0.069 A 
ATOM      6  C   UNL     1     -10.181  13.959  67.316  0.00  0.00    +0.018 A 
ATOM      7  C   UNL     1      -9.658  13.076  66.379  0.00  0.00    +0.018 A 
ATOM      8  C   UNL     1     -11.855  11.652  69.689  0.00  0.00    +0.200 C 
ATOM      9  O   UNL     1     -12.207  12.496  70.566  0.00  0.00    -0.286 OA
ATOM     10  C   UNL     1     -11.692  10.237  70.043  0.00  0.00    +0.084 A 
ATOM     11  C   UNL     1     -12.103   9.874  71.320  0.00  0.00    +0.199 A 
ATOM     12  O   UNL     1     -13.250  10.528  71.783  0.00  0.00    -0.286 OA
ATOM     13  C   UNL     1     -11.671   8.677  71.877  0.00  0.00    +0.045 A 
ATOM     14  C   UNL     1     -10.738   7.952  71.178  0.00  0.00    +0.045 A 
ATOM     15  C   UNL     1     -10.324   8.244  69.907  0.00  0.00    +0.199 A 
ATOM     16  O   UNL     1      -9.717   7.348  69.049  0.00  0.00    -0.286 OA
ATOM     17  C   UNL     1      -9.741  11.721  66.624  0.00  0.00    +0.069 A 
ATOM     18  C   UNL     1     -10.732   9.468  69.394  0.00  0.00    +0.084 A 
ENDROOT
BRANCH   5  19
ATOM     19  N   UNL     1     -10.836  14.317  69.611  0.00  0.00    -0.236 NA
BRANCH  19  20
ATOM     20  C   UNL     1     -11.135  15.722  69.674  0.00  0.00    +0.131 C 
BRANCH  20  21
ATOM     21  C   UNL     1     -11.638  16.169  71.020  0.00  0.00    +0.112 C 
BRANCH  21  22
ATOM     22  N   UNL     1     -13.050  15.790  71.084  0.00  0.00    -0.213 NA
BRANCH  22  23
ATOM     23  C   UNL     1     -13.451  15.797  72.487  0.00  0.00    +0.124 C 
BRANCH  23  24
ATOM     24  C   UNL     1     -13.203  14.381  72.996  0.00  0.00    +0.201 C 
ATOM     25  O   UNL     1     -14.302  13.609  72.621  0.00  0.00    -0.219 OA
ENDBRANCH  23  24
ENDBRANCH  22  23
ENDBRANCH  21  22
ENDBRANCH  20  21
ENDBRANCH  19  20
ENDBRANCH   5  19
BRANCH  17  26
ATOM     26  N   UNL     1      -8.973  10.824  65.814  0.00  0.00    -0.236 NA
BRANCH  26  27
ATOM     27  C   UNL     1      -9.033  10.824  64.375  0.00  0.00    +0.131 C 
BRANCH  27  28
ATOM     28  C   UNL     1     -10.431  10.721  63.832  0.00  0.00    +0.112 C 
BRANCH  28  29
ATOM     29  N   UNL     1     -10.887  11.942  63.220  0.00  0.00    -0.213 NA
BRANCH  29  30
ATOM     30  C   UNL     1     -12.264  12.209  63.625  0.00  0.00    +0.124 C 
BRANCH  30  31
ATOM     31  C   UNL     1     -12.277  13.654  64.104  0.00  0.00    +0.201 C 
ATOM     32  O   UNL     1     -13.112  13.729  65.214  0.00  0.00    -0.219 OA
ENDBRANCH  30  31
ENDBRANCH  29  30
ENDBRANCH  28  29
ENDBRANCH  27  28
ENDBRANCH  26  27
ENDBRANCH  17  26
TORSDOF 12
ENDMDL
MODEL 7
REMARK VINA RESULT:      -6.1      1.494      1.722
REMARK  Name = 
REMARK  12 active torsions:
REMARK  status: ('A' for Active; 'I' for Inactive)
REMARK    1  A    between atoms: C_14  and  N_15
REMARK    2  A    between atoms: N_15  and  C_16
REMARK    3  A    between atoms: C_16  and  C_17
REMARK    4  A    between atoms: C_17  and  N_18
REMARK    5  A    between atoms: N_18  and  C_19
REMARK    6  A    between atoms: C_19  and  C_20
REMARK    7  A    between atoms: C_24  and  N_25
REMARK    8  A    between atoms: N_25  and  C_26
REMARK    9  A    between atoms: C_26  and  C_27
REMARK   10  A    between atoms: C_27  and  N_28
REMARK   11  A    between atoms: N_28  and  C_29
REMARK   12  A    between atoms: C_29  and  C_30
REMARK                            x       y       z     vdW  Elec       q    Type
REMARK                         _______ _______ _______ _____ _____    ______ ____
ROOT
ATOM      1  O   UNL     1     -11.895  11.142  68.316  0.00  0.00    -0.286 OA
ATOM      2  C   UNL     1     -11.719  12.314  68.753  0.00  0.00    +0.200 C 
ATOM      3  C   UNL     1     -11.011  13.336  67.972  0.00  0.00    +0.058 A 
ATOM      4  C   UNL     1     -10.925  14.649  68.410  0.00  0.00    +0.058 A 
ATOM      5  C   UNL     1      -9.936  15.516  67.966  0.00  0.00    +0.069 A 
ATOM      6  C   UNL     1      -9.087  15.036  66.990  0.00  0.00    +0.018 A 
ATOM      7  C   UNL     1      -9.177  13.744  66.487  0.00  0.00    +0.018 A 
ATOM      8  C   UNL     1     -11.864  15.095  69.447  0.00  0.00    +0.200 C 
ATOM      9  O   UNL     1     -11.659  16.241  69.945  0.00  0.00    -0.286 OA
ATOM     10  C   UNL     1     -12.591  14.072  70.210  0.00  0.00    +0.084 A 
ATOM     11  C   UNL     1     -13.166  14.492  71.403  0.00  0.00    +0.199 A 
ATOM     12  O   UNL     1     -13.703  15.785  71.381  0.00  0.00    -0.286 OA
ATOM     13  C   UNL     1     -13.552  13.559  72.357  0.00  0.00    +0.045 A 
ATOM     14  C   UNL     1     -13.225  12.246  72.128  0.00  0.00    +0.045 A 
ATOM     15  C   UNL     1     -12.689  11.773  70.961  0.00  0.00    +0.199 A 
ATOM     16  O   UNL     1     -12.722  10.453  70.555  0.00  0.00    -0.286 OA
ATOM     17  C   UNL     1     -10.062  12.862  67.073  0.00  0.00    +0.069 A 
ATOM     18  C   UNL     1     -12.270  12.730  70.046  0.00  0.00    +0.084 A 
ENDROOT
BRANCH   5  19
ATOM     19  N   UNL     1      -9.449  16.503  68.872  0.00  0.00    -0.236 NA
BRANCH  19  20
ATOM     20  C   UNL     1      -8.147  17.106  68.788  0.00  0.00    +0.131 C 
BRANCH  20  21
ATOM     21  C   UNL     1      -8.186  18.572  68.450  0.00  0.00    +0.112 C 
BRANCH  21  22
ATOM     22  N   UNL     1      -9.537  19.036  68.762  0.00  0.00    -0.213 NA
BRANCH  22  23
ATOM     23  C   UNL     1      -9.951  19.949  67.701  0.00  0.00    +0.124 C 
BRANCH  23  24
ATOM     24  C   UNL     1     -10.533  19.070  66.600  0.00  0.00    +0.201 C 
ATOM     25  O   UNL     1     -10.772  19.889  65.499  0.00  0.00    -0.219 OA
ENDBRANCH  23  24
ENDBRANCH  22  23
ENDBRANCH  21  22
ENDBRANCH  20  21
ENDBRANCH  19  20
ENDBRANCH   5  19
BRANCH  17  26
ATOM     26  N   UNL     1      -9.968  11.471  66.749  0.00  0.00    -0.236 NA
BRANCH  26  27
ATOM     27  C   UNL     1      -8.846  10.905  66.044  0.00  0.00    +0.131 C 
BRANCH  27  28
ATOM     28  C   UNL     1      -9.241  10.098  64.839  0.00  0.00    +0.112 C 
BRANCH  28  29
ATOM     29  N   UNL     1     -10.364  10.657  64.132  0.00  0.00    -0.213 NA
BRANCH  29  30
ATOM     30  C   UNL     1      -9.886  11.537  63.070  0.00  0.00    +0.124 C 
BRANCH  30  31
ATOM     31  C   UNL     1      -8.977  10.676  62.204  0.00  0.00    +0.201 C 
ATOM     32  O   UNL     1      -7.915  11.468  61.779  0.00  0.00    -0.219 OA
ENDBRANCH  30  31
ENDBRANCH  29  30
ENDBRANCH  28  29
ENDBRANCH  27  28
ENDBRANCH  26  27
ENDBRANCH  17  26
TORSDOF 12
ENDMDL
MODEL 8
REMARK VINA RESULT:      -6.0      2.615      3.995
REMARK  Name = 
REMARK  12 active torsions:
REMARK  status: ('A' for Active; 'I' for Inactive)
REMARK    1  A    between atoms: C_14  and  N_15
REMARK    2  A    between atoms: N_15  and  C_16
REMARK    3  A    between atoms: C_16  and  C_17
REMARK    4  A    between atoms: C_17  and  N_18
REMARK    5  A    between atoms: N_18  and  C_19
REMARK    6  A    between atoms: C_19  and  C_20
REMARK    7  A    between atoms: C_24  and  N_25
REMARK    8  A    between atoms: N_25  and  C_26
REMARK    9  A    between atoms: C_26  and  C_27
REMARK   10  A    between atoms: C_27  and  N_28
REMARK   11  A    between atoms: N_28  and  C_29
REMARK   12  A    between atoms: C_29  and  C_30
REMARK                            x       y       z     vdW  Elec       q    Type
REMARK                         _______ _______ _______ _____ _____    ______ ____
ROOT
ATOM      1  O   UNL     1      -9.971   8.392  67.983  0.00  0.00    -0.286 OA
ATOM      2  C   UNL     1     -10.553   9.138  68.818  0.00  0.00    +0.200 C 
ATOM      3  C   UNL     1     -11.057  10.468  68.453  0.00  0.00    +0.058 A 
ATOM      4  C   UNL     1     -11.796  11.231  69.344  0.00  0.00    +0.058 A 
ATOM      5  C   UNL     1     -11.908  12.609  69.227  0.00  0.00    +0.069 A 
ATOM      6  C   UNL     1     -11.321  13.183  68.118  0.00  0.00    +0.018 A 
ATOM      7  C   UNL     1     -10.619  12.444  67.174  0.00  0.00    +0.018 A 
ATOM      8  C   UNL     1     -12.399  10.553  70.499  0.00  0.00    +0.200 C 
ATOM      9  O   UNL     1     -12.927  11.293  71.382  0.00  0.00    -0.286 OA
ATOM     10  C   UNL     1     -11.913   9.213  70.848  0.00  0.00    +0.084 A 
ATOM     11  C   UNL     1     -12.218   8.764  72.128  0.00  0.00    +0.199 A 
ATOM     12  O   UNL     1     -13.480   9.138  72.603  0.00  0.00    -0.286 OA
ATOM     13  C   UNL     1     -11.518   7.698  72.678  0.00  0.00    +0.045 A 
ATOM     14  C   UNL     1     -10.451   7.206  71.968  0.00  0.00    +0.045 A 
ATOM     15  C   UNL     1     -10.126   7.586  70.694  0.00  0.00    +0.199 A 
ATOM     16  O   UNL     1      -9.338   6.853  69.829  0.00  0.00    -0.286 OA
ATOM     17  C   UNL     1     -10.386  11.106  67.416  0.00  0.00    +0.069 A 
ATOM     18  C   UNL     1     -10.809   8.685  70.189  0.00  0.00    +0.084 A 
ENDROOT
BRANCH   5  19
ATOM     19  N   UNL     1     -12.019  13.381  70.420  0.00  0.00    -0.236 NA
BRANCH  19  20
ATOM     20  C   UNL     1     -12.802  14.581  70.537  0.00  0.00    +0.131 C 
BRANCH  20  21
ATOM     21  C   UNL     1     -11.972  15.835  70.589  0.00  0.00    +0.112 C 
BRANCH  21  22
ATOM     22  N   UNL     1     -11.879  16.330  69.217  0.00  0.00    -0.213 NA
BRANCH  22  23
ATOM     23  C   UNL     1     -10.498  16.739  68.982  0.00  0.00    +0.124 C 
BRANCH  23  24
ATOM     24  C   UNL     1     -10.480  17.363  67.591  0.00  0.00    +0.201 C 
ATOM     25  O   UNL     1     -10.934  18.675  67.721  0.00  0.00    -0.219 OA
ENDBRANCH  23  24
ENDBRANCH  22  23
ENDBRANCH  21  22
ENDBRANCH  20  21
ENDBRANCH  19  20
ENDBRANCH   5  19
BRANCH  17  26
ATOM     26  N   UNL     1      -9.441  10.409  66.596  0.00  0.00    -0.236 NA
BRANCH  26  27
ATOM     27  C   UNL     1      -8.740  11.036  65.505  0.00  0.00    +0.131 C 
BRANCH  27  28
ATOM     28  C   UNL     1      -9.272  10.654  64.152  0.00  0.00    +0.112 C 
BRANCH  28  29
ATOM     29  N   UNL     1      -9.999  11.721  63.514  0.00  0.00    -0.213 NA
BRANCH  29  30
ATOM     30  C   UNL     1     -11.432  11.524  63.713  0.00  0.00    +0.124 C 
BRANCH  30  31
ATOM     31  C   UNL     1     -12.042  12.919  63.700  0.00  0.00    +0.201 C 
ATOM     32  O   UNL     1     -13.121  12.922  64.578  0.00  0.00    -0.219 OA
ENDBRANCH  30  31
ENDBRANCH  29  30
ENDBRANCH  28  29
ENDBRANCH  27  28
ENDBRANCH  26  27
ENDBRANCH  17  26
TORSDOF 12
ENDMDL
MODEL 9
REMARK VINA RESULT:      -6.0      1.500      2.414
REMARK  Name = 
REMARK  12 active torsions:
REMARK  status: ('A' for Active; 'I' for Inactive)
REMARK    1  A    between atoms: C_14  and  N_15
REMARK    2  A    between atoms: N_15  and  C_16
REMARK    3  A    between atoms: C_16  and  C_17
REMARK    4  A    between atoms: C_17  and  N_18
REMARK    5  A    between atoms: N_18  and  C_19
REMARK    6  A    between atoms: C_19  and  C_20
REMARK    7  A    between atoms: C_24  and  N_25
REMARK    8  A    between atoms: N_25  and  C_26
REMARK    9  A    between atoms: C_26  and  C_27
REMARK   10  A    between atoms: C_27  and  N_28
REMARK   11  A    between atoms: N_28  and  C_29
REMARK   12  A    between atoms: C_29  and  C_30
REMARK                            x       y       z     vdW  Elec       q    Type
REMARK                         _______ _______ _______ _____ _____    ______ ____
ROOT
ATOM      1  O   UNL     1     -11.960  11.208  68.251  0.00  0.00    -0.286 OA
ATOM      2  C   UNL     1     -11.750  12.365  68.711  0.00  0.00    +0.200 C 
ATOM      3  C   UNL     1     -11.025  13.386  67.943  0.00  0.00    +0.058 A 
ATOM      4  C   UNL     1     -10.901  14.687  68.407  0.00  0.00    +0.058 A 
ATOM      5  C   UNL     1      -9.896  15.538  67.971  0.00  0.00    +0.069 A 
ATOM      6  C   UNL     1      -9.071  15.059  66.974  0.00  0.00    +0.018 A 
ATOM      7  C   UNL     1      -9.200  13.780  66.445  0.00  0.00    +0.018 A 
ATOM      8  C   UNL     1     -11.817  15.134  69.465  0.00  0.00    +0.200 C 
ATOM      9  O   UNL     1     -11.578  16.264  69.985  0.00  0.00    -0.286 OA
ATOM     10  C   UNL     1     -12.560  14.114  70.215  0.00  0.00    +0.084 A 
ATOM     11  C   UNL     1     -13.111  14.522  71.424  0.00  0.00    +0.199 A 
ATOM     12  O   UNL     1     -13.615  15.828  71.436  0.00  0.00    -0.286 OA
ATOM     13  C   UNL     1     -13.509  13.579  72.362  0.00  0.00    +0.045 A 
ATOM     14  C   UNL     1     -13.218  12.263  72.102  0.00  0.00    +0.045 A 
ATOM     15  C   UNL     1     -12.708  11.802  70.918  0.00  0.00    +0.199 A 
ATOM     16  O   UNL     1     -12.778  10.493  70.486  0.00  0.00    -0.286 OA
ATOM     17  C   UNL     1     -10.100  12.909  67.023  0.00  0.00    +0.069 A 
ATOM     18  C   UNL     1     -12.275  12.768  70.019  0.00  0.00    +0.084 A 
ENDROOT
BRANCH   5  19
ATOM     19  N   UNL     1      -9.374  16.493  68.891  0.00  0.00    -0.236 NA
BRANCH  19  20
ATOM     20  C   UNL     1      -8.668  17.685  68.507  0.00  0.00    +0.131 C 
BRANCH  20  21
ATOM     21  C   UNL     1      -9.421  18.952  68.810  0.00  0.00    +0.112 C 
BRANCH  21  22
ATOM     22  N   UNL     1     -10.607  18.948  67.955  0.00  0.00    -0.213 NA
BRANCH  22  23
ATOM     23  C   UNL     1     -10.559  20.142  67.118  0.00  0.00    +0.124 C 
BRANCH  23  24
ATOM     24  C   UNL     1     -10.131  19.663  65.736  0.00  0.00    +0.201 C 
ATOM     25  O   UNL     1     -10.662  18.387  65.557  0.00  0.00    -0.219 OA
ENDBRANCH  23  24
ENDBRANCH  22  23
ENDBRANCH  21  22
ENDBRANCH  20  21
ENDBRANCH  19  20
ENDBRANCH   5  19
BRANCH  17  26
ATOM     26  N   UNL     1     -10.044  11.522  66.669  0.00  0.00    -0.236 NA
BRANCH  26  27
ATOM     27  C   UNL     1      -9.806  11.067  65.323  0.00  0.00    +0.131 C 
BRANCH  27  28
ATOM     28  C   UNL     1      -9.760   9.569  65.197  0.00  0.00    +0.112 C 
BRANCH  28  29
ATOM     29  N   UNL     1      -8.672   8.977  65.930  0.00  0.00    -0.213 NA
BRANCH  29  30
ATOM     30  C   UNL     1      -9.100   7.700  66.495  0.00  0.00    +0.124 C 
BRANCH  30  31
ATOM     31  C   UNL     1     -10.547   7.905  66.920  0.00  0.00    +0.201 C 
ATOM     32  O   UNL     1     -11.171   6.662  66.927  0.00  0.00    -0.219 OA
ENDBRANCH  30  31
ENDBRANCH  29  30
ENDBRANCH  28  29
ENDBRANCH  27  28
ENDBRANCH  26  27
ENDBRANCH  17  26
TORSDOF 12
ENDMDL
