MODEL 1
REMARK VINA RESULT:      -6.2      0.000      0.000
REMARK  Name = 
REMARK  5 active torsions:
REMARK  status: ('A' for Active; 'I' for Inactive)
REMARK    1  A    between atoms: C_2  and  C_3
REMARK    2  A    between atoms: C_4  and  C_5
REMARK    3  A    between atoms: C_14  and  C_15
REMARK    4  A    between atoms: C_16  and  C_17
REMARK    5  A    between atoms: C_19  and  C_20
REMARK                            x       y       z     vdW  Elec       q    Type
REMARK                         _______ _______ _______ _____ _____    ______ ____
ROOT
ATOM      1  C   UNL     1      -9.963  20.072  68.021  0.00  0.00    +0.031 C 
ATOM      2  C   UNL     1      -9.859  18.595  68.199  0.00  0.00    -0.022 C 
ATOM      3  C   UNL     1     -10.625  17.740  67.522  0.00  0.00    -0.004 C 
ENDROOT
BRANCH   3   4
ATOM      4  C   UNL     1     -10.812  16.437  68.174  0.00  0.00    -0.001 C 
ATOM      5  C   UNL     1     -11.038  15.424  67.335  0.00  0.00    -0.004 C 
BRANCH   5   6
ATOM      6  C   UNL     1     -10.017  15.249  66.293  0.00  0.00    -0.015 C 
ATOM      7  C   UNL     1     -10.477  14.799  65.125  0.00  0.00    +0.082 C 
ATOM      8  C   UNL     1      -8.683  14.779  66.782  0.00  0.00    +0.031 C 
BRANCH   7   9
ATOM      9  C   UNL     1     -11.597  15.555  64.555  0.00  0.00    +0.388 C 
ATOM     10  O   UNL     1     -12.613  14.836  63.919  0.00  0.00    -0.241 OA
ATOM     11  O   UNL     1     -11.296  16.704  64.110  0.00  0.00    -0.241 OA
ENDBRANCH   7   9
ENDBRANCH   5   6
ENDBRANCH   3   4
BRANCH   2  12
ATOM     12  C   UNL     1      -8.534  18.088  68.577  0.00  0.00    -0.005 C 
ATOM     13  C   UNL     1      -7.461  18.228  67.835  0.00  0.00    -0.005 C 
BRANCH  13  14
ATOM     14  C   UNL     1      -6.216  18.845  68.312  0.00  0.00    -0.031 C 
ATOM     15  C   UNL     1      -5.168  18.031  69.002  0.00  0.00    +0.018 C 
ATOM     16  C   UNL     1      -4.159  17.548  67.967  0.00  0.00    +0.004 C 
ATOM     17  C   UNL     1      -5.812  16.826  69.676  0.00  0.00    +0.004 C 
ATOM     18  C   UNL     1      -4.504  18.836  70.082  0.00  0.00    +0.004 C 
ATOM     19  C   UNL     1      -5.374  19.990  70.537  0.00  0.00    +0.005 C 
ATOM     20  C   UNL     1      -5.462  20.953  69.357  0.00  0.00    +0.022 C 
ATOM     21  C   UNL     1      -6.013  20.157  68.216  0.00  0.00    -0.048 C 
ATOM     22  C   UNL     1      -6.687  20.871  67.086  0.00  0.00    +0.026 C 
ENDBRANCH  13  14
ENDBRANCH   2  12
TORSDOF 5
ENDMDL
MODEL 2
REMARK VINA RESULT:      -6.2      5.166      8.364
REMARK  Name = 
REMARK  5 active torsions:
REMARK  status: ('A' for Active; 'I' for Inactive)
REMARK    1  A    between atoms: C_2  and  C_3
REMARK    2  A    between atoms: C_4  and  C_5
REMARK    3  A    between atoms: C_14  and  C_15
REMARK    4  A    between atoms: C_16  and  C_17
REMARK    5  A    between atoms: C_19  and  C_20
REMARK                            x       y       z     vdW  Elec       q    Type
REMARK                         _______ _______ _______ _____ _____    ______ ____
ROOT
ATOM      1  C   UNL     1      -9.527  15.195  69.179  0.00  0.00    +0.031 C 
ATOM      2  C   UNL     1     -10.820  14.488  69.405  0.00  0.00    -0.022 C 
ATOM      3  C   UNL     1     -11.611  14.762  70.442  0.00  0.00    -0.004 C 
ENDROOT
BRANCH   3   4
ATOM      4  C   UNL     1     -12.505  13.666  70.837  0.00  0.00    -0.001 C 
ATOM      5  C   UNL     1     -13.163  13.871  71.980  0.00  0.00    -0.004 C 
BRANCH   5   6
ATOM      6  C   UNL     1     -13.948  15.112  72.024  0.00  0.00    -0.015 C 
ATOM      7  C   UNL     1     -13.911  15.760  73.188  0.00  0.00    +0.082 C 
ATOM      8  C   UNL     1     -15.225  15.086  71.243  0.00  0.00    +0.031 C 
BRANCH   7   9
ATOM      9  C   UNL     1     -12.570  16.040  73.712  0.00  0.00    +0.388 C 
ATOM     10  O   UNL     1     -12.407  16.083  75.099  0.00  0.00    -0.241 OA
ATOM     11  O   UNL     1     -11.865  16.813  72.994  0.00  0.00    -0.241 OA
ENDBRANCH   7   9
ENDBRANCH   5   6
ENDBRANCH   3   4
BRANCH   2  12
ATOM     12  C   UNL     1     -11.508  14.013  68.198  0.00  0.00    -0.005 C 
ATOM     13  C   UNL     1     -10.893  13.718  67.078  0.00  0.00    -0.005 C 
BRANCH  13  14
ATOM     14  C   UNL     1     -11.013  12.420  66.400  0.00  0.00    -0.031 C 
ATOM     15  C   UNL     1     -10.303  11.211  66.921  0.00  0.00    +0.018 C 
ATOM     16  C   UNL     1     -11.239  10.453  67.853  0.00  0.00    +0.004 C 
ATOM     17  C   UNL     1      -9.060  11.636  67.695  0.00  0.00    +0.004 C 
ATOM     18  C   UNL     1      -9.837  10.345  65.786  0.00  0.00    +0.004 C 
ATOM     19  C   UNL     1      -9.723  11.127  64.493  0.00  0.00    +0.005 C 
ATOM     20  C   UNL     1     -11.144  11.522  64.102  0.00  0.00    +0.022 C 
ATOM     21  C   UNL     1     -11.691  12.293  65.262  0.00  0.00    -0.048 C 
ATOM     22  C   UNL     1     -12.831  13.236  65.039  0.00  0.00    +0.026 C 
ENDBRANCH  13  14
ENDBRANCH   2  12
TORSDOF 5
ENDMDL
MODEL 3
REMARK VINA RESULT:      -6.1      0.985      2.501
REMARK  Name = 
REMARK  5 active torsions:
REMARK  status: ('A' for Active; 'I' for Inactive)
REMARK    1  A    between atoms: C_2  and  C_3
REMARK    2  A    between atoms: C_4  and  C_5
REMARK    3  A    between atoms: C_14  and  C_15
REMARK    4  A    between atoms: C_16  and  C_17
REMARK    5  A    between atoms: C_19  and  C_20
REMARK                            x       y       z     vdW  Elec       q    Type
REMARK                         _______ _______ _______ _____ _____    ______ ____
ROOT
ATOM      1  C   UNL     1      -9.943  20.362  67.531  0.00  0.00    +0.031 C 
ATOM      2  C   UNL     1      -9.781  18.920  67.875  0.00  0.00    -0.022 C 
ATOM      3  C   UNL     1     -10.506  17.964  67.296  0.00  0.00    -0.004 C 
ENDROOT
BRANCH   3   4
ATOM      4  C   UNL     1     -10.646  16.736  68.090  0.00  0.00    -0.001 C 
ATOM      5  C   UNL     1     -10.903  15.639  67.375  0.00  0.00    -0.004 C 
BRANCH   5   6
ATOM      6  C   UNL     1      -9.934  15.360  66.307  0.00  0.00    -0.015 C 
ATOM      7  C   UNL     1     -10.457  14.849  65.192  0.00  0.00    +0.082 C 
ATOM      8  C   UNL     1      -8.595  14.879  66.772  0.00  0.00    +0.031 C 
BRANCH   7   9
ATOM      9  C   UNL     1     -11.577  15.603  64.618  0.00  0.00    +0.388 C 
ATOM     10  O   UNL     1     -12.610  14.880  64.015  0.00  0.00    -0.241 OA
ATOM     11  O   UNL     1     -11.269  16.737  64.139  0.00  0.00    -0.241 OA
ENDBRANCH   7   9
ENDBRANCH   5   6
ENDBRANCH   3   4
BRANCH   2  12
ATOM     12  C   UNL     1      -8.441  18.514  68.314  0.00  0.00    -0.005 C 
ATOM     13  C   UNL     1      -7.484  18.149  67.493  0.00  0.00    -0.005 C 
BRANCH  13  14
ATOM     14  C   UNL     1      -6.155  18.772  67.463  0.00  0.00    -0.031 C 
ATOM     15  C   UNL     1      -5.883  19.968  66.606  0.00  0.00    +0.018 C 
ATOM     16  C   UNL     1      -6.106  21.227  67.434  0.00  0.00    +0.004 C 
ATOM     17  C   UNL     1      -6.834  19.975  65.415  0.00  0.00    +0.004 C 
ATOM     18  C   UNL     1      -4.488  19.913  66.053  0.00  0.00    +0.004 C 
ATOM     19  C   UNL     1      -3.941  18.500  66.049  0.00  0.00    +0.005 C 
ATOM     20  C   UNL     1      -3.778  18.098  67.511  0.00  0.00    +0.022 C 
ATOM     21  C   UNL     1      -5.131  18.251  68.135  0.00  0.00    -0.048 C 
ATOM     22  C   UNL     1      -5.450  17.489  69.382  0.00  0.00    +0.026 C 
ENDBRANCH  13  14
ENDBRANCH   2  12
TORSDOF 5
ENDMDL
MODEL 4
REMARK VINA RESULT:      -6.0      1.937      3.376
REMARK  Name = 
REMARK  5 active torsions:
REMARK  status: ('A' for Active; 'I' for Inactive)
REMARK    1  A    between atoms: C_2  and  C_3
REMARK    2  A    between atoms: C_4  and  C_5
REMARK    3  A    between atoms: C_14  and  C_15
REMARK    4  A    between atoms: C_16  and  C_17
REMARK    5  A    between atoms: C_19  and  C_20
REMARK                            x       y       z     vdW  Elec       q    Type
REMARK                         _______ _______ _______ _____ _____    ______ ____
ROOT
ATOM      1  C   UNL     1     -12.042  14.842  69.947  0.00  0.00    +0.031 C 
ATOM      2  C   UNL     1     -11.220  14.944  68.707  0.00  0.00    -0.022 C 
ATOM      3  C   UNL     1     -11.191  13.978  67.789  0.00  0.00    -0.004 C 
ENDROOT
BRANCH   3   4
ATOM      4  C   UNL     1      -9.977  13.953  66.963  0.00  0.00    -0.001 C 
ATOM      5  C   UNL     1     -10.182  13.626  65.685  0.00  0.00    -0.004 C 
BRANCH   5   6
ATOM      6  C   UNL     1     -11.169  14.461  64.987  0.00  0.00    -0.015 C 
ATOM      7  C   UNL     1     -11.775  13.872  63.956  0.00  0.00    +0.082 C 
ATOM      8  C   UNL     1     -10.823  15.915  64.898  0.00  0.00    +0.031 C 
BRANCH   7   9
ATOM      9  C   UNL     1     -12.389  12.571  64.245  0.00  0.00    +0.388 C 
ATOM     10  O   UNL     1     -12.410  11.619  63.222  0.00  0.00    -0.241 OA
ATOM     11  O   UNL     1     -13.358  12.606  65.062  0.00  0.00    -0.241 OA
ENDBRANCH   7   9
ENDBRANCH   5   6
ENDBRANCH   3   4
BRANCH   2  12
ATOM     12  C   UNL     1     -10.997  16.302  68.197  0.00  0.00    -0.005 C 
ATOM     13  C   UNL     1     -10.208  17.177  68.774  0.00  0.00    -0.005 C 
BRANCH  13  14
ATOM     14  C   UNL     1      -9.100  17.853  68.086  0.00  0.00    -0.031 C 
ATOM     15  C   UNL     1      -7.761  17.199  67.955  0.00  0.00    +0.018 C 
ATOM     16  C   UNL     1      -7.706  16.448  66.631  0.00  0.00    +0.004 C 
ATOM     17  C   UNL     1      -7.553  16.214  69.100  0.00  0.00    +0.004 C 
ATOM     18  C   UNL     1      -6.665  18.222  68.052  0.00  0.00    +0.004 C 
ATOM     19  C   UNL     1      -7.131  19.478  68.759  0.00  0.00    +0.005 C 
ATOM     20  C   UNL     1      -8.166  20.127  67.845  0.00  0.00    +0.022 C 
ATOM     21  C   UNL     1      -9.227  19.094  67.624  0.00  0.00    -0.048 C 
ATOM     22  C   UNL     1     -10.596  19.532  67.211  0.00  0.00    +0.026 C 
ENDBRANCH  13  14
ENDBRANCH   2  12
TORSDOF 5
ENDMDL
MODEL 5
REMARK VINA RESULT:      -5.8      5.623      8.997
REMARK  Name = 
REMARK  5 active torsions:
REMARK  status: ('A' for Active; 'I' for Inactive)
REMARK    1  A    between atoms: C_2  and  C_3
REMARK    2  A    between atoms: C_4  and  C_5
REMARK    3  A    between atoms: C_14  and  C_15
REMARK    4  A    between atoms: C_16  and  C_17
REMARK    5  A    between atoms: C_19  and  C_20
REMARK                            x       y       z     vdW  Elec       q    Type
REMARK                         _______ _______ _______ _____ _____    ______ ____
ROOT
ATOM      1  C   UNL     1      -9.703   9.246  67.134  0.00  0.00    +0.031 C 
ATOM      2  C   UNL     1      -9.855  10.697  67.445  0.00  0.00    -0.022 C 
ATOM      3  C   UNL     1      -9.943  11.625  66.493  0.00  0.00    -0.004 C 
ENDROOT
BRANCH   3   4
ATOM      4  C   UNL     1      -9.531  12.972  66.910  0.00  0.00    -0.001 C 
ATOM      5  C   UNL     1     -10.362  13.947  66.535  0.00  0.00    -0.004 C 
BRANCH   5   6
ATOM      6  C   UNL     1     -11.756  13.765  66.961  0.00  0.00    -0.015 C 
ATOM      7  C   UNL     1     -12.670  14.091  66.048  0.00  0.00    +0.082 C 
ATOM      8  C   UNL     1     -12.024  14.064  68.403  0.00  0.00    +0.031 C 
BRANCH   7   9
ATOM      9  C   UNL     1     -12.501  13.462  64.734  0.00  0.00    +0.388 C 
ATOM     10  O   UNL     1     -12.470  14.295  63.611  0.00  0.00    -0.241 OA
ATOM     11  O   UNL     1     -13.018  12.310  64.621  0.00  0.00    -0.241 OA
ENDBRANCH   7   9
ENDBRANCH   5   6
ENDBRANCH   3   4
BRANCH   2  12
ATOM     12  C   UNL     1     -10.555  11.013  68.696  0.00  0.00    -0.005 C 
ATOM     13  C   UNL     1     -11.599  10.350  69.135  0.00  0.00    -0.005 C 
BRANCH  13  14
ATOM     14  C   UNL     1     -11.669   9.729  70.464  0.00  0.00    -0.031 C 
ATOM     15  C   UNL     1     -10.905   8.481  70.773  0.00  0.00    +0.018 C 
ATOM     16  C   UNL     1      -9.558   8.864  71.373  0.00  0.00    +0.004 C 
ATOM     17  C   UNL     1     -10.676   7.686  69.493  0.00  0.00    +0.004 C 
ATOM     18  C   UNL     1     -11.689   7.600  71.702  0.00  0.00    +0.004 C 
ATOM     19  C   UNL     1     -13.171   7.912  71.654  0.00  0.00    +0.005 C 
ATOM     20  C   UNL     1     -13.335   9.311  72.241  0.00  0.00    +0.022 C 
ATOM     21  C   UNL     1     -12.471  10.210  71.411  0.00  0.00    -0.048 C 
ATOM     22  C   UNL     1     -12.766  11.676  71.376  0.00  0.00    +0.026 C 
ENDBRANCH  13  14
ENDBRANCH   2  12
TORSDOF 5
ENDMDL
MODEL 6
REMARK VINA RESULT:      -5.8      2.137      3.888
REMARK  Name = 
REMARK  5 active torsions:
REMARK  status: ('A' for Active; 'I' for Inactive)
REMARK    1  A    between atoms: C_2  and  C_3
REMARK    2  A    between atoms: C_4  and  C_5
REMARK    3  A    between atoms: C_14  and  C_15
REMARK    4  A    between atoms: C_16  and  C_17
REMARK    5  A    between atoms: C_19  and  C_20
REMARK                            x       y       z     vdW  Elec       q    Type
REMARK                         _______ _______ _______ _____ _____    ______ ____
ROOT
ATOM      1  C   UNL     1     -12.431  15.544  70.063  0.00  0.00    +0.031 C 
ATOM      2  C   UNL     1     -11.422  15.333  68.986  0.00  0.00    -0.022 C 
ATOM      3  C   UNL     1     -11.503  14.322  68.121  0.00  0.00    -0.004 C 
ENDROOT
BRANCH   3   4
ATOM      4  C   UNL     1     -10.222  13.922  67.524  0.00  0.00    -0.001 C 
ATOM      5  C   UNL     1     -10.318  13.421  66.291  0.00  0.00    -0.004 C 
BRANCH   5   6
ATOM      6  C   UNL     1     -10.998  14.292  65.323  0.00  0.00    -0.015 C 
ATOM      7  C   UNL     1     -11.362  13.696  64.188  0.00  0.00    +0.082 C 
ATOM      8  C   UNL     1     -10.503  15.704  65.280  0.00  0.00    +0.031 C 
BRANCH   7   9
ATOM      9  C   UNL     1     -12.152  12.470  64.345  0.00  0.00    +0.388 C 
ATOM     10  O   UNL     1     -11.922  11.426  63.444  0.00  0.00    -0.241 OA
ATOM     11  O   UNL     1     -13.328  12.644  64.785  0.00  0.00    -0.241 OA
ENDBRANCH   7   9
ENDBRANCH   5   6
ENDBRANCH   3   4
BRANCH   2  12
ATOM     12  C   UNL     1     -10.768  16.544  68.476  0.00  0.00    -0.005 C 
ATOM     13  C   UNL     1      -9.786  17.156  69.094  0.00  0.00    -0.005 C 
BRANCH  13  14
ATOM     14  C   UNL     1      -8.486  17.444  68.472  0.00  0.00    -0.031 C 
ATOM     15  C   UNL     1      -8.189  18.794  67.902  0.00  0.00    +0.018 C 
ATOM     16  C   UNL     1      -7.508  19.642  68.969  0.00  0.00    +0.004 C 
ATOM     17  C   UNL     1      -9.486  19.472  67.474  0.00  0.00    +0.004 C 
ATOM     18  C   UNL     1      -7.334  18.669  66.673  0.00  0.00    +0.004 C 
ATOM     19  C   UNL     1      -7.444  17.292  66.051  0.00  0.00    +0.005 C 
ATOM     20  C   UNL     1      -6.813  16.321  67.044  0.00  0.00    +0.022 C 
ATOM     21  C   UNL     1      -7.563  16.497  68.327  0.00  0.00    -0.048 C 
ATOM     22  C   UNL     1      -7.556  15.391  69.335  0.00  0.00    +0.026 C 
ENDBRANCH  13  14
ENDBRANCH   2  12
TORSDOF 5
ENDMDL
MODEL 7
REMARK VINA RESULT:      -5.7      5.269      8.678
REMARK  Name = 
REMARK  5 active torsions:
REMARK  status: ('A' for Active; 'I' for Inactive)
REMARK    1  A    between atoms: C_2  and  C_3
REMARK    2  A    between atoms: C_4  and  C_5
REMARK    3  A    between atoms: C_14  and  C_15
REMARK    4  A    between atoms: C_16  and  C_17
REMARK    5  A    between atoms: C_19  and  C_20
REMARK                            x       y       z     vdW  Elec       q    Type
REMARK                         _______ _______ _______ _____ _____    ______ ____
ROOT
ATOM      1  C   UNL     1      -8.917  11.461  68.408  0.00  0.00    +0.031 C 
ATOM      2  C   UNL     1     -10.242  12.124  68.241  0.00  0.00    -0.022 C 
ATOM      3  C   UNL     1     -10.747  12.417  67.044  0.00  0.00    -0.004 C 
ENDROOT
BRANCH   3   4
ATOM      4  C   UNL     1     -11.721  13.516  67.041  0.00  0.00    -0.001 C 
ATOM      5  C   UNL     1     -11.189  14.730  67.196  0.00  0.00    -0.004 C 
BRANCH   5   6
ATOM      6  C   UNL     1     -10.142  15.071  66.223  0.00  0.00    -0.015 C 
ATOM      7  C   UNL     1     -10.454  14.825  64.951  0.00  0.00    +0.082 C 
ATOM      8  C   UNL     1      -8.739  14.837  66.690  0.00  0.00    +0.031 C 
BRANCH   7   9
ATOM      9  C   UNL     1     -11.722  15.400  64.489  0.00  0.00    +0.388 C 
ATOM     10  O   UNL     1     -12.668  14.534  63.934  0.00  0.00    -0.241 OA
ATOM     11  O   UNL     1     -11.641  16.581  64.035  0.00  0.00    -0.241 OA
ENDBRANCH   7   9
ENDBRANCH   5   6
ENDBRANCH   3   4
BRANCH   2  12
ATOM     12  C   UNL     1     -11.231  11.849  69.290  0.00  0.00    -0.005 C 
ATOM     13  C   UNL     1     -11.896  10.722  69.387  0.00  0.00    -0.005 C 
BRANCH  13  14
ATOM     14  C   UNL     1     -11.915   9.889  70.597  0.00  0.00    -0.031 C 
ATOM     15  C   UNL     1     -11.030   8.690  70.720  0.00  0.00    +0.018 C 
ATOM     16  C   UNL     1      -9.734   9.102  71.408  0.00  0.00    +0.004 C 
ATOM     17  C   UNL     1     -10.710   8.140  69.335  0.00  0.00    +0.004 C 
ATOM     18  C   UNL     1     -11.728   7.596  71.475  0.00  0.00    +0.004 C 
ATOM     19  C   UNL     1     -13.234   7.763  71.441  0.00  0.00    +0.005 C 
ATOM     20  C   UNL     1     -13.545   9.025  72.240  0.00  0.00    +0.022 C 
ATOM     21  C   UNL     1     -12.770  10.127  71.588  0.00  0.00    -0.048 C 
ATOM     22  C   UNL     1     -13.213  11.543  71.782  0.00  0.00    +0.026 C 
ENDBRANCH  13  14
ENDBRANCH   2  12
TORSDOF 5
ENDMDL
MODEL 8
REMARK VINA RESULT:      -5.7      6.408      9.520
REMARK  Name = 
REMARK  5 active torsions:
REMARK  status: ('A' for Active; 'I' for Inactive)
REMARK    1  A    between atoms: C_2  and  C_3
REMARK    2  A    between atoms: C_4  and  C_5
REMARK    3  A    between atoms: C_14  and  C_15
REMARK    4  A    between atoms: C_16  and  C_17
REMARK    5  A    between atoms: C_19  and  C_20
REMARK                            x       y       z     vdW  Elec       q    Type
REMARK                         _______ _______ _______ _____ _____    ______ ____
ROOT
ATOM      1  C   UNL     1     -12.004  12.112  69.888  0.00  0.00    +0.031 C 
ATOM      2  C   UNL     1     -11.074  10.973  69.638  0.00  0.00    -0.022 C 
ATOM      3  C   UNL     1     -10.936   9.963  70.496  0.00  0.00    -0.004 C 
ENDROOT
BRANCH   3   4
ATOM      4  C   UNL     1      -9.652   9.256  70.411  0.00  0.00    -0.001 C 
ATOM      5  C   UNL     1      -9.734   7.935  70.575  0.00  0.00    -0.004 C 
BRANCH   5   6
ATOM      6  C   UNL     1     -10.666   7.257  69.664  0.00  0.00    -0.015 C 
ATOM      7  C   UNL     1     -11.343   6.244  70.204  0.00  0.00    +0.082 C 
ATOM      8  C   UNL     1     -10.206   7.155  68.243  0.00  0.00    +0.031 C 
BRANCH   7   9
ATOM      9  C   UNL     1     -12.053   6.551  71.450  0.00  0.00    +0.388 C 
ATOM     10  O   UNL     1     -11.848   5.705  72.543  0.00  0.00    -0.241 OA
ATOM     11  O   UNL     1     -13.194   7.083  71.299  0.00  0.00    -0.241 OA
ENDBRANCH   7   9
ENDBRANCH   5   6
ENDBRANCH   3   4
BRANCH   2  12
ATOM     12  C   UNL     1     -10.841  10.635  68.229  0.00  0.00    -0.005 C 
ATOM     13  C   UNL     1     -11.509  11.166  67.232  0.00  0.00    -0.005 C 
BRANCH  13  14
ATOM     14  C   UNL     1     -10.873  11.849  66.098  0.00  0.00    -0.031 C 
ATOM     15  C   UNL     1     -10.813  13.342  66.033  0.00  0.00    +0.018 C 
ATOM     16  C   UNL     1      -9.497  13.809  66.642  0.00  0.00    +0.004 C 
ATOM     17  C   UNL     1     -11.972  13.940  66.822  0.00  0.00    +0.004 C 
ATOM     18  C   UNL     1     -10.959  13.813  64.615  0.00  0.00    +0.004 C 
ATOM     19  C   UNL     1     -11.636  12.774  63.745  0.00  0.00    +0.005 C 
ATOM     20  C   UNL     1     -10.668  11.598  63.648  0.00  0.00    +0.022 C 
ATOM     21  C   UNL     1     -10.400  11.168  65.057  0.00  0.00    -0.048 C 
ATOM     22  C   UNL     1      -9.917   9.776  65.315  0.00  0.00    +0.026 C 
ENDBRANCH  13  14
ENDBRANCH   2  12
TORSDOF 5
ENDMDL
MODEL 9
REMARK VINA RESULT:      -5.7      2.416      3.578
REMARK  Name = 
REMARK  5 active torsions:
REMARK  status: ('A' for Active; 'I' for Inactive)
REMARK    1  A    between atoms: C_2  and  C_3
REMARK    2  A    between atoms: C_4  and  C_5
REMARK    3  A    between atoms: C_14  and  C_15
REMARK    4  A    between atoms: C_16  and  C_17
REMARK    5  A    between atoms: C_19  and  C_20
REMARK                            x       y       z     vdW  Elec       q    Type
REMARK                         _______ _______ _______ _____ _____    ______ ____
ROOT
ATOM      1  C   UNL     1     -11.613  15.800  69.836  0.00  0.00    +0.031 C 
ATOM      2  C   UNL     1     -11.023  15.881  68.469  0.00  0.00    -0.022 C 
ATOM      3  C   UNL     1     -11.334  15.013  67.506  0.00  0.00    -0.004 C 
ENDROOT
BRANCH   3   4
ATOM      4  C   UNL     1     -10.313  14.867  66.460  0.00  0.00    -0.001 C 
ATOM      5  C   UNL     1     -10.104  13.611  66.060  0.00  0.00    -0.004 C 
BRANCH   5   6
ATOM      6  C   UNL     1     -11.306  12.903  65.599  0.00  0.00    -0.015 C 
ATOM      7  C   UNL     1     -11.341  11.604  65.894  0.00  0.00    +0.082 C 
ATOM      8  C   UNL     1     -11.855  13.370  64.287  0.00  0.00    +0.031 C 
BRANCH   7   9
ATOM      9  C   UNL     1     -11.119  11.271  67.305  0.00  0.00    +0.388 C 
ATOM     10  O   UNL     1     -10.144  10.315  67.604  0.00  0.00    -0.241 OA
ATOM     11  O   UNL     1     -12.151  11.337  68.040  0.00  0.00    -0.241 OA
ENDBRANCH   7   9
ENDBRANCH   5   6
ENDBRANCH   3   4
BRANCH   2  12
ATOM     12  C   UNL     1     -10.658  17.226  68.008  0.00  0.00    -0.005 C 
ATOM     13  C   UNL     1      -9.715  17.953  68.558  0.00  0.00    -0.005 C 
BRANCH  13  14
ATOM     14  C   UNL     1      -8.583  18.518  67.812  0.00  0.00    -0.031 C 
ATOM     15  C   UNL     1      -7.323  17.736  67.616  0.00  0.00    +0.018 C 
ATOM     16  C   UNL     1      -7.410  16.985  66.293  0.00  0.00    +0.004 C 
ATOM     17  C   UNL     1      -7.156  16.733  68.752  0.00  0.00    +0.004 C 
ATOM     18  C   UNL     1      -6.128  18.644  67.654  0.00  0.00    +0.004 C 
ATOM     19  C   UNL     1      -6.431  19.939  68.380  0.00  0.00    +0.005 C 
ATOM     20  C   UNL     1      -7.442  20.689  67.517  0.00  0.00    +0.022 C 
ATOM     21  C   UNL     1      -8.610  19.767  67.354  0.00  0.00    -0.048 C 
ATOM     22  C   UNL     1      -9.948  20.339  67.009  0.00  0.00    +0.026 C 
ENDBRANCH  13  14
ENDBRANCH   2  12
TORSDOF 5
ENDMDL
