MODEL 1
REMARK VINA RESULT:      -6.3      0.000      0.000
REMARK  Name = 
REMARK  2 active torsions:
REMARK  status: ('A' for Active; 'I' for Inactive)
REMARK    1  A    between atoms: N_11  and  C_12
REMARK    2  A    between atoms: C_14  and  C_15
REMARK                            x       y       z     vdW  Elec       q    Type
REMARK                         _______ _______ _______ _____ _____    ______ ____
ROOT
ATOM      1  N   UNL     1     -10.540  19.056  68.117  0.00  0.00    -0.105 NA
ATOM      2  C   UNL     1     -10.091  18.054  67.415  0.00  0.00    +0.193 A 
ATOM      3  C   UNL     1     -10.773  16.838  67.502  0.00  0.00    +0.152 A 
ATOM      4  N   UNL     1     -11.500  16.240  68.487  0.00  0.00    -0.219 NA
ATOM      5  C   UNL     1     -11.676  14.956  68.068  0.00  0.00    +0.182 A 
ATOM      6  N   UNL     1     -11.087  14.869  66.831  0.00  0.00    -0.269 N 
ATOM      7  C   UNL     1     -10.192  15.756  66.829  0.00  0.00    +0.170 A 
ATOM      8  N   UNL     1      -8.883  15.717  66.561  0.00  0.00    -0.198 NA
ATOM      9  C   UNL     1      -8.294  16.932  66.369  0.00  0.00    +0.227 A 
ATOM     10 CL   UNL     1      -6.533  16.770  66.401  0.00  0.00    -0.041 Cl
ATOM     11  N   UNL     1      -8.912  18.094  66.729  0.00  0.00    -0.197 NA
ENDROOT
BRANCH   6  12
ATOM     12  C   UNL     1     -11.218  13.417  66.263  0.00  0.00    +0.243 C 
ATOM     13  C   UNL     1     -12.690  13.600  65.366  0.00  0.00    +0.243 C 
ATOM     14  F   UNL     1     -12.588  15.029  65.021  0.00  0.00    -0.230 F 
ATOM     15  C   UNL     1     -11.992  13.174  63.867  0.00  0.00    +0.218 C 
ATOM     16  O   UNL     1     -13.006  12.095  63.641  0.00  0.00    -0.217 OA
ATOM     17  C   UNL     1     -10.947  12.168  64.760  0.00  0.00    +0.183 C 
ATOM     18  O   UNL     1     -10.308  13.522  65.050  0.00  0.00    -0.330 OA
BRANCH  17  19
ATOM     19  C   UNL     1      -9.987  11.828  63.476  0.00  0.00    +0.214 C 
ATOM     20  O   UNL     1      -9.813  10.447  63.649  0.00  0.00    -0.218 OA
ENDBRANCH  17  19
ENDBRANCH   6  12
TORSDOF 2
ENDMDL
MODEL 2
REMARK VINA RESULT:      -6.2      4.185      6.399
REMARK  Name = 
REMARK  2 active torsions:
REMARK  status: ('A' for Active; 'I' for Inactive)
REMARK    1  A    between atoms: N_11  and  C_12
REMARK    2  A    between atoms: C_14  and  C_15
REMARK                            x       y       z     vdW  Elec       q    Type
REMARK                         _______ _______ _______ _____ _____    ______ ____
ROOT
ATOM      1  N   UNL     1     -11.740  16.367  69.131  0.00  0.00    -0.105 NA
ATOM      2  C   UNL     1     -10.861  16.446  68.173  0.00  0.00    +0.193 A 
ATOM      3  C   UNL     1     -10.409  17.715  67.803  0.00  0.00    +0.152 A 
ATOM      4  N   UNL     1     -10.977  18.953  67.820  0.00  0.00    -0.219 NA
ATOM      5  C   UNL     1     -10.139  19.737  67.086  0.00  0.00    +0.182 A 
ATOM      6  N   UNL     1      -9.090  18.936  66.711  0.00  0.00    -0.269 N 
ATOM      7  C   UNL     1      -9.558  17.767  66.693  0.00  0.00    +0.170 A 
ATOM      8  N   UNL     1      -9.566  16.812  65.756  0.00  0.00    -0.198 NA
ATOM      9  C   UNL     1      -9.902  15.567  66.200  0.00  0.00    +0.227 A 
ATOM     10 CL   UNL     1     -10.240  14.500  64.831  0.00  0.00    -0.041 Cl
ATOM     11  N   UNL     1     -10.482  15.373  67.419  0.00  0.00    -0.197 NA
ENDROOT
BRANCH   6  12
ATOM     12  C   UNL     1      -8.069  19.742  65.840  0.00  0.00    +0.243 C 
ATOM     13  C   UNL     1      -6.982  20.256  67.088  0.00  0.00    +0.243 C 
ATOM     14  F   UNL     1      -7.147  19.136  68.031  0.00  0.00    -0.230 F 
ATOM     15  C   UNL     1      -5.615  19.497  66.403  0.00  0.00    +0.218 C 
ATOM     16  O   UNL     1      -4.839  20.777  66.399  0.00  0.00    -0.217 OA
ATOM     17  C   UNL     1      -6.340  19.794  64.891  0.00  0.00    +0.183 C 
ATOM     18  O   UNL     1      -7.183  18.608  65.350  0.00  0.00    -0.330 OA
BRANCH  17  19
ATOM     19  C   UNL     1      -5.256  18.887  64.061  0.00  0.00    +0.214 C 
ATOM     20  O   UNL     1      -5.559  19.271  62.746  0.00  0.00    -0.218 OA
ENDBRANCH  17  19
ENDBRANCH   6  12
TORSDOF 2
ENDMDL
MODEL 3
REMARK VINA RESULT:      -6.1      3.583      4.658
REMARK  Name = 
REMARK  2 active torsions:
REMARK  status: ('A' for Active; 'I' for Inactive)
REMARK    1  A    between atoms: N_11  and  C_12
REMARK    2  A    between atoms: C_14  and  C_15
REMARK                            x       y       z     vdW  Elec       q    Type
REMARK                         _______ _______ _______ _____ _____    ______ ____
ROOT
ATOM      1  N   UNL     1     -11.591  16.559  63.987  0.00  0.00    -0.105 NA
ATOM      2  C   UNL     1     -11.717  15.374  64.515  0.00  0.00    +0.193 A 
ATOM      3  C   UNL     1     -10.851  15.028  65.555  0.00  0.00    +0.152 A 
ATOM      4  N   UNL     1      -9.574  15.386  65.870  0.00  0.00    -0.219 NA
ATOM      5  C   UNL     1      -9.189  14.510  66.838  0.00  0.00    +0.182 A 
ATOM      6  N   UNL     1     -10.273  13.706  67.085  0.00  0.00    -0.269 N 
ATOM      7  C   UNL     1     -10.936  13.708  66.014  0.00  0.00    +0.170 A 
ATOM      8  N   UNL     1     -11.403  12.723  65.239  0.00  0.00    -0.198 NA
ATOM      9  C   UNL     1     -12.335  13.103  64.319  0.00  0.00    +0.227 A 
ATOM     10 CL   UNL     1     -12.583  11.814  63.133  0.00  0.00    -0.041 Cl
ATOM     11  N   UNL     1     -12.540  14.414  64.004  0.00  0.00    -0.197 NA
ENDROOT
BRANCH   6  12
ATOM     12  C   UNL     1      -9.928  12.641  68.180  0.00  0.00    +0.243 C 
ATOM     13  C   UNL     1     -11.264  12.902  69.253  0.00  0.00    +0.243 C 
ATOM     14  F   UNL     1     -12.275  13.350  68.279  0.00  0.00    -0.230 F 
ATOM     15  C   UNL     1     -11.846  11.301  69.141  0.00  0.00    +0.218 C 
ATOM     16  O   UNL     1     -11.807  11.125  70.627  0.00  0.00    -0.217 OA
ATOM     17  C   UNL     1     -10.221  10.838  68.925  0.00  0.00    +0.183 C 
ATOM     18  O   UNL     1     -10.515  11.396  67.536  0.00  0.00    -0.330 OA
BRANCH  17  19
ATOM     19  C   UNL     1     -10.591   9.289  68.539  0.00  0.00    +0.214 C 
ATOM     20  O   UNL     1      -9.663   9.056  67.513  0.00  0.00    -0.218 OA
ENDBRANCH  17  19
ENDBRANCH   6  12
TORSDOF 2
ENDMDL
MODEL 4
REMARK VINA RESULT:      -6.0      3.721      6.001
REMARK  Name = 
REMARK  2 active torsions:
REMARK  status: ('A' for Active; 'I' for Inactive)
REMARK    1  A    between atoms: N_11  and  C_12
REMARK    2  A    between atoms: C_14  and  C_15
REMARK                            x       y       z     vdW  Elec       q    Type
REMARK                         _______ _______ _______ _____ _____    ______ ____
ROOT
ATOM      1  N   UNL     1     -11.939  10.665  69.018  0.00  0.00    -0.105 NA
ATOM      2  C   UNL     1     -11.741  11.732  68.299  0.00  0.00    +0.193 A 
ATOM      3  C   UNL     1     -11.666  12.961  68.960  0.00  0.00    +0.152 A 
ATOM      4  N   UNL     1     -12.226  13.444  70.105  0.00  0.00    -0.219 NA
ATOM      5  C   UNL     1     -11.994  14.786  70.074  0.00  0.00    +0.182 A 
ATOM      6  N   UNL     1     -11.264  15.025  68.936  0.00  0.00    -0.269 N 
ATOM      7  C   UNL     1     -11.573  14.095  68.145  0.00  0.00    +0.170 A 
ATOM      8  N   UNL     1     -12.020  14.093  66.885  0.00  0.00    -0.198 NA
ATOM      9  C   UNL     1     -11.959  12.888  66.250  0.00  0.00    +0.227 A 
ATOM     10 CL   UNL     1     -12.910  12.933  64.759  0.00  0.00    -0.041 Cl
ATOM     11  N   UNL     1     -11.756  11.726  66.934  0.00  0.00    -0.197 NA
ENDROOT
BRANCH   6  12
ATOM     12  C   UNL     1     -10.956  16.554  68.794  0.00  0.00    +0.243 C 
ATOM     13  C   UNL     1      -9.249  16.523  69.090  0.00  0.00    +0.243 C 
ATOM     14  F   UNL     1      -8.938  15.175  68.583  0.00  0.00    -0.230 F 
ATOM     15  C   UNL     1      -8.835  17.203  67.580  0.00  0.00    +0.218 C 
ATOM     16  O   UNL     1      -8.051  18.301  68.229  0.00  0.00    -0.217 OA
ATOM     17  C   UNL     1     -10.313  18.043  67.672  0.00  0.00    +0.183 C 
ATOM     18  O   UNL     1     -10.828  16.661  67.284  0.00  0.00    -0.330 OA
BRANCH  17  19
ATOM     19  C   UNL     1     -10.226  18.601  66.134  0.00  0.00    +0.214 C 
ATOM     20  O   UNL     1     -10.485  19.964  66.344  0.00  0.00    -0.218 OA
ENDBRANCH  17  19
ENDBRANCH   6  12
TORSDOF 2
ENDMDL
MODEL 5
REMARK VINA RESULT:      -6.0      2.444      3.278
REMARK  Name = 
REMARK  2 active torsions:
REMARK  status: ('A' for Active; 'I' for Inactive)
REMARK    1  A    between atoms: N_11  and  C_12
REMARK    2  A    between atoms: C_14  and  C_15
REMARK                            x       y       z     vdW  Elec       q    Type
REMARK                         _______ _______ _______ _____ _____    ______ ____
ROOT
ATOM      1  N   UNL     1      -7.492  19.231  69.030  0.00  0.00    -0.105 NA
ATOM      2  C   UNL     1      -8.424  18.701  68.290  0.00  0.00    +0.193 A 
ATOM      3  C   UNL     1      -8.263  17.372  67.890  0.00  0.00    +0.152 A 
ATOM      4  N   UNL     1      -7.172  16.595  67.638  0.00  0.00    -0.219 NA
ATOM      5  C   UNL     1      -7.662  15.483  67.026  0.00  0.00    +0.182 A 
ATOM      6  N   UNL     1      -9.026  15.632  66.989  0.00  0.00    -0.269 N 
ATOM      7  C   UNL     1      -9.222  16.876  66.999  0.00  0.00    +0.170 A 
ATOM      8  N   UNL     1      -9.923  17.686  66.198  0.00  0.00    -0.198 NA
ATOM      9  C   UNL     1     -10.150  18.936  66.695  0.00  0.00    +0.227 A 
ATOM     10 CL   UNL     1     -10.741  20.004  65.414  0.00  0.00    -0.041 Cl
ATOM     11  N   UNL     1      -9.460  19.419  67.767  0.00  0.00    -0.197 NA
ENDROOT
BRANCH   6  12
ATOM     12  C   UNL     1      -9.693  14.404  66.282  0.00  0.00    +0.243 C 
ATOM     13  C   UNL     1     -10.149  13.490  67.682  0.00  0.00    +0.243 C 
ATOM     14  F   UNL     1     -10.354  14.593  68.637  0.00  0.00    -0.230 F 
ATOM     15  C   UNL     1     -11.814  13.485  67.308  0.00  0.00    +0.218 C 
ATOM     16  O   UNL     1     -11.882  11.991  67.380  0.00  0.00    -0.217 OA
ATOM     17  C   UNL     1     -11.338  13.503  65.672  0.00  0.00    +0.183 C 
ATOM     18  O   UNL     1     -11.083  14.964  66.029  0.00  0.00    -0.330 OA
BRANCH  17  19
ATOM     19  C   UNL     1     -12.858  13.756  65.112  0.00  0.00    +0.214 C 
ATOM     20  O   UNL     1     -12.575  14.406  63.901  0.00  0.00    -0.218 OA
ENDBRANCH  17  19
ENDBRANCH   6  12
TORSDOF 2
ENDMDL
MODEL 6
REMARK VINA RESULT:      -6.0      4.515      5.504
REMARK  Name = 
REMARK  2 active torsions:
REMARK  status: ('A' for Active; 'I' for Inactive)
REMARK    1  A    between atoms: N_11  and  C_12
REMARK    2  A    between atoms: C_14  and  C_15
REMARK                            x       y       z     vdW  Elec       q    Type
REMARK                         _______ _______ _______ _____ _____    ______ ____
ROOT
ATOM      1  N   UNL     1     -10.962  17.237  68.323  0.00  0.00    -0.105 NA
ATOM      2  C   UNL     1     -11.283  16.208  69.054  0.00  0.00    +0.193 A 
ATOM      3  C   UNL     1     -11.370  14.963  68.427  0.00  0.00    +0.152 A 
ATOM      4  N   UNL     1     -11.692  14.571  67.162  0.00  0.00    -0.219 NA
ATOM      5  C   UNL     1     -11.863  13.223  67.241  0.00  0.00    +0.182 A 
ATOM      6  N   UNL     1     -11.585  12.873  68.539  0.00  0.00    -0.269 N 
ATOM      7  C   UNL     1     -11.834  13.905  69.218  0.00  0.00    +0.170 A 
ATOM      8  N   UNL     1     -12.603  14.115  70.292  0.00  0.00    -0.198 NA
ATOM      9  C   UNL     1     -12.391  15.300  70.933  0.00  0.00    +0.227 A 
ATOM     10 CL   UNL     1     -13.700  15.618  72.079  0.00  0.00    -0.041 Cl
ATOM     11  N   UNL     1     -11.685  16.313  70.354  0.00  0.00    -0.197 NA
ENDROOT
BRANCH   6  12
ATOM     12  C   UNL     1     -11.771  11.333  68.744  0.00  0.00    +0.243 C 
ATOM     13  C   UNL     1     -10.194  10.795  68.264  0.00  0.00    +0.243 C 
ATOM     14  F   UNL     1      -9.406  11.980  68.648  0.00  0.00    -0.230 F 
ATOM     15  C   UNL     1      -9.839  10.056  69.761  0.00  0.00    +0.218 C 
ATOM     16  O   UNL     1      -9.536   8.745  69.103  0.00  0.00    -0.217 OA
ATOM     17  C   UNL     1     -11.509   9.743  69.882  0.00  0.00    +0.183 C 
ATOM     18  O   UNL     1     -11.500  11.227  70.236  0.00  0.00    -0.330 OA
BRANCH  17  19
ATOM     19  C   UNL     1     -11.418   9.226  71.435  0.00  0.00    +0.214 C 
ATOM     20  O   UNL     1     -12.665   9.653  71.917  0.00  0.00    -0.218 OA
ENDBRANCH  17  19
ENDBRANCH   6  12
TORSDOF 2
ENDMDL
MODEL 7
REMARK VINA RESULT:      -5.9      3.162      4.130
REMARK  Name = 
REMARK  2 active torsions:
REMARK  status: ('A' for Active; 'I' for Inactive)
REMARK    1  A    between atoms: N_11  and  C_12
REMARK    2  A    between atoms: C_14  and  C_15
REMARK                            x       y       z     vdW  Elec       q    Type
REMARK                         _______ _______ _______ _____ _____    ______ ____
ROOT
ATOM      1  N   UNL     1     -11.284  16.796  64.171  0.00  0.00    -0.105 NA
ATOM      2  C   UNL     1     -10.996  16.036  65.189  0.00  0.00    +0.193 A 
ATOM      3  C   UNL     1     -11.406  14.702  65.145  0.00  0.00    +0.152 A 
ATOM      4  N   UNL     1     -12.455  14.063  64.554  0.00  0.00    -0.219 NA
ATOM      5  C   UNL     1     -12.463  12.815  65.099  0.00  0.00    +0.182 A 
ATOM      6  N   UNL     1     -11.388  12.759  65.950  0.00  0.00    -0.269 N 
ATOM      7  C   UNL     1     -11.186  13.950  66.305  0.00  0.00    +0.170 A 
ATOM      8  N   UNL     1     -11.077  14.528  67.506  0.00  0.00    -0.198 NA
ATOM      9  C   UNL     1     -10.559  15.789  67.498  0.00  0.00    +0.227 A 
ATOM     10 CL   UNL     1     -10.817  16.567  69.065  0.00  0.00    -0.041 Cl
ATOM     11  N   UNL     1     -10.456  16.515  66.347  0.00  0.00    -0.197 NA
ENDROOT
BRANCH   6  12
ATOM     12  C   UNL     1     -11.315  11.360  66.648  0.00  0.00    +0.243 C 
ATOM     13  C   UNL     1     -10.123  10.606  65.640  0.00  0.00    +0.243 C 
ATOM     14  F   UNL     1      -9.356  11.799  65.238  0.00  0.00    -0.230 F 
ATOM     15  C   UNL     1      -9.028  10.314  66.916  0.00  0.00    +0.218 C 
ATOM     16  O   UNL     1      -8.964   8.852  66.598  0.00  0.00    -0.217 OA
ATOM     17  C   UNL     1     -10.398  10.158  67.916  0.00  0.00    +0.183 C 
ATOM     18  O   UNL     1     -10.351  11.677  67.780  0.00  0.00    -0.330 OA
BRANCH  17  19
ATOM     19  C   UNL     1      -9.526  10.110  69.302  0.00  0.00    +0.214 C 
ATOM     20  O   UNL     1     -10.554  10.213  70.251  0.00  0.00    -0.218 OA
ENDBRANCH  17  19
ENDBRANCH   6  12
TORSDOF 2
ENDMDL
MODEL 8
REMARK VINA RESULT:      -5.8      2.671      3.803
REMARK  Name = 
REMARK  2 active torsions:
REMARK  status: ('A' for Active; 'I' for Inactive)
REMARK    1  A    between atoms: N_11  and  C_12
REMARK    2  A    between atoms: C_14  and  C_15
REMARK                            x       y       z     vdW  Elec       q    Type
REMARK                         _______ _______ _______ _____ _____    ______ ____
ROOT
ATOM      1  N   UNL     1     -11.656  16.743  64.167  0.00  0.00    -0.105 NA
ATOM      2  C   UNL     1     -10.887  15.839  64.705  0.00  0.00    +0.193 A 
ATOM      3  C   UNL     1     -11.272  14.501  64.591  0.00  0.00    +0.152 A 
ATOM      4  N   UNL     1     -12.481  13.879  64.498  0.00  0.00    -0.219 NA
ATOM      5  C   UNL     1     -12.215  12.557  64.687  0.00  0.00    +0.182 A 
ATOM      6  N   UNL     1     -10.854  12.454  64.834  0.00  0.00    -0.269 N 
ATOM      7  C   UNL     1     -10.486  13.572  65.283  0.00  0.00    +0.170 A 
ATOM      8  N   UNL     1      -9.761  13.922  66.351  0.00  0.00    -0.198 NA
ATOM      9  C   UNL     1      -9.313  15.210  66.350  0.00  0.00    +0.227 A 
ATOM     10 CL   UNL     1      -8.709  15.648  67.954  0.00  0.00    -0.041 Cl
ATOM     11  N   UNL     1      -9.818  16.145  65.496  0.00  0.00    -0.197 NA
ENDROOT
BRANCH   6  12
ATOM     12  C   UNL     1     -10.440  10.964  65.078  0.00  0.00    +0.243 C 
ATOM     13  C   UNL     1      -9.996  10.530  63.460  0.00  0.00    +0.243 C 
ATOM     14  F   UNL     1      -9.547  11.845  62.969  0.00  0.00    -0.230 F 
ATOM     15  C   UNL     1      -8.390  10.116  63.864  0.00  0.00    +0.218 C 
ATOM     16  O   UNL     1      -8.534   8.751  63.265  0.00  0.00    -0.217 OA
ATOM     17  C   UNL     1      -9.006   9.645  65.381  0.00  0.00    +0.183 C 
ATOM     18  O   UNL     1      -9.013  11.160  65.561  0.00  0.00    -0.330 OA
BRANCH  17  19
ATOM     19  C   UNL     1      -7.523   9.428  66.045  0.00  0.00    +0.214 C 
ATOM     20  O   UNL     1      -7.780   9.820  67.368  0.00  0.00    -0.218 OA
ENDBRANCH  17  19
ENDBRANCH   6  12
TORSDOF 2
ENDMDL
MODEL 9
REMARK VINA RESULT:      -5.8      1.994      2.829
REMARK  Name = 
REMARK  2 active torsions:
REMARK  status: ('A' for Active; 'I' for Inactive)
REMARK    1  A    between atoms: N_11  and  C_12
REMARK    2  A    between atoms: C_14  and  C_15
REMARK                            x       y       z     vdW  Elec       q    Type
REMARK                         _______ _______ _______ _____ _____    ______ ____
ROOT
ATOM      1  N   UNL     1      -6.623  18.385  65.458  0.00  0.00    -0.105 NA
ATOM      2  C   UNL     1      -7.049  17.285  66.012  0.00  0.00    +0.193 A 
ATOM      3  C   UNL     1      -8.429  17.072  66.062  0.00  0.00    +0.152 A 
ATOM      4  N   UNL     1      -9.504  17.906  66.135  0.00  0.00    -0.219 NA
ATOM      5  C   UNL     1     -10.560  17.098  66.429  0.00  0.00    +0.182 A 
ATOM      6  N   UNL     1     -10.068  15.817  66.466  0.00  0.00    -0.269 N 
ATOM      7  C   UNL     1      -8.852  15.940  66.770  0.00  0.00    +0.170 A 
ATOM      8  N   UNL     1      -8.102  15.392  67.732  0.00  0.00    -0.198 NA
ATOM      9  C   UNL     1      -6.756  15.532  67.567  0.00  0.00    +0.227 A 
ATOM     10 CL   UNL     1      -5.910  15.110  69.063  0.00  0.00    -0.041 Cl
ATOM     11  N   UNL     1      -6.230  16.418  66.674  0.00  0.00    -0.197 NA
ENDROOT
BRANCH   6  12
ATOM     12  C   UNL     1     -11.207  14.802  66.816  0.00  0.00    +0.243 C 
ATOM     13  C   UNL     1     -11.828  14.519  65.223  0.00  0.00    +0.243 C 
ATOM     14  F   UNL     1     -10.598  14.733  64.441  0.00  0.00    -0.230 F 
ATOM     15  C   UNL     1     -11.532  12.838  65.256  0.00  0.00    +0.218 C 
ATOM     16  O   UNL     1     -12.959  12.525  64.928  0.00  0.00    -0.217 OA
ATOM     17  C   UNL     1     -11.814  12.928  66.933  0.00  0.00    +0.183 C 
ATOM     18  O   UNL     1     -10.406  13.512  66.878  0.00  0.00    -0.330 OA
BRANCH  17  19
ATOM     19  C   UNL     1     -11.321  11.391  67.217  0.00  0.00    +0.214 C 
ATOM     20  O   UNL     1     -12.174  11.044  68.276  0.00  0.00    -0.218 OA
ENDBRANCH  17  19
ENDBRANCH   6  12
TORSDOF 2
ENDMDL
