MODEL 1
REMARK VINA RESULT:      -7.3      0.000      0.000
REMARK  Name = 
REMARK  7 active torsions:
REMARK  status: ('A' for Active; 'I' for Inactive)
REMARK    1  A    between atoms: C_5  and  C_6
REMARK    2  A    between atoms: C_6  and  C_7
REMARK    3  A    between atoms: C_7  and  C_8
REMARK    4  A    between atoms: C_8  and  C_9
REMARK    5  A    between atoms: C_8  and  S_15
REMARK    6  A    between atoms: C_9  and  N_10
REMARK    7  A    between atoms: S_15  and  C_16
REMARK                            x       y       z     vdW  Elec       q    Type
REMARK                         _______ _______ _______ _____ _____    ______ ____
ROOT
ATOM      1  C   UNL     1     -11.005  14.818  67.347  0.00  0.00    +0.075 C 
ENDROOT
BRANCH   1   2
ATOM      2  C   UNL     1     -10.653  14.385  68.840  0.00  0.00    +0.018 C 
BRANCH   2   3
ATOM      3  C   UNL     1     -11.961  13.846  69.357  0.00  0.00    +0.027 C 
BRANCH   3   8
ATOM      4 CL   UNL     1     -12.434  15.763  74.878  0.00  0.00    -0.082 Cl
ATOM      5  C   UNL     1     -12.577  15.330  73.294  0.00  0.00    +0.058 A 
ATOM      6  C   UNL     1     -12.057  16.138  72.291  0.00  0.00    +0.011 A 
ATOM      7  C   UNL     1     -11.828  15.615  71.033  0.00  0.00    -0.003 A 
ATOM      8  C   UNL     1     -12.332  14.387  70.678  0.00  0.00    -0.022 A 
ATOM      9  C   UNL     1     -13.067  13.713  71.616  0.00  0.00    -0.003 A 
ATOM     10  C   UNL     1     -13.333  14.247  72.862  0.00  0.00    +0.011 A 
ENDBRANCH   3   8
ENDBRANCH   2   3
ENDBRANCH   1   2
BRANCH   1  11
ATOM     11  C   UNL     1     -10.713  13.371  66.743  0.00  0.00    +0.119 C 
BRANCH  11  12
ATOM     12  N   UNL     1     -11.144  13.380  65.360  0.00  0.00    -0.307 N 
ATOM     13  C   UNL     1     -12.414  13.693  65.014  0.00  0.00    +0.179 A 
ATOM     14  N   UNL     1     -12.776  12.955  63.937  0.00  0.00    -0.222 NA
ATOM     15  C   UNL     1     -11.686  12.347  63.462  0.00  0.00    +0.119 A 
ATOM     16  C   UNL     1     -10.650  12.713  64.306  0.00  0.00    +0.098 A 
ENDBRANCH  11  12
ENDBRANCH   1  11
BRANCH   1  17
ATOM     17  S   UNL     1      -9.286  15.512  66.893  0.00  0.00    -0.111 S 
BRANCH  17  18
ATOM     18  C   UNL     1      -9.260  17.257  67.092  0.00  0.00    +0.046 A 
ATOM     19  C   UNL     1     -10.088  18.035  66.292  0.00  0.00    +0.064 A 
ATOM     20 CL   UNL     1     -10.980  17.244  64.997  0.00  0.00    -0.082 Cl
ATOM     21  C   UNL     1     -10.618  19.240  66.740  0.00  0.00    +0.012 A 
ATOM     22  C   UNL     1     -10.219  19.748  67.952  0.00  0.00    +0.002 A 
ATOM     23  C   UNL     1      -9.169  19.135  68.620  0.00  0.00    +0.012 A 
ATOM     24  C   UNL     1      -8.684  17.914  68.173  0.00  0.00    +0.064 A 
ATOM     25 CL   UNL     1      -7.419  17.037  69.010  0.00  0.00    -0.082 Cl
ENDBRANCH  17  18
ENDBRANCH   1  17
TORSDOF 7
ENDMDL
MODEL 2
REMARK VINA RESULT:      -7.3      0.960      2.002
REMARK  Name = 
REMARK  7 active torsions:
REMARK  status: ('A' for Active; 'I' for Inactive)
REMARK    1  A    between atoms: C_5  and  C_6
REMARK    2  A    between atoms: C_6  and  C_7
REMARK    3  A    between atoms: C_7  and  C_8
REMARK    4  A    between atoms: C_8  and  C_9
REMARK    5  A    between atoms: C_8  and  S_15
REMARK    6  A    between atoms: C_9  and  N_10
REMARK    7  A    between atoms: S_15  and  C_16
REMARK                            x       y       z     vdW  Elec       q    Type
REMARK                         _______ _______ _______ _____ _____    ______ ____
ROOT
ATOM      1  C   UNL     1     -10.817  15.403  67.026  0.00  0.00    +0.075 C 
ENDROOT
BRANCH   1   2
ATOM      2  C   UNL     1     -10.538  15.112  68.568  0.00  0.00    +0.018 C 
BRANCH   2   3
ATOM      3  C   UNL     1     -11.784  14.390  69.010  0.00  0.00    +0.027 C 
BRANCH   3   8
ATOM      4 CL   UNL     1     -12.409  15.510  74.732  0.00  0.00    -0.082 Cl
ATOM      5  C   UNL     1     -12.514  15.292  73.101  0.00  0.00    +0.058 A 
ATOM      6  C   UNL     1     -12.022  16.253  72.227  0.00  0.00    +0.011 A 
ATOM      7  C   UNL     1     -11.754  15.917  70.914  0.00  0.00    -0.003 A 
ATOM      8  C   UNL     1     -12.195  14.727  70.386  0.00  0.00    -0.022 A 
ATOM      9  C   UNL     1     -12.908  13.899  71.211  0.00  0.00    -0.003 A 
ATOM     10  C   UNL     1     -13.212  14.245  72.514  0.00  0.00    +0.011 A 
ENDBRANCH   3   8
ENDBRANCH   2   3
ENDBRANCH   1   2
BRANCH   1  11
ATOM     11  C   UNL     1     -10.488  13.909  66.574  0.00  0.00    +0.119 C 
BRANCH  11  12
ATOM     12  N   UNL     1     -11.280  13.626  65.394  0.00  0.00    -0.307 N 
ATOM     13  C   UNL     1     -12.629  13.536  65.450  0.00  0.00    +0.179 A 
ATOM     14  N   UNL     1     -13.048  12.597  64.567  0.00  0.00    -0.222 NA
ATOM     15  C   UNL     1     -12.011  12.253  63.799  0.00  0.00    +0.119 A 
ATOM     16  C   UNL     1     -10.935  12.991  64.264  0.00  0.00    +0.098 A 
ENDBRANCH  11  12
ENDBRANCH   1  11
BRANCH   1  17
ATOM     17  S   UNL     1      -9.081  16.069  66.596  0.00  0.00    -0.111 S 
BRANCH  17  18
ATOM     18  C   UNL     1      -8.777  17.575  67.449  0.00  0.00    +0.046 A 
ATOM     19  C   UNL     1      -7.841  17.585  68.476  0.00  0.00    +0.064 A 
ATOM     20 CL   UNL     1      -7.147  16.050  68.989  0.00  0.00    -0.082 Cl
ATOM     21  C   UNL     1      -7.084  18.715  68.765  0.00  0.00    +0.012 A 
ATOM     22  C   UNL     1      -7.349  19.894  68.114  0.00  0.00    +0.002 A 
ATOM     23  C   UNL     1      -8.476  19.974  67.309  0.00  0.00    +0.012 A 
ATOM     24  C   UNL     1      -9.191  18.824  67.005  0.00  0.00    +0.064 A 
ATOM     25 CL   UNL     1     -10.574  18.829  65.929  0.00  0.00    -0.082 Cl
ENDBRANCH  17  18
ENDBRANCH   1  17
TORSDOF 7
ENDMDL
MODEL 3
REMARK VINA RESULT:      -7.2      2.392      4.941
REMARK  Name = 
REMARK  7 active torsions:
REMARK  status: ('A' for Active; 'I' for Inactive)
REMARK    1  A    between atoms: C_5  and  C_6
REMARK    2  A    between atoms: C_6  and  C_7
REMARK    3  A    between atoms: C_7  and  C_8
REMARK    4  A    between atoms: C_8  and  C_9
REMARK    5  A    between atoms: C_8  and  S_15
REMARK    6  A    between atoms: C_9  and  N_10
REMARK    7  A    between atoms: S_15  and  C_16
REMARK                            x       y       z     vdW  Elec       q    Type
REMARK                         _______ _______ _______ _____ _____    ______ ____
ROOT
ATOM      1  C   UNL     1     -10.214  14.770  67.532  0.00  0.00    +0.075 C 
ENDROOT
BRANCH   1   2
ATOM      2  C   UNL     1     -10.247  14.472  69.097  0.00  0.00    +0.018 C 
BRANCH   2   3
ATOM      3  C   UNL     1     -11.703  14.193  69.361  0.00  0.00    +0.027 C 
BRANCH   3   8
ATOM      4 CL   UNL     1     -12.471  15.680  74.981  0.00  0.00    -0.082 Cl
ATOM      5  C   UNL     1     -12.531  15.368  73.364  0.00  0.00    +0.058 A 
ATOM      6  C   UNL     1     -11.973  16.255  72.452  0.00  0.00    +0.011 A 
ATOM      7  C   UNL     1     -11.676  15.831  71.171  0.00  0.00    -0.003 A 
ATOM      8  C   UNL     1     -12.146  14.628  70.700  0.00  0.00    -0.022 A 
ATOM      9  C   UNL     1     -12.917  13.878  71.546  0.00  0.00    -0.003 A 
ATOM     10  C   UNL     1     -13.250  14.313  72.815  0.00  0.00    +0.011 A 
ENDBRANCH   3   8
ENDBRANCH   2   3
ENDBRANCH   1   2
BRANCH   1  11
ATOM     11  C   UNL     1     -10.813  16.239  67.689  0.00  0.00    +0.119 C 
BRANCH  11  12
ATOM     12  N   UNL     1     -10.117  17.097  66.751  0.00  0.00    -0.307 N 
ATOM     13  C   UNL     1      -8.873  16.802  66.308  0.00  0.00    +0.179 A 
ATOM     14  N   UNL     1      -8.181  17.953  66.126  0.00  0.00    -0.222 NA
ATOM     15  C   UNL     1      -9.035  18.974  66.233  0.00  0.00    +0.119 A 
ATOM     16  C   UNL     1     -10.268  18.409  66.518  0.00  0.00    +0.098 A 
ENDBRANCH  11  12
ENDBRANCH   1  11
BRANCH   1  17
ATOM     17  S   UNL     1     -11.895  13.974  67.106  0.00  0.00    -0.111 S 
BRANCH  17  18
ATOM     18  C   UNL     1     -11.685  12.709  65.905  0.00  0.00    +0.046 A 
ATOM     19  C   UNL     1     -11.801  13.037  64.560  0.00  0.00    +0.064 A 
ATOM     20 CL   UNL     1     -12.333  14.662  64.140  0.00  0.00    -0.082 Cl
ATOM     21  C   UNL     1     -11.080  12.366  63.579  0.00  0.00    +0.012 A 
ATOM     22  C   UNL     1     -10.330  11.267  63.919  0.00  0.00    +0.002 A 
ATOM     23  C   UNL     1     -10.448  10.750  65.200  0.00  0.00    +0.012 A 
ATOM     24  C   UNL     1     -11.141  11.458  66.171  0.00  0.00    +0.064 A 
ATOM     25 CL   UNL     1     -11.262  10.914  67.832  0.00  0.00    -0.082 Cl
ENDBRANCH  17  18
ENDBRANCH   1  17
TORSDOF 7
ENDMDL
MODEL 4
REMARK VINA RESULT:      -6.9      3.387      5.715
REMARK  Name = 
REMARK  7 active torsions:
REMARK  status: ('A' for Active; 'I' for Inactive)
REMARK    1  A    between atoms: C_5  and  C_6
REMARK    2  A    between atoms: C_6  and  C_7
REMARK    3  A    between atoms: C_7  and  C_8
REMARK    4  A    between atoms: C_8  and  C_9
REMARK    5  A    between atoms: C_8  and  S_15
REMARK    6  A    between atoms: C_9  and  N_10
REMARK    7  A    between atoms: S_15  and  C_16
REMARK                            x       y       z     vdW  Elec       q    Type
REMARK                         _______ _______ _______ _____ _____    ______ ____
ROOT
ATOM      1  C   UNL     1     -10.460  12.938  67.462  0.00  0.00    +0.075 C 
ENDROOT
BRANCH   1   2
ATOM      2  C   UNL     1     -10.547  13.585  68.916  0.00  0.00    +0.018 C 
BRANCH   2   3
ATOM      3  C   UNL     1     -12.030  13.734  69.135  0.00  0.00    +0.027 C 
BRANCH   3   8
ATOM      4 CL   UNL     1     -12.384  15.652  74.665  0.00  0.00    -0.082 Cl
ATOM      5  C   UNL     1     -12.557  15.228  73.082  0.00  0.00    +0.058 A 
ATOM      6  C   UNL     1     -12.024  16.022  72.075  0.00  0.00    +0.011 A 
ATOM      7  C   UNL     1     -11.825  15.495  70.814  0.00  0.00    -0.003 A 
ATOM      8  C   UNL     1     -12.370  14.283  70.462  0.00  0.00    -0.022 A 
ATOM      9  C   UNL     1     -13.115  13.630  71.406  0.00  0.00    -0.003 A 
ATOM     10  C   UNL     1     -13.351  14.169  72.657  0.00  0.00    +0.011 A 
ENDBRANCH   3   8
ENDBRANCH   2   3
ENDBRANCH   1   2
BRANCH   1  11
ATOM     11  C   UNL     1     -11.570  13.905  66.848  0.00  0.00    +0.119 C 
BRANCH  11  12
ATOM     12  N   UNL     1     -11.534  13.750  65.407  0.00  0.00    -0.307 N 
ATOM     13  C   UNL     1     -12.670  13.661  64.675  0.00  0.00    +0.179 A 
ATOM     14  N   UNL     1     -12.461  12.821  63.633  0.00  0.00    -0.222 NA
ATOM     15  C   UNL     1     -11.155  12.552  63.567  0.00  0.00    +0.119 A 
ATOM     16  C   UNL     1     -10.575  13.232  64.626  0.00  0.00    +0.098 A 
ENDBRANCH  11  12
ENDBRANCH   1  11
BRANCH   1  17
ATOM     17  S   UNL     1     -11.677  11.501  67.771  0.00  0.00    -0.111 S 
BRANCH  17  18
ATOM     18  C   UNL     1     -10.796  10.018  68.107  0.00  0.00    +0.046 A 
ATOM     19  C   UNL     1     -10.789   9.523  69.405  0.00  0.00    +0.064 A 
ATOM     20 CL   UNL     1     -11.507  10.506  70.677  0.00  0.00    -0.082 Cl
ATOM     21  C   UNL     1     -10.711   8.160  69.668  0.00  0.00    +0.012 A 
ATOM     22  C   UNL     1     -10.506   7.279  68.634  0.00  0.00    +0.002 A 
ATOM     23  C   UNL     1     -10.209   7.784  67.377  0.00  0.00    +0.012 A 
ATOM     24  C   UNL     1     -10.332   9.144  67.131  0.00  0.00    +0.064 A 
ATOM     25 CL   UNL     1     -10.058   9.847  65.550  0.00  0.00    -0.082 Cl
ENDBRANCH  17  18
ENDBRANCH   1  17
TORSDOF 7
ENDMDL
MODEL 5
REMARK VINA RESULT:      -6.8      3.015      6.732
REMARK  Name = 
REMARK  7 active torsions:
REMARK  status: ('A' for Active; 'I' for Inactive)
REMARK    1  A    between atoms: C_5  and  C_6
REMARK    2  A    between atoms: C_6  and  C_7
REMARK    3  A    between atoms: C_7  and  C_8
REMARK    4  A    between atoms: C_8  and  C_9
REMARK    5  A    between atoms: C_8  and  S_15
REMARK    6  A    between atoms: C_9  and  N_10
REMARK    7  A    between atoms: S_15  and  C_16
REMARK                            x       y       z     vdW  Elec       q    Type
REMARK                         _______ _______ _______ _____ _____    ______ ____
ROOT
ATOM      1  C   UNL     1     -11.705  15.250  69.129  0.00  0.00    +0.075 C 
ENDROOT
BRANCH   1   2
ATOM      2  C   UNL     1     -11.277  16.641  68.481  0.00  0.00    +0.018 C 
BRANCH   2   3
ATOM      3  C   UNL     1      -9.972  16.951  69.168  0.00  0.00    +0.027 C 
BRANCH   3   8
ATOM      4 CL   UNL     1      -6.545  21.303  67.245  0.00  0.00    -0.082 Cl
ATOM      5  C   UNL     1      -7.502  19.986  67.503  0.00  0.00    +0.058 A 
ATOM      6  C   UNL     1      -6.962  18.806  67.996  0.00  0.00    +0.011 A 
ATOM      7  C   UNL     1      -7.786  17.857  68.570  0.00  0.00    -0.003 A 
ATOM      8  C   UNL     1      -9.152  17.939  68.442  0.00  0.00    -0.022 A 
ATOM      9  C   UNL     1      -9.655  18.991  67.725  0.00  0.00    -0.003 A 
ATOM     10  C   UNL     1      -8.835  19.922  67.116  0.00  0.00    +0.011 A 
ENDBRANCH   3   8
ENDBRANCH   2   3
ENDBRANCH   1   2
BRANCH   1  11
ATOM     11  C   UNL     1     -11.073  15.594  70.552  0.00  0.00    +0.119 C 
BRANCH  11  12
ATOM     12  N   UNL     1     -12.086  15.330  71.555  0.00  0.00    -0.307 N 
ATOM     13  C   UNL     1     -13.404  15.321  71.247  0.00  0.00    +0.179 A 
ATOM     14  N   UNL     1     -14.109  15.805  72.298  0.00  0.00    -0.222 NA
ATOM     15  C   UNL     1     -13.283  15.911  73.341  0.00  0.00    +0.119 A 
ATOM     16  C   UNL     1     -12.040  15.505  72.883  0.00  0.00    +0.098 A 
ENDBRANCH  11  12
ENDBRANCH   1  11
BRANCH   1  17
ATOM     17  S   UNL     1     -10.195  14.243  68.541  0.00  0.00    -0.111 S 
BRANCH  17  18
ATOM     18  C   UNL     1     -10.450  13.658  66.904  0.00  0.00    +0.046 A 
ATOM     19  C   UNL     1     -11.253  12.541  66.710  0.00  0.00    +0.064 A 
ATOM     20 CL   UNL     1     -11.819  11.664  68.127  0.00  0.00    -0.082 Cl
ATOM     21  C   UNL     1     -12.012  12.376  65.557  0.00  0.00    +0.012 A 
ATOM     22  C   UNL     1     -11.874  13.267  64.520  0.00  0.00    +0.002 A 
ATOM     23  C   UNL     1     -10.858  14.209  64.581  0.00  0.00    +0.012 A 
ATOM     24  C   UNL     1     -10.142  14.380  65.757  0.00  0.00    +0.064 A 
ATOM     25 CL   UNL     1      -8.902  15.604  65.939  0.00  0.00    -0.082 Cl
ENDBRANCH  17  18
ENDBRANCH   1  17
TORSDOF 7
ENDMDL
MODEL 6
REMARK VINA RESULT:      -6.7      2.959      6.061
REMARK  Name = 
REMARK  7 active torsions:
REMARK  status: ('A' for Active; 'I' for Inactive)
REMARK    1  A    between atoms: C_5  and  C_6
REMARK    2  A    between atoms: C_6  and  C_7
REMARK    3  A    between atoms: C_7  and  C_8
REMARK    4  A    between atoms: C_8  and  C_9
REMARK    5  A    between atoms: C_8  and  S_15
REMARK    6  A    between atoms: C_9  and  N_10
REMARK    7  A    between atoms: S_15  and  C_16
REMARK                            x       y       z     vdW  Elec       q    Type
REMARK                         _______ _______ _______ _____ _____    ______ ____
ROOT
ATOM      1  C   UNL     1     -10.714  15.738  69.576  0.00  0.00    +0.075 C 
ENDROOT
BRANCH   1   2
ATOM      2  C   UNL     1     -10.716  14.281  68.929  0.00  0.00    +0.018 C 
BRANCH   2   3
ATOM      3  C   UNL     1     -11.899  14.324  67.997  0.00  0.00    +0.027 C 
BRANCH   3   8
ATOM      4 CL   UNL     1     -10.551  11.000  63.358  0.00  0.00    -0.082 Cl
ATOM      5  C   UNL     1     -11.164  11.753  64.690  0.00  0.00    +0.058 A 
ATOM      6  C   UNL     1     -10.676  11.457  65.956  0.00  0.00    +0.011 A 
ATOM      7  C   UNL     1     -10.894  12.334  67.001  0.00  0.00    -0.003 A 
ATOM      8  C   UNL     1     -11.794  13.366  66.879  0.00  0.00    -0.022 A 
ATOM      9  C   UNL     1     -12.459  13.484  65.689  0.00  0.00    -0.003 A 
ATOM     10  C   UNL     1     -12.274  12.589  64.653  0.00  0.00    +0.011 A 
ENDBRANCH   3   8
ENDBRANCH   2   3
ENDBRANCH   1   2
BRANCH   1  11
ATOM     11  C   UNL     1     -12.299  15.782  69.748  0.00  0.00    +0.119 C 
BRANCH  11  12
ATOM     12  N   UNL     1     -12.594  15.517  71.142  0.00  0.00    -0.307 N 
ATOM     13  C   UNL     1     -13.866  15.383  71.584  0.00  0.00    +0.179 A 
ATOM     14  N   UNL     1     -13.956  15.889  72.838  0.00  0.00    -0.222 NA
ATOM     15  C   UNL     1     -12.720  16.137  73.278  0.00  0.00    +0.119 A 
ATOM     16  C   UNL     1     -11.872  15.795  72.237  0.00  0.00    +0.098 A 
ENDBRANCH  11  12
ENDBRANCH   1  11
BRANCH   1  17
ATOM     17  S   UNL     1     -10.719  16.721  67.941  0.00  0.00    -0.111 S 
BRANCH  17  18
ATOM     18  C   UNL     1      -9.143  17.444  67.658  0.00  0.00    +0.046 A 
ATOM     19  C   UNL     1      -8.217  16.751  66.887  0.00  0.00    +0.064 A 
ATOM     20 CL   UNL     1      -8.608  15.108  66.390  0.00  0.00    -0.082 Cl
ATOM     21  C   UNL     1      -7.279  17.411  66.102  0.00  0.00    +0.012 A 
ATOM     22  C   UNL     1      -7.168  18.778  66.180  0.00  0.00    +0.002 A 
ATOM     23  C   UNL     1      -7.876  19.449  67.167  0.00  0.00    +0.012 A 
ATOM     24  C   UNL     1      -8.835  18.775  67.910  0.00  0.00    +0.064 A 
ATOM     25 CL   UNL     1      -9.828  19.571  69.114  0.00  0.00    -0.082 Cl
ENDBRANCH  17  18
ENDBRANCH   1  17
TORSDOF 7
ENDMDL
MODEL 7
REMARK VINA RESULT:      -6.6      3.673      6.064
REMARK  Name = 
REMARK  7 active torsions:
REMARK  status: ('A' for Active; 'I' for Inactive)
REMARK    1  A    between atoms: C_5  and  C_6
REMARK    2  A    between atoms: C_6  and  C_7
REMARK    3  A    between atoms: C_7  and  C_8
REMARK    4  A    between atoms: C_8  and  C_9
REMARK    5  A    between atoms: C_8  and  S_15
REMARK    6  A    between atoms: C_9  and  N_10
REMARK    7  A    between atoms: S_15  and  C_16
REMARK                            x       y       z     vdW  Elec       q    Type
REMARK                         _______ _______ _______ _____ _____    ______ ____
ROOT
ATOM      1  C   UNL     1     -10.526  13.841  68.650  0.00  0.00    +0.075 C 
ENDROOT
BRANCH   1   2
ATOM      2  C   UNL     1     -11.508  12.602  68.451  0.00  0.00    +0.018 C 
BRANCH   2   3
ATOM      3  C   UNL     1     -10.773  11.473  69.125  0.00  0.00    +0.027 C 
BRANCH   3   8
ATOM      4 CL   UNL     1     -14.484   8.379  72.448  0.00  0.00    -0.082 Cl
ATOM      5  C   UNL     1     -13.308   9.316  71.772  0.00  0.00    +0.058 A 
ATOM      6  C   UNL     1     -12.166   8.736  71.235  0.00  0.00    +0.011 A 
ATOM      7  C   UNL     1     -11.386   9.448  70.344  0.00  0.00    -0.003 A 
ATOM      8  C   UNL     1     -11.571  10.799  70.167  0.00  0.00    -0.022 A 
ATOM      9  C   UNL     1     -12.551  11.402  70.908  0.00  0.00    -0.003 A 
ATOM     10  C   UNL     1     -13.309  10.704  71.829  0.00  0.00    +0.011 A 
ENDBRANCH   3   8
ENDBRANCH   2   3
ENDBRANCH   1   2
BRANCH   1  11
ATOM     11  C   UNL     1     -11.713  14.892  68.826  0.00  0.00    +0.119 C 
BRANCH  11  12
ATOM     12  N   UNL     1     -12.036  14.953  70.237  0.00  0.00    -0.307 N 
ATOM     13  C   UNL     1     -13.308  15.122  70.668  0.00  0.00    +0.179 A 
ATOM     14  N   UNL     1     -13.299  15.868  71.799  0.00  0.00    -0.222 NA
ATOM     15  C   UNL     1     -12.034  15.985  72.212  0.00  0.00    +0.119 A 
ATOM     16  C   UNL     1     -11.266  15.312  71.275  0.00  0.00    +0.098 A 
ENDBRANCH  11  12
ENDBRANCH   1  11
BRANCH   1  17
ATOM     17  S   UNL     1     -10.263  14.231  66.800  0.00  0.00    -0.111 S 
BRANCH  17  18
ATOM     18  C   UNL     1     -10.630  12.818  65.821  0.00  0.00    +0.046 A 
ATOM     19  C   UNL     1     -11.824  12.788  65.111  0.00  0.00    +0.064 A 
ATOM     20 CL   UNL     1     -12.986  14.085  65.375  0.00  0.00    -0.082 Cl
ATOM     21  C   UNL     1     -11.938  12.115  63.900  0.00  0.00    +0.012 A 
ATOM     22  C   UNL     1     -10.891  11.349  63.448  0.00  0.00    +0.002 A 
ATOM     23  C   UNL     1      -9.813  11.128  64.292  0.00  0.00    +0.012 A 
ATOM     24  C   UNL     1      -9.704  11.842  65.477  0.00  0.00    +0.064 A 
ATOM     25 CL   UNL     1      -8.332  11.681  66.554  0.00  0.00    -0.082 Cl
ENDBRANCH  17  18
ENDBRANCH   1  17
TORSDOF 7
ENDMDL
MODEL 8
REMARK VINA RESULT:      -6.6      2.365      5.885
REMARK  Name = 
REMARK  7 active torsions:
REMARK  status: ('A' for Active; 'I' for Inactive)
REMARK    1  A    between atoms: C_5  and  C_6
REMARK    2  A    between atoms: C_6  and  C_7
REMARK    3  A    between atoms: C_7  and  C_8
REMARK    4  A    between atoms: C_8  and  C_9
REMARK    5  A    between atoms: C_8  and  S_15
REMARK    6  A    between atoms: C_9  and  N_10
REMARK    7  A    between atoms: S_15  and  C_16
REMARK                            x       y       z     vdW  Elec       q    Type
REMARK                         _______ _______ _______ _____ _____    ______ ____
ROOT
ATOM      1  C   UNL     1     -10.200  13.716  66.965  0.00  0.00    +0.075 C 
ENDROOT
BRANCH   1   2
ATOM      2  C   UNL     1      -9.587  14.897  67.841  0.00  0.00    +0.018 C 
BRANCH   2   3
ATOM      3  C   UNL     1     -10.340  16.108  67.357  0.00  0.00    +0.027 C 
BRANCH   3   8
ATOM      4 CL   UNL     1      -7.094  20.992  67.364  0.00  0.00    -0.082 Cl
ATOM      5  C   UNL     1      -8.110  19.720  67.622  0.00  0.00    +0.058 A 
ATOM      6  C   UNL     1      -9.368  19.690  67.035  0.00  0.00    +0.011 A 
ATOM      7  C   UNL     1     -10.050  18.494  66.925  0.00  0.00    -0.003 A 
ATOM      8  C   UNL     1      -9.626  17.376  67.603  0.00  0.00    -0.022 A 
ATOM      9  C   UNL     1      -8.511  17.500  68.387  0.00  0.00    -0.003 A 
ATOM     10  C   UNL     1      -7.847  18.704  68.532  0.00  0.00    +0.011 A 
ENDBRANCH   3   8
ENDBRANCH   2   3
ENDBRANCH   1   2
BRANCH   1  11
ATOM     11  C   UNL     1     -10.594  14.674  65.752  0.00  0.00    +0.119 C 
BRANCH  11  12
ATOM     12  N   UNL     1     -10.963  13.832  64.632  0.00  0.00    -0.307 N 
ATOM     13  C   UNL     1     -12.160  13.959  64.013  0.00  0.00    +0.179 A 
ATOM     14  N   UNL     1     -12.582  12.737  63.607  0.00  0.00    -0.222 NA
ATOM     15  C   UNL     1     -11.574  11.875  63.762  0.00  0.00    +0.119 A 
ATOM     16  C   UNL     1     -10.530  12.605  64.306  0.00  0.00    +0.098 A 
ENDBRANCH  11  12
ENDBRANCH   1  11
BRANCH   1  17
ATOM     17  S   UNL     1     -11.945  13.735  67.736  0.00  0.00    -0.111 S 
BRANCH  17  18
ATOM     18  C   UNL     1     -11.912  13.017  69.339  0.00  0.00    +0.046 A 
ATOM     19  C   UNL     1     -12.218  13.813  70.436  0.00  0.00    +0.064 A 
ATOM     20 CL   UNL     1     -12.444  15.540  70.177  0.00  0.00    -0.082 Cl
ATOM     21  C   UNL     1     -12.824  13.290  71.573  0.00  0.00    +0.012 A 
ATOM     22  C   UNL     1     -13.011  11.934  71.681  0.00  0.00    +0.002 A 
ATOM     23  C   UNL     1     -12.436  11.104  70.730  0.00  0.00    +0.012 A 
ATOM     24  C   UNL     1     -11.872  11.650  69.585  0.00  0.00    +0.064 A 
ATOM     25 CL   UNL     1     -11.203  10.665  68.300  0.00  0.00    -0.082 Cl
ENDBRANCH  17  18
ENDBRANCH   1  17
TORSDOF 7
ENDMDL
MODEL 9
REMARK VINA RESULT:      -6.6      4.023      5.825
REMARK  Name = 
REMARK  7 active torsions:
REMARK  status: ('A' for Active; 'I' for Inactive)
REMARK    1  A    between atoms: C_5  and  C_6
REMARK    2  A    between atoms: C_6  and  C_7
REMARK    3  A    between atoms: C_7  and  C_8
REMARK    4  A    between atoms: C_8  and  C_9
REMARK    5  A    between atoms: C_8  and  S_15
REMARK    6  A    between atoms: C_9  and  N_10
REMARK    7  A    between atoms: S_15  and  C_16
REMARK                            x       y       z     vdW  Elec       q    Type
REMARK                         _______ _______ _______ _____ _____    ______ ____
ROOT
ATOM      1  C   UNL     1     -11.500  10.306  68.931  0.00  0.00    +0.075 C 
ENDROOT
BRANCH   1   2
ATOM      2  C   UNL     1     -11.844  11.172  70.224  0.00  0.00    +0.018 C 
BRANCH   2   3
ATOM      3  C   UNL     1     -11.880  12.581  69.692  0.00  0.00    +0.027 C 
BRANCH   3   8
ATOM      4 CL   UNL     1     -12.476  16.306  74.182  0.00  0.00    -0.082 Cl
ATOM      5  C   UNL     1     -12.563  15.378  72.822  0.00  0.00    +0.058 A 
ATOM      6  C   UNL     1     -11.859  15.732  71.679  0.00  0.00    +0.011 A 
ATOM      7  C   UNL     1     -11.616  14.790  70.699  0.00  0.00    -0.003 A 
ATOM      8  C   UNL     1     -12.266  13.578  70.709  0.00  0.00    -0.022 A 
ATOM      9  C   UNL     1     -13.157  13.350  71.723  0.00  0.00    -0.003 A 
ATOM     10  C   UNL     1     -13.434  14.303  72.684  0.00  0.00    +0.011 A 
ENDBRANCH   3   8
ENDBRANCH   2   3
ENDBRANCH   1   2
BRANCH   1  11
ATOM     11  C   UNL     1     -10.154   9.716  69.552  0.00  0.00    +0.119 C 
BRANCH  11  12
ATOM     12  N   UNL     1     -10.412   8.339  69.921  0.00  0.00    -0.307 N 
ATOM     13  C   UNL     1     -10.496   7.358  68.992  0.00  0.00    +0.179 A 
ATOM     14  N   UNL     1     -11.417   6.447  69.389  0.00  0.00    -0.222 NA
ATOM     15  C   UNL     1     -11.752   6.717  70.653  0.00  0.00    +0.119 A 
ATOM     16  C   UNL     1     -11.029   7.845  71.005  0.00  0.00    +0.098 A 
ENDBRANCH  11  12
ENDBRANCH   1  11
BRANCH   1  17
ATOM     17  S   UNL     1     -10.614  11.685  67.954  0.00  0.00    -0.111 S 
BRANCH  17  18
ATOM     18  C   UNL     1     -11.043  11.599  66.252  0.00  0.00    +0.046 A 
ATOM     19  C   UNL     1     -11.736  12.659  65.682  0.00  0.00    +0.064 A 
ATOM     20 CL   UNL     1     -12.307  13.948  66.738  0.00  0.00    -0.082 Cl
ATOM     21  C   UNL     1     -11.576  13.003  64.344  0.00  0.00    +0.012 A 
ATOM     22  C   UNL     1     -10.818  12.204  63.524  0.00  0.00    +0.002 A 
ATOM     23  C   UNL     1     -10.371  10.984  64.008  0.00  0.00    +0.012 A 
ATOM     24  C   UNL     1     -10.509  10.682  65.356  0.00  0.00    +0.064 A 
ATOM     25 CL   UNL     1      -9.896   9.199  66.059  0.00  0.00    -0.082 Cl
ENDBRANCH  17  18
ENDBRANCH   1  17
TORSDOF 7
ENDMDL
