MODEL 1
REMARK VINA RESULT:      -8.2      0.000      0.000
REMARK  Name = 
REMARK  4 active torsions:
REMARK  status: ('A' for Active; 'I' for Inactive)
REMARK    1  A    between atoms: C_2  and  C_3
REMARK    2  A    between atoms: C_2  and  C_21
REMARK    3  A    between atoms: C_5  and  C_6
REMARK    4  A    between atoms: C_16  and  C_17
REMARK                            x       y       z     vdW  Elec       q    Type
REMARK                         _______ _______ _______ _____ _____    ______ ____
ROOT
ATOM      1  C   UNL     1     -10.963  14.901  67.007  0.00  0.00    +0.012 A 
ATOM      2  C   UNL     1     -10.039  15.919  66.907  0.00  0.00    +0.016 A 
ATOM      3  C   UNL     1      -8.980  15.799  66.051  0.00  0.00    +0.001 A 
ATOM      4  C   UNL     1      -7.953  16.718  66.183  0.00  0.00    +0.000 A 
ATOM      5  C   UNL     1      -8.234  17.931  66.802  0.00  0.00    +0.005 A 
ATOM      6  C   UNL     1      -9.402  18.131  67.493  0.00  0.00    +0.089 A 
ATOM      7  C   UNL     1     -10.206  17.021  67.726  0.00  0.00    +0.085 A 
ATOM      8  N   UNL     1     -11.050  16.952  68.767  0.00  0.00    -0.241 NA
ATOM      9  C   UNL     1     -11.618  15.757  69.058  0.00  0.00    +0.152 A 
ATOM     10  C   UNL     1     -11.840  14.862  68.013  0.00  0.00    +0.021 A 
ENDROOT
BRANCH   6  11
ATOM     11  C   UNL     1      -9.868  19.438  67.998  0.00  0.00    +0.420 C 
ATOM     12  F   UNL     1      -9.829  19.473  69.372  0.00  0.00    -0.166 F 
ATOM     13  F   UNL     1     -11.138  19.716  67.502  0.00  0.00    -0.166 F 
ATOM     14  F   UNL     1      -9.030  20.394  67.432  0.00  0.00    -0.166 F 
ENDBRANCH   6  11
BRANCH   9  15
ATOM     15  C   UNL     1     -12.130  15.527  70.417  0.00  0.00    +0.435 C 
ATOM     16  F   UNL     1     -11.701  14.315  70.915  0.00  0.00    -0.164 F 
ATOM     17  F   UNL     1     -13.505  15.632  70.496  0.00  0.00    -0.164 F 
ATOM     18  F   UNL     1     -11.606  16.502  71.260  0.00  0.00    -0.164 F 
ENDBRANCH   9  15
BRANCH   1  20
ATOM     19  O   UNL     1     -12.894  14.333  65.818  0.00  0.00    -0.217 OA
ATOM     20  C   UNL     1     -11.373  14.257  65.559  0.00  0.00    +0.190 C 
BRANCH  20  21
ATOM     21  C   UNL     1     -11.302  12.619  66.192  0.00  0.00    +0.107 C 
ATOM     22  N   UNL     1      -9.823  12.432  65.667  0.00  0.00    -0.217 NA
ATOM     23  C   UNL     1      -9.764  10.984  65.466  0.00  0.00    +0.089 C 
ATOM     24  C   UNL     1     -10.133  10.790  63.996  0.00  0.00    +0.019 C 
ATOM     25  C   UNL     1     -11.080  11.961  63.720  0.00  0.00    +0.003 C 
ATOM     26  C   UNL     1     -12.018  12.023  64.839  0.00  0.00    +0.020 C 
ENDBRANCH  20  21
ENDBRANCH   1  20
TORSDOF 4
ENDMDL
MODEL 2
REMARK VINA RESULT:      -7.6      3.088      6.090
REMARK  Name = 
REMARK  4 active torsions:
REMARK  status: ('A' for Active; 'I' for Inactive)
REMARK    1  A    between atoms: C_2  and  C_3
REMARK    2  A    between atoms: C_2  and  C_21
REMARK    3  A    between atoms: C_5  and  C_6
REMARK    4  A    between atoms: C_16  and  C_17
REMARK                            x       y       z     vdW  Elec       q    Type
REMARK                         _______ _______ _______ _____ _____    ______ ____
ROOT
ATOM      1  C   UNL     1     -10.618  15.622  68.687  0.00  0.00    +0.012 A 
ATOM      2  C   UNL     1     -11.021  14.532  67.945  0.00  0.00    +0.016 A 
ATOM      3  C   UNL     1     -11.058  14.611  66.581  0.00  0.00    +0.001 A 
ATOM      4  C   UNL     1     -11.716  13.594  65.907  0.00  0.00    +0.000 A 
ATOM      5  C   UNL     1     -11.877  12.375  66.555  0.00  0.00    +0.005 A 
ATOM      6  C   UNL     1     -11.638  12.239  67.899  0.00  0.00    +0.089 A 
ATOM      7  C   UNL     1     -11.422  13.400  68.632  0.00  0.00    +0.085 A 
ATOM      8  N   UNL     1     -11.684  13.479  69.946  0.00  0.00    -0.241 NA
ATOM      9  C   UNL     1     -11.672  14.700  70.533  0.00  0.00    +0.152 A 
ATOM     10  C   UNL     1     -10.830  15.677  70.004  0.00  0.00    +0.021 A 
ENDROOT
BRANCH   6  11
ATOM     11  C   UNL     1     -11.586  10.951  68.618  0.00  0.00    +0.420 C 
ATOM     12  F   UNL     1     -12.707  10.779  69.395  0.00  0.00    -0.166 F 
ATOM     13  F   UNL     1     -10.413  10.866  69.362  0.00  0.00    -0.166 F 
ATOM     14  F   UNL     1     -11.477   9.965  67.641  0.00  0.00    -0.166 F 
ENDBRANCH   6  11
BRANCH   9  15
ATOM     15  C   UNL     1     -12.405  14.889  71.793  0.00  0.00    +0.435 C 
ATOM     16  F   UNL     1     -13.371  15.866  71.668  0.00  0.00    -0.164 F 
ATOM     17  F   UNL     1     -11.573  15.153  72.862  0.00  0.00    -0.164 F 
ATOM     18  F   UNL     1     -13.081  13.710  72.094  0.00  0.00    -0.164 F 
ENDBRANCH   9  15
BRANCH   1  20
ATOM     19  O   UNL     1      -8.441  16.205  69.304  0.00  0.00    -0.217 OA
ATOM     20  C   UNL     1      -9.321  16.391  68.049  0.00  0.00    +0.190 C 
BRANCH  20  21
ATOM     21  C   UNL     1      -9.884  17.955  68.622  0.00  0.00    +0.107 C 
ATOM     22  N   UNL     1     -10.774  18.157  67.332  0.00  0.00    -0.217 NA
ATOM     23  C   UNL     1     -10.819  19.617  67.231  0.00  0.00    +0.089 C 
ATOM     24  C   UNL     1      -9.669  19.966  66.289  0.00  0.00    +0.019 C 
ATOM     25  C   UNL     1      -8.653  18.853  66.555  0.00  0.00    +0.003 C 
ATOM     26  C   UNL     1      -8.557  18.702  68.006  0.00  0.00    +0.020 C 
ENDBRANCH  20  21
ENDBRANCH   1  20
TORSDOF 4
ENDMDL
MODEL 3
REMARK VINA RESULT:      -7.3      4.079      5.293
REMARK  Name = 
REMARK  4 active torsions:
REMARK  status: ('A' for Active; 'I' for Inactive)
REMARK    1  A    between atoms: C_2  and  C_3
REMARK    2  A    between atoms: C_2  and  C_21
REMARK    3  A    between atoms: C_5  and  C_6
REMARK    4  A    between atoms: C_16  and  C_17
REMARK                            x       y       z     vdW  Elec       q    Type
REMARK                         _______ _______ _______ _____ _____    ______ ____
ROOT
ATOM      1  C   UNL     1     -11.123  12.318  67.528  0.00  0.00    +0.012 A 
ATOM      2  C   UNL     1     -11.117  13.663  67.829  0.00  0.00    +0.016 A 
ATOM      3  C   UNL     1     -11.308  14.075  69.118  0.00  0.00    +0.001 A 
ATOM      4  C   UNL     1     -11.557  15.423  69.320  0.00  0.00    +0.000 A 
ATOM      5  C   UNL     1     -11.150  16.319  68.339  0.00  0.00    +0.005 A 
ATOM      6  C   UNL     1     -10.752  15.893  67.097  0.00  0.00    +0.089 A 
ATOM      7  C   UNL     1     -10.958  14.555  66.783  0.00  0.00    +0.085 A 
ATOM      8  N   UNL     1     -11.107  14.128  65.519  0.00  0.00    -0.241 NA
ATOM      9  C   UNL     1     -11.536  12.860  65.314  0.00  0.00    +0.152 A 
ATOM     10  C   UNL     1     -11.216  11.894  66.266  0.00  0.00    +0.021 A 
ENDROOT
BRANCH   6  11
ATOM     11  C   UNL     1     -10.115  16.750  66.077  0.00  0.00    +0.420 C 
ATOM     12  F   UNL     1     -10.961  16.953  65.012  0.00  0.00    -0.166 F 
ATOM     13  F   UNL     1      -8.898  16.200  65.684  0.00  0.00    -0.166 F 
ATOM     14  F   UNL     1      -9.794  17.943  66.718  0.00  0.00    -0.166 F 
ENDBRANCH   6  11
BRANCH   9  15
ATOM     15  C   UNL     1     -12.163  12.523  64.027  0.00  0.00    +0.435 C 
ATOM     16  F   UNL     1     -11.452  11.541  63.367  0.00  0.00    -0.164 F 
ATOM     17  F   UNL     1     -12.348  13.625  63.216  0.00  0.00    -0.164 F 
ATOM     18  F   UNL     1     -13.425  11.991  64.273  0.00  0.00    -0.164 F 
ENDBRANCH   9  15
BRANCH   1  20
ATOM     19  O   UNL     1      -9.704  10.461  67.568  0.00  0.00    -0.217 OA
ATOM     20  C   UNL     1     -10.315  11.409  68.624  0.00  0.00    +0.190 C 
BRANCH  20  21
ATOM     21  C   UNL     1     -11.692  10.340  68.851  0.00  0.00    +0.107 C 
ATOM     22  N   UNL     1     -12.028  10.997  70.249  0.00  0.00    -0.217 NA
ATOM     23  C   UNL     1     -12.689   9.890  70.942  0.00  0.00    +0.089 C 
ATOM     24  C   UNL     1     -11.565   9.207  71.720  0.00  0.00    +0.019 C 
ATOM     25  C   UNL     1     -10.335   9.457  70.845  0.00  0.00    +0.003 C 
ATOM     26  C   UNL     1     -10.727   9.163  69.467  0.00  0.00    +0.020 C 
ENDBRANCH  20  21
ENDBRANCH   1  20
TORSDOF 4
ENDMDL
MODEL 4
REMARK VINA RESULT:      -7.2      4.308      5.708
REMARK  Name = 
REMARK  4 active torsions:
REMARK  status: ('A' for Active; 'I' for Inactive)
REMARK    1  A    between atoms: C_2  and  C_3
REMARK    2  A    between atoms: C_2  and  C_21
REMARK    3  A    between atoms: C_5  and  C_6
REMARK    4  A    between atoms: C_16  and  C_17
REMARK                            x       y       z     vdW  Elec       q    Type
REMARK                         _______ _______ _______ _____ _____    ______ ____
ROOT
ATOM      1  C   UNL     1     -11.775  11.596  69.569  0.00  0.00    +0.012 A 
ATOM      2  C   UNL     1     -11.482  11.622  68.222  0.00  0.00    +0.016 A 
ATOM      3  C   UNL     1     -10.984  10.505  67.610  0.00  0.00    +0.001 A 
ATOM      4  C   UNL     1     -10.463  10.662  66.336  0.00  0.00    +0.000 A 
ATOM      5  C   UNL     1     -10.876  11.760  65.589  0.00  0.00    +0.005 A 
ATOM      6  C   UNL     1     -11.566  12.798  66.161  0.00  0.00    +0.089 A 
ATOM      7  C   UNL     1     -11.667  12.815  67.547  0.00  0.00    +0.085 A 
ATOM      8  N   UNL     1     -11.834  13.951  68.241  0.00  0.00    -0.241 NA
ATOM      9  C   UNL     1     -11.686  13.911  69.587  0.00  0.00    +0.152 A 
ATOM     10  C   UNL     1     -11.995  12.724  70.249  0.00  0.00    +0.021 A 
ENDROOT
BRANCH   6  11
ATOM     11  C   UNL     1     -12.215  13.892  65.410  0.00  0.00    +0.420 C 
ATOM     12  F   UNL     1     -11.515  15.067  65.555  0.00  0.00    -0.166 F 
ATOM     13  F   UNL     1     -13.543  14.019  65.804  0.00  0.00    -0.166 F 
ATOM     14  F   UNL     1     -12.259  13.477  64.081  0.00  0.00    -0.166 F 
ENDBRANCH   6  11
BRANCH   9  15
ATOM     15  C   UNL     1     -11.380  15.157  70.304  0.00  0.00    +0.435 C 
ATOM     16  F   UNL     1     -10.348  15.843  69.697  0.00  0.00    -0.164 F 
ATOM     17  F   UNL     1     -11.113  14.953  71.644  0.00  0.00    -0.164 F 
ATOM     18  F   UNL     1     -12.492  15.991  70.241  0.00  0.00    -0.164 F 
ENDBRANCH   9  15
BRANCH   1  20
ATOM     19  O   UNL     1     -13.306  10.887  71.186  0.00  0.00    -0.217 OA
ATOM     20  C   UNL     1     -12.518  10.215  70.041  0.00  0.00    +0.190 C 
BRANCH  20  21
ATOM     21  C   UNL     1     -11.202   9.802  71.130  0.00  0.00    +0.107 C 
ATOM     22  N   UNL     1     -10.664   8.700  70.134  0.00  0.00    -0.217 NA
ATOM     23  C   UNL     1     -10.007   7.768  71.053  0.00  0.00    +0.089 C 
ATOM     24  C   UNL     1     -11.079   6.726  71.364  0.00  0.00    +0.019 C 
ATOM     25  C   UNL     1     -12.381   7.524  71.256  0.00  0.00    +0.003 C 
ATOM     26  C   UNL     1     -12.171   8.779  71.975  0.00  0.00    +0.020 C 
ENDBRANCH  20  21
ENDBRANCH   1  20
TORSDOF 4
ENDMDL
MODEL 5
REMARK VINA RESULT:      -7.1      2.622      4.276
REMARK  Name = 
REMARK  4 active torsions:
REMARK  status: ('A' for Active; 'I' for Inactive)
REMARK    1  A    between atoms: C_2  and  C_3
REMARK    2  A    between atoms: C_2  and  C_21
REMARK    3  A    between atoms: C_5  and  C_6
REMARK    4  A    between atoms: C_16  and  C_17
REMARK                            x       y       z     vdW  Elec       q    Type
REMARK                         _______ _______ _______ _____ _____    ______ ____
ROOT
ATOM      1  C   UNL     1      -9.535  16.074  66.441  0.00  0.00    +0.012 A 
ATOM      2  C   UNL     1      -8.178  16.163  66.666  0.00  0.00    +0.016 A 
ATOM      3  C   UNL     1      -7.515  15.128  67.264  0.00  0.00    +0.001 A 
ATOM      4  C   UNL     1      -6.224  15.374  67.702  0.00  0.00    +0.000 A 
ATOM      5  C   UNL     1      -5.526  16.430  67.128  0.00  0.00    +0.005 A 
ATOM      6  C   UNL     1      -6.155  17.365  66.346  0.00  0.00    +0.089 A 
ATOM      7  C   UNL     1      -7.543  17.340  66.309  0.00  0.00    +0.085 A 
ATOM      8  N   UNL     1      -8.275  18.433  66.041  0.00  0.00    -0.241 NA
ATOM      9  C   UNL     1      -9.611  18.382  66.255  0.00  0.00    +0.152 A 
ATOM     10  C   UNL     1     -10.254  17.152  66.120  0.00  0.00    +0.021 A 
ENDROOT
BRANCH   6  11
ATOM     11  C   UNL     1      -5.462  18.389  65.538  0.00  0.00    +0.420 C 
ATOM     12  F   UNL     1      -5.432  19.595  66.198  0.00  0.00    -0.166 F 
ATOM     13  F   UNL     1      -6.058  18.491  64.284  0.00  0.00    -0.166 F 
ATOM     14  F   UNL     1      -4.182  17.896  65.301  0.00  0.00    -0.166 F 
ENDBRANCH   6  11
BRANCH   9  15
ATOM     15  C   UNL     1     -10.348  19.640  66.444  0.00  0.00    +0.435 C 
ATOM     16  F   UNL     1     -10.943  20.053  65.269  0.00  0.00    -0.164 F 
ATOM     17  F   UNL     1      -9.565  20.644  66.978  0.00  0.00    -0.164 F 
ATOM     18  F   UNL     1     -11.383  19.417  67.347  0.00  0.00    -0.164 F 
ENDBRANCH   9  15
BRANCH   1  20
ATOM     19  O   UNL     1     -10.846  15.172  64.730  0.00  0.00    -0.217 OA
ATOM     20  C   UNL     1     -10.001  14.604  65.891  0.00  0.00    +0.190 C 
BRANCH  20  21
ATOM     21  C   UNL     1     -11.401  14.577  66.955  0.00  0.00    +0.107 C 
ATOM     22  N   UNL     1     -10.589  13.817  68.077  0.00  0.00    -0.217 NA
ATOM     23  C   UNL     1     -11.655  13.093  68.772  0.00  0.00    +0.089 C 
ATOM     24  C   UNL     1     -11.682  11.723  68.098  0.00  0.00    +0.019 C 
ATOM     25  C   UNL     1     -11.231  12.031  66.668  0.00  0.00    +0.003 C 
ATOM     26  C   UNL     1     -11.971  13.215  66.234  0.00  0.00    +0.020 C 
ENDBRANCH  20  21
ENDBRANCH   1  20
TORSDOF 4
ENDMDL
MODEL 6
REMARK VINA RESULT:      -7.1      4.821      6.600
REMARK  Name = 
REMARK  4 active torsions:
REMARK  status: ('A' for Active; 'I' for Inactive)
REMARK    1  A    between atoms: C_2  and  C_3
REMARK    2  A    between atoms: C_2  and  C_21
REMARK    3  A    between atoms: C_5  and  C_6
REMARK    4  A    between atoms: C_16  and  C_17
REMARK                            x       y       z     vdW  Elec       q    Type
REMARK                         _______ _______ _______ _____ _____    ______ ____
ROOT
ATOM      1  C   UNL     1     -11.415  10.792  69.876  0.00  0.00    +0.012 A 
ATOM      2  C   UNL     1     -12.051  11.831  70.522  0.00  0.00    +0.016 A 
ATOM      3  C   UNL     1     -12.777  11.588  71.655  0.00  0.00    +0.001 A 
ATOM      4  C   UNL     1     -13.603  12.605  72.106  0.00  0.00    +0.000 A 
ATOM      5  C   UNL     1     -13.320  13.906  71.706  0.00  0.00    +0.005 A 
ATOM      6  C   UNL     1     -12.426  14.169  70.700  0.00  0.00    +0.089 A 
ATOM      7  C   UNL     1     -11.961  13.091  69.958  0.00  0.00    +0.085 A 
ATOM      8  N   UNL     1     -11.530  13.222  68.693  0.00  0.00    -0.241 NA
ATOM      9  C   UNL     1     -11.319  12.099  67.965  0.00  0.00    +0.152 A 
ATOM     10  C   UNL     1     -10.937  10.939  68.638  0.00  0.00    +0.021 A 
ENDROOT
BRANCH   6  11
ATOM     11  C   UNL     1     -11.918  15.513  70.357  0.00  0.00    +0.420 C 
ATOM     12  F   UNL     1     -12.422  15.932  69.148  0.00  0.00    -0.166 F 
ATOM     13  F   UNL     1     -10.526  15.516  70.374  0.00  0.00    -0.166 F 
ATOM     14  F   UNL     1     -12.305  16.352  71.398  0.00  0.00    -0.166 F 
ENDBRANCH   6  11
BRANCH   9  15
ATOM     15  C   UNL     1     -11.329  12.193  66.498  0.00  0.00    +0.435 C 
ATOM     16  F   UNL     1     -12.509  12.741  66.040  0.00  0.00    -0.164 F 
ATOM     17  F   UNL     1     -11.076  10.983  65.882  0.00  0.00    -0.164 F 
ATOM     18  F   UNL     1     -10.316  13.061  66.102  0.00  0.00    -0.164 F 
ENDBRANCH   9  15
BRANCH   1  20
ATOM     19  O   UNL     1      -9.403   9.616  70.046  0.00  0.00    -0.217 OA
ATOM     20  C   UNL     1     -10.682   9.748  70.902  0.00  0.00    +0.190 C 
BRANCH  20  21
ATOM     21  C   UNL     1     -11.409   8.357  70.111  0.00  0.00    +0.107 C 
ATOM     22  N   UNL     1     -12.468   8.194  71.271  0.00  0.00    -0.217 NA
ATOM     23  C   UNL     1     -12.752   6.760  71.211  0.00  0.00    +0.089 C 
ATOM     24  C   UNL     1     -11.793   6.141  72.226  0.00  0.00    +0.019 C 
ATOM     25  C   UNL     1     -10.590   7.088  72.188  0.00  0.00    +0.003 C 
ATOM     26  C   UNL     1     -10.298   7.348  70.779  0.00  0.00    +0.020 C 
ENDBRANCH  20  21
ENDBRANCH   1  20
TORSDOF 4
ENDMDL
MODEL 7
REMARK VINA RESULT:      -7.1      3.553      5.388
REMARK  Name = 
REMARK  4 active torsions:
REMARK  status: ('A' for Active; 'I' for Inactive)
REMARK    1  A    between atoms: C_2  and  C_3
REMARK    2  A    between atoms: C_2  and  C_21
REMARK    3  A    between atoms: C_5  and  C_6
REMARK    4  A    between atoms: C_16  and  C_17
REMARK                            x       y       z     vdW  Elec       q    Type
REMARK                         _______ _______ _______ _____ _____    ______ ____
ROOT
ATOM      1  C   UNL     1     -11.506  13.295  68.289  0.00  0.00    +0.012 A 
ATOM      2  C   UNL     1     -11.723  14.165  69.336  0.00  0.00    +0.016 A 
ATOM      3  C   UNL     1     -11.284  15.456  69.253  0.00  0.00    +0.001 A 
ATOM      4  C   UNL     1     -11.289  16.202  70.420  0.00  0.00    +0.000 A 
ATOM      5  C   UNL     1     -12.131  15.801  71.452  0.00  0.00    +0.005 A 
ATOM      6  C   UNL     1     -12.746  14.575  71.440  0.00  0.00    +0.089 A 
ATOM      7  C   UNL     1     -12.347  13.667  70.466  0.00  0.00    +0.085 A 
ATOM      8  N   UNL     1     -12.457  12.340  70.634  0.00  0.00    -0.241 NA
ATOM      9  C   UNL     1     -11.834  11.525  69.748  0.00  0.00    +0.152 A 
ATOM     10  C   UNL     1     -11.669  11.979  68.440  0.00  0.00    +0.021 A 
ENDROOT
BRANCH   6  11
ATOM     11  C   UNL     1     -13.805  14.156  72.380  0.00  0.00    +0.420 C 
ATOM     12  F   UNL     1     -13.538  12.909  72.893  0.00  0.00    -0.166 F 
ATOM     13  F   UNL     1     -15.048  14.212  71.755  0.00  0.00    -0.166 F 
ATOM     14  F   UNL     1     -13.846  15.128  73.376  0.00  0.00    -0.166 F 
ENDBRANCH   6  11
BRANCH   9  15
ATOM     15  C   UNL     1     -11.521  10.147  70.152  0.00  0.00    +0.435 C 
ATOM     16  F   UNL     1     -12.614   9.535  70.732  0.00  0.00    -0.164 F 
ATOM     17  F   UNL     1     -10.417  10.067  70.977  0.00  0.00    -0.164 F 
ATOM     18  F   UNL     1     -11.222   9.408  69.011  0.00  0.00    -0.164 F 
ENDBRANCH   9  15
BRANCH   1  20
ATOM     19  O   UNL     1     -12.310  12.675  66.184  0.00  0.00    -0.217 OA
ATOM     20  C   UNL     1     -11.771  13.974  66.823  0.00  0.00    +0.190 C 
BRANCH  20  21
ATOM     21  C   UNL     1     -10.137  13.611  66.287  0.00  0.00    +0.107 C 
ATOM     22  N   UNL     1      -9.517  14.552  67.395  0.00  0.00    -0.217 NA
ATOM     23  C   UNL     1      -8.257  14.954  66.768  0.00  0.00    +0.089 C 
ATOM     24  C   UNL     1      -8.586  16.272  66.070  0.00  0.00    +0.019 C 
ATOM     25  C   UNL     1     -10.063  16.111  65.704  0.00  0.00    +0.003 C 
ATOM     26  C   UNL     1     -10.216  14.776  65.130  0.00  0.00    +0.020 C 
ENDBRANCH  20  21
ENDBRANCH   1  20
TORSDOF 4
ENDMDL
MODEL 8
REMARK VINA RESULT:      -6.9      3.470      4.801
REMARK  Name = 
REMARK  4 active torsions:
REMARK  status: ('A' for Active; 'I' for Inactive)
REMARK    1  A    between atoms: C_2  and  C_3
REMARK    2  A    between atoms: C_2  and  C_21
REMARK    3  A    between atoms: C_5  and  C_6
REMARK    4  A    between atoms: C_16  and  C_17
REMARK                            x       y       z     vdW  Elec       q    Type
REMARK                         _______ _______ _______ _____ _____    ______ ____
ROOT
ATOM      1  C   UNL     1     -11.218  12.943  68.415  0.00  0.00    +0.012 A 
ATOM      2  C   UNL     1     -11.401  13.969  69.318  0.00  0.00    +0.016 A 
ATOM      3  C   UNL     1     -10.733  15.150  69.153  0.00  0.00    +0.001 A 
ATOM      4  C   UNL     1     -10.745  16.037  70.217  0.00  0.00    +0.000 A 
ATOM      5  C   UNL     1     -11.762  15.919  71.158  0.00  0.00    +0.005 A 
ATOM      6  C   UNL     1     -12.580  14.818  71.196  0.00  0.00    +0.089 A 
ATOM      7  C   UNL     1     -12.234  13.735  70.396  0.00  0.00    +0.085 A 
ATOM      8  N   UNL     1     -12.597  12.477  70.694  0.00  0.00    -0.241 NA
ATOM      9  C   UNL     1     -12.027  11.462  70.002  0.00  0.00    +0.152 A 
ATOM     10  C   UNL     1     -11.628  11.702  68.689  0.00  0.00    +0.021 A 
ENDROOT
BRANCH   6  11
ATOM     11  C   UNL     1     -13.801  14.705  72.019  0.00  0.00    +0.420 C 
ATOM     12  F   UNL     1     -13.705  13.650  72.895  0.00  0.00    -0.166 F 
ATOM     13  F   UNL     1     -14.921  14.607  71.199  0.00  0.00    -0.166 F 
ATOM     14  F   UNL     1     -13.934  15.921  72.685  0.00  0.00    -0.166 F 
ENDBRANCH   6  11
BRANCH   9  15
ATOM     15  C   UNL     1     -12.014  10.118  70.597  0.00  0.00    +0.435 C 
ATOM     16  F   UNL     1     -13.294   9.681  70.875  0.00  0.00    -0.164 F 
ATOM     17  F   UNL     1     -11.213  10.035  71.718  0.00  0.00    -0.164 F 
ATOM     18  F   UNL     1     -11.492   9.225  69.667  0.00  0.00    -0.164 F 
ENDBRANCH   9  15
BRANCH   1  20
ATOM     19  O   UNL     1     -12.704  13.697  66.776  0.00  0.00    -0.217 OA
ATOM     20  C   UNL     1     -11.181  13.452  66.860  0.00  0.00    +0.190 C 
BRANCH  20  21
ATOM     21  C   UNL     1     -11.365  11.814  66.250  0.00  0.00    +0.107 C 
ATOM     22  N   UNL     1      -9.855  11.768  65.789  0.00  0.00    -0.217 NA
ATOM     23  C   UNL     1      -9.915  10.814  64.680  0.00  0.00    +0.089 C 
ATOM     24  C   UNL     1     -10.093  11.687  63.439  0.00  0.00    +0.019 C 
ATOM     25  C   UNL     1     -10.868  12.894  63.973  0.00  0.00    +0.003 C 
ATOM     26  C   UNL     1     -11.942  12.371  64.816  0.00  0.00    +0.020 C 
ENDBRANCH  20  21
ENDBRANCH   1  20
TORSDOF 4
ENDMDL
MODEL 9
REMARK VINA RESULT:      -6.9      3.875      6.032
REMARK  Name = 
REMARK  4 active torsions:
REMARK  status: ('A' for Active; 'I' for Inactive)
REMARK    1  A    between atoms: C_2  and  C_3
REMARK    2  A    between atoms: C_2  and  C_21
REMARK    3  A    between atoms: C_5  and  C_6
REMARK    4  A    between atoms: C_16  and  C_17
REMARK                            x       y       z     vdW  Elec       q    Type
REMARK                         _______ _______ _______ _____ _____    ______ ____
ROOT
ATOM      1  C   UNL     1     -10.801  10.598  67.565  0.00  0.00    +0.012 A 
ATOM      2  C   UNL     1     -11.333  11.006  68.770  0.00  0.00    +0.016 A 
ATOM      3  C   UNL     1     -11.517  10.100  69.777  0.00  0.00    +0.001 A 
ATOM      4  C   UNL     1     -12.291  10.500  70.853  0.00  0.00    +0.000 A 
ATOM      5  C   UNL     1     -12.436  11.863  71.086  0.00  0.00    +0.005 A 
ATOM      6  C   UNL     1     -12.056  12.795  70.154  0.00  0.00    +0.089 A 
ATOM      7  C   UNL     1     -11.707  12.332  68.891  0.00  0.00    +0.085 A 
ATOM      8  N   UNL     1     -11.818  13.094  67.791  0.00  0.00    -0.241 NA
ATOM      9  C   UNL     1     -11.685  12.500  66.581  0.00  0.00    +0.152 A 
ATOM     10  C   UNL     1     -10.863  11.379  66.484  0.00  0.00    +0.021 A 
ENDROOT
BRANCH   6  11
ATOM     11  C   UNL     1     -11.983  14.249  70.400  0.00  0.00    +0.420 C 
ATOM     12  F   UNL     1     -13.068  14.892  69.852  0.00  0.00    -0.166 F 
ATOM     13  F   UNL     1     -10.777  14.755  69.922  0.00  0.00    -0.166 F 
ATOM     14  F   UNL     1     -11.931  14.408  71.782  0.00  0.00    -0.166 F 
ENDBRANCH   6  11
BRANCH   9  15
ATOM     15  C   UNL     1     -12.265  13.158  65.401  0.00  0.00    +0.435 C 
ATOM     16  F   UNL     1     -13.059  12.288  64.683  0.00  0.00    -0.164 F 
ATOM     17  F   UNL     1     -11.311  13.738  64.588  0.00  0.00    -0.164 F 
ATOM     18  F   UNL     1     -13.101  14.184  65.830  0.00  0.00    -0.164 F 
ENDBRANCH   9  15
BRANCH   1  20
ATOM     19  O   UNL     1      -8.664  10.260  66.681  0.00  0.00    -0.217 OA
ATOM     20  C   UNL     1      -9.549   9.557  67.734  0.00  0.00    +0.190 C 
BRANCH  20  21
ATOM     21  C   UNL     1     -10.205   8.468  66.520  0.00  0.00    +0.107 C 
ATOM     22  N   UNL     1     -10.822   7.529  67.631  0.00  0.00    -0.217 NA
ATOM     23  C   UNL     1     -10.838   6.235  66.947  0.00  0.00    +0.089 C 
ATOM     24  C   UNL     1      -9.523   5.575  67.355  0.00  0.00    +0.019 C 
ATOM     25  C   UNL     1      -8.585   6.768  67.558  0.00  0.00    +0.003 C 
ATOM     26  C   UNL     1      -8.778   7.660  66.417  0.00  0.00    +0.020 C 
ENDBRANCH  20  21
ENDBRANCH   1  20
TORSDOF 4
ENDMDL
