MODEL 1
REMARK VINA RESULT:      -5.8      0.000      0.000
REMARK  Name = 
REMARK  2 active torsions:
REMARK  status: ('A' for Active; 'I' for Inactive)
REMARK    1  A    between atoms: C_2  and  C_3
REMARK    2  A    between atoms: C_2  and  C_9
REMARK                            x       y       z     vdW  Elec       q    Type
REMARK                         _______ _______ _______ _____ _____    ______ ____
ROOT
ATOM      1  O   UNL     1     -11.293  16.567  69.193  0.00  0.00    -0.287 OA
ATOM      2  C   UNL     1     -12.058  15.565  69.325  0.00  0.00    +0.196 C 
ENDROOT
BRANCH   2   3
ATOM      3  C   UNL     1     -12.381  15.207  70.713  0.00  0.00    +0.039 A 
ATOM      4  C   UNL     1     -11.527  15.516  71.764  0.00  0.00    +0.003 A 
ATOM      5  C   UNL     1     -12.006  15.695  73.056  0.00  0.00    +0.000 A 
ATOM      6  C   UNL     1     -13.366  15.926  73.209  0.00  0.00    +0.000 A 
ATOM      7  C   UNL     1     -14.216  15.302  72.304  0.00  0.00    +0.000 A 
ATOM      8  C   UNL     1     -13.735  15.173  71.025  0.00  0.00    +0.003 A 
ENDBRANCH   2   3
BRANCH   2   9
ATOM      9  C   UNL     1     -11.752  14.433  68.440  0.00  0.00    +0.039 A 
ATOM     10  C   UNL     1     -11.456  13.182  68.902  0.00  0.00    +0.003 A 
ATOM     11  C   UNL     1     -11.526  12.136  68.003  0.00  0.00    +0.000 A 
ATOM     12  C   UNL     1     -11.752  12.331  66.646  0.00  0.00    +0.000 A 
ATOM     13  C   UNL     1     -11.967  13.616  66.179  0.00  0.00    +0.000 A 
ATOM     14  C   UNL     1     -11.723  14.656  67.070  0.00  0.00    +0.003 A 
ENDBRANCH   2   9
TORSDOF 2
ENDMDL
MODEL 2
REMARK VINA RESULT:      -5.7      0.567      5.084
REMARK  Name = 
REMARK  2 active torsions:
REMARK  status: ('A' for Active; 'I' for Inactive)
REMARK    1  A    between atoms: C_2  and  C_3
REMARK    2  A    between atoms: C_2  and  C_9
REMARK                            x       y       z     vdW  Elec       q    Type
REMARK                         _______ _______ _______ _____ _____    ______ ____
ROOT
ATOM      1  O   UNL     1     -11.711  16.411  68.667  0.00  0.00    -0.287 OA
ATOM      2  C   UNL     1     -11.745  15.390  69.417  0.00  0.00    +0.196 C 
ENDROOT
BRANCH   2   3
ATOM      3  C   UNL     1     -12.056  14.126  68.734  0.00  0.00    +0.039 A 
ATOM      4  C   UNL     1     -11.999  14.011  67.351  0.00  0.00    +0.003 A 
ATOM      5  C   UNL     1     -11.747  12.791  66.737  0.00  0.00    +0.000 A 
ATOM      6  C   UNL     1     -11.194  11.783  67.515  0.00  0.00    +0.000 A 
ATOM      7  C   UNL     1     -11.562  11.749  68.854  0.00  0.00    +0.000 A 
ATOM      8  C   UNL     1     -11.766  12.970  69.448  0.00  0.00    +0.003 A 
ENDBRANCH   2   3
BRANCH   2   9
ATOM      9  C   UNL     1     -12.424  15.590  70.704  0.00  0.00    +0.039 A 
ATOM     10  C   UNL     1     -13.737  15.277  70.913  0.00  0.00    +0.003 A 
ATOM     11  C   UNL     1     -14.170  15.180  72.221  0.00  0.00    +0.000 A 
ATOM     12  C   UNL     1     -13.364  15.515  73.302  0.00  0.00    +0.000 A 
ATOM     13  C   UNL     1     -12.060  15.913  73.068  0.00  0.00    +0.000 A 
ATOM     14  C   UNL     1     -11.707  16.162  71.746  0.00  0.00    +0.003 A 
ENDBRANCH   2   9
TORSDOF 2
ENDMDL
MODEL 3
REMARK VINA RESULT:      -5.4      4.050      6.273
REMARK  Name = 
REMARK  2 active torsions:
REMARK  status: ('A' for Active; 'I' for Inactive)
REMARK    1  A    between atoms: C_2  and  C_3
REMARK    2  A    between atoms: C_2  and  C_9
REMARK                            x       y       z     vdW  Elec       q    Type
REMARK                         _______ _______ _______ _____ _____    ______ ____
ROOT
ATOM      1  O   UNL     1     -11.246  16.765  64.274  0.00  0.00    -0.287 OA
ATOM      2  C   UNL     1     -10.626  16.388  65.313  0.00  0.00    +0.196 C 
ENDROOT
BRANCH   2   3
ATOM      3  C   UNL     1     -10.953  15.031  65.774  0.00  0.00    +0.039 A 
ATOM      4  C   UNL     1     -12.201  14.465  65.551  0.00  0.00    +0.003 A 
ATOM      5  C   UNL     1     -12.365  13.088  65.468  0.00  0.00    +0.000 A 
ATOM      6  C   UNL     1     -11.233  12.319  65.243  0.00  0.00    +0.000 A 
ATOM      7  C   UNL     1     -10.042  12.778  65.793  0.00  0.00    +0.000 A 
ATOM      8  C   UNL     1      -9.886  14.141  65.826  0.00  0.00    +0.003 A 
ENDBRANCH   2   3
BRANCH   2   9
ATOM      9  C   UNL     1     -10.518  17.401  66.371  0.00  0.00    +0.039 A 
ATOM     10  C   UNL     1     -10.499  17.093  67.702  0.00  0.00    +0.003 A 
ATOM     11  C   UNL     1     -10.054  18.066  68.575  0.00  0.00    +0.000 A 
ATOM     12  C   UNL     1      -9.761  19.361  68.166  0.00  0.00    +0.000 A 
ATOM     13  C   UNL     1      -9.868  19.680  66.824  0.00  0.00    +0.000 A 
ATOM     14  C   UNL     1     -10.475  18.738  66.001  0.00  0.00    +0.003 A 
ENDBRANCH   2   9
TORSDOF 2
ENDMDL
MODEL 4
REMARK VINA RESULT:      -5.4      3.824      4.880
REMARK  Name = 
REMARK  2 active torsions:
REMARK  status: ('A' for Active; 'I' for Inactive)
REMARK    1  A    between atoms: C_2  and  C_3
REMARK    2  A    between atoms: C_2  and  C_9
REMARK                            x       y       z     vdW  Elec       q    Type
REMARK                         _______ _______ _______ _____ _____    ______ ____
ROOT
ATOM      1  O   UNL     1     -12.312  11.075  68.801  0.00  0.00    -0.287 OA
ATOM      2  C   UNL     1     -12.465  11.004  70.058  0.00  0.00    +0.196 C 
ENDROOT
BRANCH   2   3
ATOM      3  C   UNL     1     -12.385  12.289  70.767  0.00  0.00    +0.039 A 
ATOM      4  C   UNL     1     -12.085  13.472  70.103  0.00  0.00    +0.003 A 
ATOM      5  C   UNL     1     -12.521  14.701  70.582  0.00  0.00    +0.000 A 
ATOM      6  C   UNL     1     -13.555  14.698  71.508  0.00  0.00    +0.000 A 
ATOM      7  C   UNL     1     -13.607  13.624  72.389  0.00  0.00    +0.000 A 
ATOM      8  C   UNL     1     -13.208  12.414  71.879  0.00  0.00    +0.003 A 
ENDBRANCH   2   3
BRANCH   2   9
ATOM      9  C   UNL     1     -11.765   9.887  70.704  0.00  0.00    +0.039 A 
ATOM     10  C   UNL     1     -10.417   9.690  70.604  0.00  0.00    +0.003 A 
ATOM     11  C   UNL     1      -9.827   8.834  71.513  0.00  0.00    +0.000 A 
ATOM     12  C   UNL     1     -10.565   8.081  72.418  0.00  0.00    +0.000 A 
ATOM     13  C   UNL     1     -11.940   8.229  72.449  0.00  0.00    +0.000 A 
ATOM     14  C   UNL     1     -12.516   8.963  71.418  0.00  0.00    +0.003 A 
ENDBRANCH   2   9
TORSDOF 2
ENDMDL
MODEL 5
REMARK VINA RESULT:      -5.2      3.770      6.118
REMARK  Name = 
REMARK  2 active torsions:
REMARK  status: ('A' for Active; 'I' for Inactive)
REMARK    1  A    between atoms: C_2  and  C_3
REMARK    2  A    between atoms: C_2  and  C_9
REMARK                            x       y       z     vdW  Elec       q    Type
REMARK                         _______ _______ _______ _____ _____    ______ ____
ROOT
ATOM      1  O   UNL     1      -8.761  16.138  65.728  0.00  0.00    -0.287 OA
ATOM      2  C   UNL     1      -9.708  16.250  66.563  0.00  0.00    +0.196 C 
ENDROOT
BRANCH   2   3
ATOM      3  C   UNL     1     -10.902  15.448  66.261  0.00  0.00    +0.039 A 
ATOM      4  C   UNL     1     -11.236  15.097  64.960  0.00  0.00    +0.003 A 
ATOM      5  C   UNL     1     -11.976  13.953  64.687  0.00  0.00    +0.000 A 
ATOM      6  C   UNL     1     -12.056  12.988  65.681  0.00  0.00    +0.000 A 
ATOM      7  C   UNL     1     -12.056  13.439  66.996  0.00  0.00    +0.000 A 
ATOM      8  C   UNL     1     -11.284  14.546  67.247  0.00  0.00    +0.003 A 
ENDBRANCH   2   3
BRANCH   2   9
ATOM      9  C   UNL     1      -9.972  17.622  67.017  0.00  0.00    +0.039 A 
ATOM     10  C   UNL     1      -9.838  18.018  68.317  0.00  0.00    +0.003 A 
ATOM     11  C   UNL     1      -9.773  19.374  68.568  0.00  0.00    +0.000 A 
ATOM     12  C   UNL     1      -9.973  20.328  67.578  0.00  0.00    +0.000 A 
ATOM     13  C   UNL     1     -10.193  19.908  66.278  0.00  0.00    +0.000 A 
ATOM     14  C   UNL     1     -10.419  18.550  66.087  0.00  0.00    +0.003 A 
ENDBRANCH   2   9
TORSDOF 2
ENDMDL
MODEL 6
REMARK VINA RESULT:      -5.2      3.775      4.917
REMARK  Name = 
REMARK  2 active torsions:
REMARK  status: ('A' for Active; 'I' for Inactive)
REMARK    1  A    between atoms: C_2  and  C_3
REMARK    2  A    between atoms: C_2  and  C_9
REMARK                            x       y       z     vdW  Elec       q    Type
REMARK                         _______ _______ _______ _____ _____    ______ ____
ROOT
ATOM      1  O   UNL     1      -8.730  15.749  66.946  0.00  0.00    -0.287 OA
ATOM      2  C   UNL     1      -9.742  16.259  66.379  0.00  0.00    +0.196 C 
ENDROOT
BRANCH   2   3
ATOM      3  C   UNL     1     -10.203  17.530  66.956  0.00  0.00    +0.039 A 
ATOM      4  C   UNL     1      -9.840  17.925  68.237  0.00  0.00    +0.003 A 
ATOM      5  C   UNL     1      -9.783  19.267  68.591  0.00  0.00    +0.000 A 
ATOM      6  C   UNL     1      -9.732  20.200  67.564  0.00  0.00    +0.000 A 
ATOM      7  C   UNL     1     -10.415  19.886  66.395  0.00  0.00    +0.000 A 
ATOM      8  C   UNL     1     -10.421  18.558  66.047  0.00  0.00    +0.003 A 
ENDBRANCH   2   3
BRANCH   2   9
ATOM      9  C   UNL     1     -10.804  15.305  66.035  0.00  0.00    +0.039 A 
ATOM     10  C   UNL     1     -11.326  15.189  64.778  0.00  0.00    +0.003 A 
ATOM     11  C   UNL     1     -12.053  14.051  64.491  0.00  0.00    +0.000 A 
ATOM     12  C   UNL     1     -12.377  13.107  65.459  0.00  0.00    +0.000 A 
ATOM     13  C   UNL     1     -11.911  13.283  66.750  0.00  0.00    +0.000 A 
ATOM     14  C   UNL     1     -11.331  14.512  67.045  0.00  0.00    +0.003 A 
ENDBRANCH   2   9
TORSDOF 2
ENDMDL
MODEL 7
REMARK VINA RESULT:      -5.2      3.242      4.774
REMARK  Name = 
REMARK  2 active torsions:
REMARK  status: ('A' for Active; 'I' for Inactive)
REMARK    1  A    between atoms: C_2  and  C_3
REMARK    2  A    between atoms: C_2  and  C_9
REMARK                            x       y       z     vdW  Elec       q    Type
REMARK                         _______ _______ _______ _____ _____    ______ ____
ROOT
ATOM      1  O   UNL     1     -13.180  14.197  65.316  0.00  0.00    -0.287 OA
ATOM      2  C   UNL     1     -12.264  13.641  65.994  0.00  0.00    +0.196 C 
ENDROOT
BRANCH   2   3
ATOM      3  C   UNL     1     -11.293  14.563  66.601  0.00  0.00    +0.039 A 
ATOM      4  C   UNL     1     -10.532  15.432  65.830  0.00  0.00    +0.003 A 
ATOM      5  C   UNL     1     -10.051  16.627  66.350  0.00  0.00    +0.000 A 
ATOM      6  C   UNL     1     -10.644  17.106  67.510  0.00  0.00    +0.000 A 
ATOM      7  C   UNL     1     -11.097  16.161  68.422  0.00  0.00    +0.000 A 
ATOM      8  C   UNL     1     -11.604  15.005  67.881  0.00  0.00    +0.003 A 
ENDBRANCH   2   3
BRANCH   2   9
ATOM      9  C   UNL     1     -11.689  12.436  65.385  0.00  0.00    +0.039 A 
ATOM     10  C   UNL     1     -11.725  12.187  64.042  0.00  0.00    +0.003 A 
ATOM     11  C   UNL     1     -10.870  11.221  63.548  0.00  0.00    +0.000 A 
ATOM     12  C   UNL     1     -10.090  10.420  64.374  0.00  0.00    +0.000 A 
ATOM     13  C   UNL     1     -10.130  10.629  65.742  0.00  0.00    +0.000 A 
ATOM     14  C   UNL     1     -11.117  11.484  66.218  0.00  0.00    +0.003 A 
ENDBRANCH   2   9
TORSDOF 2
ENDMDL
MODEL 8
REMARK VINA RESULT:      -5.1      3.358      4.813
REMARK  Name = 
REMARK  2 active torsions:
REMARK  status: ('A' for Active; 'I' for Inactive)
REMARK    1  A    between atoms: C_2  and  C_3
REMARK    2  A    between atoms: C_2  and  C_9
REMARK                            x       y       z     vdW  Elec       q    Type
REMARK                         _______ _______ _______ _____ _____    ______ ____
ROOT
ATOM      1  O   UNL     1     -11.630  16.618  68.814  0.00  0.00    -0.287 OA
ATOM      2  C   UNL     1     -10.653  16.359  68.049  0.00  0.00    +0.196 C 
ENDROOT
BRANCH   2   3
ATOM      3  C   UNL     1      -9.990  17.535  67.468  0.00  0.00    +0.039 A 
ATOM      4  C   UNL     1     -10.603  18.311  66.494  0.00  0.00    +0.003 A 
ATOM      5  C   UNL     1     -10.284  19.654  66.332  0.00  0.00    +0.000 A 
ATOM      6  C   UNL     1      -9.632  20.289  67.380  0.00  0.00    +0.000 A 
ATOM      7  C   UNL     1      -8.752  19.519  68.132  0.00  0.00    +0.000 A 
ATOM      8  C   UNL     1      -9.111  18.206  68.310  0.00  0.00    +0.003 A 
ENDBRANCH   2   3
BRANCH   2   9
ATOM      9  C   UNL     1     -10.872  15.241  67.123  0.00  0.00    +0.039 A 
ATOM     10  C   UNL     1     -11.962  14.419  67.187  0.00  0.00    +0.003 A 
ATOM     11  C   UNL     1     -12.239  13.639  66.083  0.00  0.00    +0.000 A 
ATOM     12  C   UNL     1     -11.387  13.564  64.987  0.00  0.00    +0.000 A 
ATOM     13  C   UNL     1     -10.242  14.340  64.975  0.00  0.00    +0.000 A 
ATOM     14  C   UNL     1      -9.905  14.981  66.162  0.00  0.00    +0.003 A 
ENDBRANCH   2   9
TORSDOF 2
ENDMDL
MODEL 9
REMARK VINA RESULT:      -5.1      3.841      5.427
REMARK  Name = 
REMARK  2 active torsions:
REMARK  status: ('A' for Active; 'I' for Inactive)
REMARK    1  A    between atoms: C_2  and  C_3
REMARK    2  A    between atoms: C_2  and  C_9
REMARK                            x       y       z     vdW  Elec       q    Type
REMARK                         _______ _______ _______ _____ _____    ______ ____
ROOT
ATOM      1  O   UNL     1     -13.296  12.515  64.484  0.00  0.00    -0.287 OA
ATOM      2  C   UNL     1     -12.337  12.600  65.309  0.00  0.00    +0.196 C 
ENDROOT
BRANCH   2   3
ATOM      3  C   UNL     1     -12.063  13.955  65.807  0.00  0.00    +0.039 A 
ATOM      4  C   UNL     1     -11.902  14.217  67.161  0.00  0.00    +0.003 A 
ATOM      5  C   UNL     1     -11.139  15.289  67.604  0.00  0.00    +0.000 A 
ATOM      6  C   UNL     1     -10.252  15.861  66.703  0.00  0.00    +0.000 A 
ATOM      7  C   UNL     1     -10.632  15.870  65.366  0.00  0.00    +0.000 A 
ATOM      8  C   UNL     1     -11.351  14.779  64.944  0.00  0.00    +0.003 A 
ENDBRANCH   2   3
BRANCH   2   9
ATOM      9  C   UNL     1     -11.151  11.807  64.961  0.00  0.00    +0.039 A 
ATOM     10  C   UNL     1     -10.384  11.163  65.890  0.00  0.00    +0.003 A 
ATOM     11  C   UNL     1      -9.520  10.186  65.437  0.00  0.00    +0.000 A 
ATOM     12  C   UNL     1      -9.313   9.938  64.086  0.00  0.00    +0.000 A 
ATOM     13  C   UNL     1     -10.037  10.661  63.153  0.00  0.00    +0.000 A 
ATOM     14  C   UNL     1     -10.767  11.744  63.629  0.00  0.00    +0.003 A 
ENDBRANCH   2   9
TORSDOF 2
ENDMDL
