MODEL 1
REMARK VINA RESULT:      -7.2      0.000      0.000
REMARK  Name = 
REMARK  4 active torsions:
REMARK  status: ('A' for Active; 'I' for Inactive)
REMARK    1  A    between atoms: N_5  and  C_6
REMARK    2  A    between atoms: C_6  and  C_7
REMARK    3  A    between atoms: C_7  and  C_8
REMARK    4  A    between atoms: C_8  and  N_9
REMARK                            x       y       z     vdW  Elec       q    Type
REMARK                         _______ _______ _______ _____ _____    ______ ____
ROOT
ATOM      1  N   UNL     1     -11.852  12.660  69.634  0.00  0.00    -0.286 N 
ATOM      2  C   UNL     1     -11.431  13.140  68.351  0.00  0.00    +0.058 A 
ATOM      3  C   UNL     1     -10.651  14.282  68.214  0.00  0.00    +0.043 A 
ATOM      4  C   UNL     1     -10.856  15.004  67.046  0.00  0.00    +0.009 A 
ATOM      5  C   UNL     1     -11.564  14.473  65.974  0.00  0.00    +0.012 A 
ATOM      6  C   UNL     1     -11.762  13.098  65.954  0.00  0.00    +0.059 A 
ATOM      7 CL   UNL     1     -12.737  12.494  64.618  0.00  0.00    -0.082 Cl
ATOM      8  S   UNL     1     -10.414  15.250  69.709  0.00  0.00    -0.084 S 
ATOM      9  C   UNL     1     -11.765  14.800  70.806  0.00  0.00    +0.043 A 
ATOM     10  C   UNL     1     -12.571  15.786  71.356  0.00  0.00    +0.008 A 
ATOM     11  C   UNL     1     -13.668  15.396  72.113  0.00  0.00    +0.001 A 
ATOM     12  C   UNL     1     -13.749  14.063  72.487  0.00  0.00    +0.001 A 
ATOM     13  C   UNL     1     -13.187  13.131  71.648  0.00  0.00    +0.015 A 
ATOM     14  C   UNL     1     -11.730  12.448  67.183  0.00  0.00    +0.027 A 
ATOM     15  C   UNL     1     -12.355  13.555  70.632  0.00  0.00    +0.058 A 
ENDROOT
BRANCH   1  16
ATOM     16  C   UNL     1     -12.029  11.224  69.799  0.00  0.00    +0.097 C 
BRANCH  16  17
ATOM     17  C   UNL     1     -10.711  10.497  69.928  0.00  0.00    +0.039 C 
BRANCH  17  18
ATOM     18  C   UNL     1     -10.866   9.047  70.288  0.00  0.00    +0.074 C 
BRANCH  18  23
ATOM     19  C   UNL     1     -10.886   5.407  73.412  0.00  0.00    +0.090 C 
ATOM     20  N   UNL     1     -10.822   6.105  72.158  0.00  0.00    -0.269 NA
ATOM     21  C   UNL     1      -9.627   6.872  71.968  0.00  0.00    +0.090 C 
ATOM     22  C   UNL     1      -9.768   8.327  72.310  0.00  0.00    +0.090 C 
ATOM     23  N   UNL     1     -10.931   8.944  71.720  0.00  0.00    -0.270 NA
ATOM     24  C   UNL     1     -12.081   8.223  72.202  0.00  0.00    +0.090 C 
ATOM     25  C   UNL     1     -12.034   6.778  71.794  0.00  0.00    +0.090 C 
ENDBRANCH  18  23
ENDBRANCH  17  18
ENDBRANCH  16  17
ENDBRANCH   1  16
TORSDOF 4
ENDMDL
MODEL 2
REMARK VINA RESULT:      -7.0      3.612      8.354
REMARK  Name = 
REMARK  4 active torsions:
REMARK  status: ('A' for Active; 'I' for Inactive)
REMARK    1  A    between atoms: N_5  and  C_6
REMARK    2  A    between atoms: C_6  and  C_7
REMARK    3  A    between atoms: C_7  and  C_8
REMARK    4  A    between atoms: C_8  and  N_9
REMARK                            x       y       z     vdW  Elec       q    Type
REMARK                         _______ _______ _______ _____ _____    ______ ____
ROOT
ATOM      1  N   UNL     1     -11.404  13.190  67.880  0.00  0.00    -0.286 N 
ATOM      2  C   UNL     1     -11.104  12.131  68.798  0.00  0.00    +0.058 A 
ATOM      3  C   UNL     1     -10.071  11.231  68.569  0.00  0.00    +0.043 A 
ATOM      4  C   UNL     1     -10.271   9.955  69.079  0.00  0.00    +0.009 A 
ATOM      5  C   UNL     1     -11.283   9.685  69.993  0.00  0.00    +0.012 A 
ATOM      6  C   UNL     1     -11.863  10.766  70.646  0.00  0.00    +0.059 A 
ATOM      7 CL   UNL     1     -13.196  10.369  71.727  0.00  0.00    -0.082 Cl
ATOM      8  S   UNL     1      -9.302  11.321  66.948  0.00  0.00    -0.084 S 
ATOM      9  C   UNL     1     -10.502  12.124  65.877  0.00  0.00    +0.043 A 
ATOM     10  C   UNL     1     -10.882  11.523  64.686  0.00  0.00    +0.008 A 
ATOM     11  C   UNL     1     -11.887  12.118  63.937  0.00  0.00    +0.001 A 
ATOM     12  C   UNL     1     -12.274  13.403  64.288  0.00  0.00    +0.001 A 
ATOM     13  C   UNL     1     -12.162  13.763  65.608  0.00  0.00    +0.015 A 
ATOM     14  C   UNL     1     -11.795  11.994  69.997  0.00  0.00    +0.027 A 
ATOM     15  C   UNL     1     -11.443  12.957  66.467  0.00  0.00    +0.058 A 
ENDROOT
BRANCH   1  16
ATOM     16  C   UNL     1     -11.948  14.427  68.422  0.00  0.00    +0.097 C 
BRANCH  16  17
ATOM     17  C   UNL     1     -10.871  15.446  68.711  0.00  0.00    +0.039 C 
BRANCH  17  18
ATOM     18  C   UNL     1     -10.841  16.575  67.721  0.00  0.00    +0.074 C 
BRANCH  18  23
ATOM     19  C   UNL     1      -7.597  19.683  66.038  0.00  0.00    +0.090 C 
ATOM     20  N   UNL     1      -8.566  18.622  66.050  0.00  0.00    -0.269 NA
ATOM     21  C   UNL     1      -9.913  19.053  66.276  0.00  0.00    +0.090 C 
ATOM     22  C   UNL     1     -10.366  18.939  67.703  0.00  0.00    +0.090 C 
ATOM     23  N   UNL     1     -10.082  17.653  68.293  0.00  0.00    -0.270 NA
ATOM     24  C   UNL     1      -8.655  17.465  68.224  0.00  0.00    +0.090 C 
ATOM     25  C   UNL     1      -8.168  17.469  66.803  0.00  0.00    +0.090 C 
ENDBRANCH  18  23
ENDBRANCH  17  18
ENDBRANCH  16  17
ENDBRANCH   1  16
TORSDOF 4
ENDMDL
MODEL 3
REMARK VINA RESULT:      -6.9      2.993      7.042
REMARK  Name = 
REMARK  4 active torsions:
REMARK  status: ('A' for Active; 'I' for Inactive)
REMARK    1  A    between atoms: N_5  and  C_6
REMARK    2  A    between atoms: C_6  and  C_7
REMARK    3  A    between atoms: C_7  and  C_8
REMARK    4  A    between atoms: C_8  and  N_9
REMARK                            x       y       z     vdW  Elec       q    Type
REMARK                         _______ _______ _______ _____ _____    ______ ____
ROOT
ATOM      1  N   UNL     1     -11.154  10.764  69.983  0.00  0.00    -0.286 N 
ATOM      2  C   UNL     1     -10.784   9.588  70.715  0.00  0.00    +0.058 A 
ATOM      3  C   UNL     1     -11.710   8.862  71.454  0.00  0.00    +0.043 A 
ATOM      4  C   UNL     1     -11.202   8.225  72.579  0.00  0.00    +0.009 A 
ATOM      5  C   UNL     1      -9.835   8.084  72.784  0.00  0.00    +0.012 A 
ATOM      6  C   UNL     1      -8.999   8.279  71.691  0.00  0.00    +0.059 A 
ATOM      7 CL   UNL     1      -7.274   8.170  72.030  0.00  0.00    -0.082 Cl
ATOM      8  S   UNL     1     -13.329   9.617  71.637  0.00  0.00    -0.084 S 
ATOM      9  C   UNL     1     -13.090  11.374  71.341  0.00  0.00    +0.043 A 
ATOM     10  C   UNL     1     -13.530  12.302  72.273  0.00  0.00    +0.008 A 
ATOM     11  C   UNL     1     -13.234  13.642  72.062  0.00  0.00    +0.001 A 
ATOM     12  C   UNL     1     -12.744  14.002  70.815  0.00  0.00    +0.001 A 
ATOM     13  C   UNL     1     -12.009  13.069  70.126  0.00  0.00    +0.015 A 
ATOM     14  C   UNL     1      -9.490   9.083  70.668  0.00  0.00    +0.027 A 
ATOM     15  C   UNL     1     -12.008  11.759  70.560  0.00  0.00    +0.058 A 
ENDROOT
BRANCH   1  16
ATOM     16  C   UNL     1     -10.420  11.065  68.762  0.00  0.00    +0.097 C 
BRANCH  16  17
ATOM     17  C   UNL     1     -11.137  10.570  67.528  0.00  0.00    +0.039 C 
BRANCH  17  18
ATOM     18  C   UNL     1     -10.916  11.440  66.324  0.00  0.00    +0.074 C 
BRANCH  18  23
ATOM     19  C   UNL     1     -11.595  15.781  64.399  0.00  0.00    +0.090 C 
ATOM     20  N   UNL     1     -10.931  14.565  64.778  0.00  0.00    -0.269 NA
ATOM     21  C   UNL     1     -11.388  13.400  64.082  0.00  0.00    +0.090 C 
ATOM     22  C   UNL     1     -12.413  12.597  64.830  0.00  0.00    +0.090 C 
ATOM     23  N   UNL     1     -12.042  12.325  66.197  0.00  0.00    -0.270 NA
ATOM     24  C   UNL     1     -11.861  13.598  66.845  0.00  0.00    +0.090 C 
ATOM     25  C   UNL     1     -10.769  14.397  66.193  0.00  0.00    +0.090 C 
ENDBRANCH  18  23
ENDBRANCH  17  18
ENDBRANCH  16  17
ENDBRANCH   1  16
TORSDOF 4
ENDMDL
MODEL 4
REMARK VINA RESULT:      -6.8      3.921      8.723
REMARK  Name = 
REMARK  4 active torsions:
REMARK  status: ('A' for Active; 'I' for Inactive)
REMARK    1  A    between atoms: N_5  and  C_6
REMARK    2  A    between atoms: C_6  and  C_7
REMARK    3  A    between atoms: C_7  and  C_8
REMARK    4  A    between atoms: C_8  and  N_9
REMARK                            x       y       z     vdW  Elec       q    Type
REMARK                         _______ _______ _______ _____ _____    ______ ____
ROOT
ATOM      1  N   UNL     1     -11.365  14.276  67.832  0.00  0.00    -0.286 N 
ATOM      2  C   UNL     1     -11.433  13.435  68.991  0.00  0.00    +0.058 A 
ATOM      3  C   UNL     1     -10.797  12.200  69.040  0.00  0.00    +0.043 A 
ATOM      4  C   UNL     1     -11.422  11.241  69.826  0.00  0.00    +0.009 A 
ATOM      5  C   UNL     1     -12.433  11.576  70.719  0.00  0.00    +0.012 A 
ATOM      6  C   UNL     1     -12.567  12.916  71.064  0.00  0.00    +0.059 A 
ATOM      7 CL   UNL     1     -13.917  13.289  72.132  0.00  0.00    -0.082 Cl
ATOM      8  S   UNL     1     -10.101  11.618  67.489  0.00  0.00    -0.084 S 
ATOM      9  C   UNL     1     -10.970  12.510  66.193  0.00  0.00    +0.043 A 
ATOM     10  C   UNL     1     -11.579  11.814  65.159  0.00  0.00    +0.008 A 
ATOM     11  C   UNL     1     -12.330  12.527  64.235  0.00  0.00    +0.001 A 
ATOM     12  C   UNL     1     -12.220  13.910  64.249  0.00  0.00    +0.001 A 
ATOM     13  C   UNL     1     -11.944  14.514  65.451  0.00  0.00    +0.015 A 
ATOM     14  C   UNL     1     -12.086  13.844  70.147  0.00  0.00    +0.027 A 
ATOM     15  C   UNL     1     -11.531  13.738  66.515  0.00  0.00    +0.058 A 
ENDROOT
BRANCH   1  16
ATOM     16  C   UNL     1     -11.413  15.717  68.034  0.00  0.00    +0.097 C 
BRANCH  16  17
ATOM     17  C   UNL     1     -10.035  16.324  68.148  0.00  0.00    +0.039 C 
BRANCH  17  18
ATOM     18  C   UNL     1      -9.679  17.209  66.988  0.00  0.00    +0.074 C 
BRANCH  18  23
ATOM     19  C   UNL     1      -6.665  20.906  67.504  0.00  0.00    +0.090 C 
ATOM     20  N   UNL     1      -7.136  19.588  67.180  0.00  0.00    -0.269 NA
ATOM     21  C   UNL     1      -8.006  19.534  66.043  0.00  0.00    +0.090 C 
ATOM     22  C   UNL     1      -9.468  19.534  66.386  0.00  0.00    +0.090 C 
ATOM     23  N   UNL     1      -9.818  18.577  67.407  0.00  0.00    -0.270 NA
ATOM     24  C   UNL     1      -9.049  18.911  68.578  0.00  0.00    +0.090 C 
ATOM     25  C   UNL     1      -7.574  18.823  68.311  0.00  0.00    +0.090 C 
ENDBRANCH  18  23
ENDBRANCH  17  18
ENDBRANCH  16  17
ENDBRANCH   1  16
TORSDOF 4
ENDMDL
MODEL 5
REMARK VINA RESULT:      -6.7      2.177      2.679
REMARK  Name = 
REMARK  4 active torsions:
REMARK  status: ('A' for Active; 'I' for Inactive)
REMARK    1  A    between atoms: N_5  and  C_6
REMARK    2  A    between atoms: C_6  and  C_7
REMARK    3  A    between atoms: C_7  and  C_8
REMARK    4  A    between atoms: C_8  and  N_9
REMARK                            x       y       z     vdW  Elec       q    Type
REMARK                         _______ _______ _______ _____ _____    ______ ____
ROOT
ATOM      1  N   UNL     1     -11.361  12.529  68.501  0.00  0.00    -0.286 N 
ATOM      2  C   UNL     1     -10.971  12.851  67.160  0.00  0.00    +0.058 A 
ATOM      3  C   UNL     1     -10.079  13.879  66.882  0.00  0.00    +0.043 A 
ATOM      4  C   UNL     1     -10.275  14.523  65.667  0.00  0.00    +0.009 A 
ATOM      5  C   UNL     1     -11.105  13.993  64.686  0.00  0.00    +0.012 A 
ATOM      6  C   UNL     1     -11.457  12.653  64.798  0.00  0.00    +0.059 A 
ATOM      7 CL   UNL     1     -12.576  12.061  63.574  0.00  0.00    -0.082 Cl
ATOM      8  S   UNL     1      -9.641  14.931  68.271  0.00  0.00    -0.084 S 
ATOM      9  C   UNL     1     -10.960  14.733  69.475  0.00  0.00    +0.043 A 
ATOM     10  C   UNL     1     -11.615  15.847  69.978  0.00  0.00    +0.008 A 
ATOM     11  C   UNL     1     -12.698  15.651  70.824  0.00  0.00    +0.001 A 
ATOM     12  C   UNL     1     -12.903  14.371  71.318  0.00  0.00    +0.001 A 
ATOM     13  C   UNL     1     -12.504  13.316  70.536  0.00  0.00    +0.015 A 
ATOM     14  C   UNL     1     -11.420  12.106  66.076  0.00  0.00    +0.027 A 
ATOM     15  C   UNL     1     -11.696  13.556  69.443  0.00  0.00    +0.058 A 
ENDROOT
BRANCH   1  16
ATOM     16  C   UNL     1     -11.686  11.142  68.801  0.00  0.00    +0.097 C 
BRANCH  16  17
ATOM     17  C   UNL     1     -10.521  10.401  69.412  0.00  0.00    +0.039 C 
BRANCH  17  18
ATOM     18  C   UNL     1     -10.834   8.970  69.742  0.00  0.00    +0.074 C 
BRANCH  18  23
ATOM     19  C   UNL     1     -10.460   5.320  66.651  0.00  0.00    +0.090 C 
ATOM     20  N   UNL     1     -11.052   6.386  67.410  0.00  0.00    -0.269 NA
ATOM     21  C   UNL     1     -10.630   7.698  67.015  0.00  0.00    +0.090 C 
ATOM     22  C   UNL     1      -9.517   8.263  67.850  0.00  0.00    +0.090 C 
ATOM     23  N   UNL     1      -9.751   8.152  69.269  0.00  0.00    -0.270 NA
ATOM     24  C   UNL     1      -9.906   6.750  69.561  0.00  0.00    +0.090 C 
ATOM     25  C   UNL     1     -11.076   6.162  68.825  0.00  0.00    +0.090 C 
ENDBRANCH  18  23
ENDBRANCH  17  18
ENDBRANCH  16  17
ENDBRANCH   1  16
TORSDOF 4
ENDMDL
MODEL 6
REMARK VINA RESULT:      -6.6      4.142      6.422
REMARK  Name = 
REMARK  4 active torsions:
REMARK  status: ('A' for Active; 'I' for Inactive)
REMARK    1  A    between atoms: N_5  and  C_6
REMARK    2  A    between atoms: C_6  and  C_7
REMARK    3  A    between atoms: C_7  and  C_8
REMARK    4  A    between atoms: C_8  and  N_9
REMARK                            x       y       z     vdW  Elec       q    Type
REMARK                         _______ _______ _______ _____ _____    ______ ____
ROOT
ATOM      1  N   UNL     1     -10.726  12.857  67.016  0.00  0.00    -0.286 N 
ATOM      2  C   UNL     1     -10.665  14.266  66.759  0.00  0.00    +0.058 A 
ATOM      3  C   UNL     1     -11.306  14.841  65.668  0.00  0.00    +0.043 A 
ATOM      4  C   UNL     1     -10.686  15.968  65.142  0.00  0.00    +0.009 A 
ATOM      5  C   UNL     1      -9.678  16.633  65.828  0.00  0.00    +0.012 A 
ATOM      6  C   UNL     1      -9.539  16.364  67.185  0.00  0.00    +0.059 A 
ATOM      7 CL   UNL     1      -8.192  17.172  67.982  0.00  0.00    -0.082 Cl
ATOM      8  S   UNL     1     -11.999  13.692  64.473  0.00  0.00    -0.084 S 
ATOM      9  C   UNL     1     -11.122  12.141  64.715  0.00  0.00    +0.043 A 
ATOM     10  C   UNL     1     -10.512  11.513  63.639  0.00  0.00    +0.008 A 
ATOM     11  C   UNL     1      -9.756  10.375  63.881  0.00  0.00    +0.001 A 
ATOM     12  C   UNL     1      -9.861   9.788  65.134  0.00  0.00    +0.001 A 
ATOM     13  C   UNL     1     -10.139  10.609  66.199  0.00  0.00    +0.015 A 
ATOM     14  C   UNL     1     -10.014  15.134  67.627  0.00  0.00    +0.027 A 
ATOM     15  C   UNL     1     -10.558  11.902  65.961  0.00  0.00    +0.058 A 
ENDROOT
BRANCH   1  16
ATOM     16  C   UNL     1     -10.673  12.416  68.403  0.00  0.00    +0.097 C 
BRANCH  16  17
ATOM     17  C   UNL     1     -12.047  12.306  69.019  0.00  0.00    +0.039 C 
BRANCH  17  18
ATOM     18  C   UNL     1     -12.107  12.818  70.430  0.00  0.00    +0.074 C 
BRANCH  18  23
ATOM     19  C   UNL     1     -12.803  16.317  73.637  0.00  0.00    +0.090 C 
ATOM     20  N   UNL     1     -12.310  15.096  73.061  0.00  0.00    -0.269 NA
ATOM     21  C   UNL     1     -11.365  15.283  72.000  0.00  0.00    +0.090 C 
ATOM     22  C   UNL     1     -11.964  15.217  70.625  0.00  0.00    +0.090 C 
ATOM     23  N   UNL     1     -12.814  14.069  70.424  0.00  0.00    -0.270 NA
ATOM     24  C   UNL     1     -13.868  14.150  71.403  0.00  0.00    +0.090 C 
ATOM     25  C   UNL     1     -13.322  14.115  72.802  0.00  0.00    +0.090 C 
ENDBRANCH  18  23
ENDBRANCH  17  18
ENDBRANCH  16  17
ENDBRANCH   1  16
TORSDOF 4
ENDMDL
MODEL 7
REMARK VINA RESULT:      -6.5      2.368      3.630
REMARK  Name = 
REMARK  4 active torsions:
REMARK  status: ('A' for Active; 'I' for Inactive)
REMARK    1  A    between atoms: N_5  and  C_6
REMARK    2  A    between atoms: C_6  and  C_7
REMARK    3  A    between atoms: C_7  and  C_8
REMARK    4  A    between atoms: C_8  and  N_9
REMARK                            x       y       z     vdW  Elec       q    Type
REMARK                         _______ _______ _______ _____ _____    ______ ____
ROOT
ATOM      1  N   UNL     1     -11.881  12.541  69.572  0.00  0.00    -0.286 N 
ATOM      2  C   UNL     1     -11.489  13.090  68.307  0.00  0.00    +0.058 A 
ATOM      3  C   UNL     1     -10.749  14.263  68.214  0.00  0.00    +0.043 A 
ATOM      4  C   UNL     1     -10.990  15.027  67.080  0.00  0.00    +0.009 A 
ATOM      5  C   UNL     1     -11.691  14.520  65.993  0.00  0.00    +0.012 A 
ATOM      6  C   UNL     1     -11.843  13.140  65.915  0.00  0.00    +0.059 A 
ATOM      7 CL   UNL     1     -12.811  12.562  64.561  0.00  0.00    -0.082 Cl
ATOM      8  S   UNL     1     -10.530  15.172  69.747  0.00  0.00    -0.084 S 
ATOM      9  C   UNL     1     -11.854  14.630  70.836  0.00  0.00    +0.043 A 
ATOM     10  C   UNL     1     -12.687  15.563  71.435  0.00  0.00    +0.008 A 
ATOM     11  C   UNL     1     -13.762  15.105  72.183  0.00  0.00    +0.001 A 
ATOM     12  C   UNL     1     -13.795  13.754  72.500  0.00  0.00    +0.001 A 
ATOM     13  C   UNL     1     -13.211  12.879  71.617  0.00  0.00    +0.015 A 
ATOM     14  C   UNL     1     -11.777  12.439  67.114  0.00  0.00    +0.027 A 
ATOM     15  C   UNL     1     -12.404  13.375  70.613  0.00  0.00    +0.058 A 
ENDROOT
BRANCH   1  16
ATOM     16  C   UNL     1     -12.008  11.094  69.676  0.00  0.00    +0.097 C 
BRANCH  16  17
ATOM     17  C   UNL     1     -10.712  10.435  70.083  0.00  0.00    +0.039 C 
BRANCH  17  18
ATOM     18  C   UNL     1     -10.012   9.749  68.945  0.00  0.00    +0.074 C 
BRANCH  18  23
ATOM     19  C   UNL     1      -6.481  10.312  65.747  0.00  0.00    +0.090 C 
ATOM     20  N   UNL     1      -7.799  10.090  66.272  0.00  0.00    -0.269 NA
ATOM     21  C   UNL     1      -8.394  11.241  66.884  0.00  0.00    +0.090 C 
ATOM     22  C   UNL     1      -8.246  11.290  68.377  0.00  0.00    +0.090 C 
ATOM     23  N   UNL     1      -8.610  10.056  69.030  0.00  0.00    -0.270 NA
ATOM     24  C   UNL     1      -7.753   9.029  68.496  0.00  0.00    +0.090 C 
ATOM     25  C   UNL     1      -7.942   8.872  67.014  0.00  0.00    +0.090 C 
ENDBRANCH  18  23
ENDBRANCH  17  18
ENDBRANCH  16  17
ENDBRANCH   1  16
TORSDOF 4
ENDMDL
MODEL 8
REMARK VINA RESULT:      -6.3      2.948      4.883
REMARK  Name = 
REMARK  4 active torsions:
REMARK  status: ('A' for Active; 'I' for Inactive)
REMARK    1  A    between atoms: N_5  and  C_6
REMARK    2  A    between atoms: C_6  and  C_7
REMARK    3  A    between atoms: C_7  and  C_8
REMARK    4  A    between atoms: C_8  and  N_9
REMARK                            x       y       z     vdW  Elec       q    Type
REMARK                         _______ _______ _______ _____ _____    ______ ____
ROOT
ATOM      1  N   UNL     1     -10.539  12.762  67.015  0.00  0.00    -0.286 N 
ATOM      2  C   UNL     1     -10.477  14.189  66.895  0.00  0.00    +0.058 A 
ATOM      3  C   UNL     1     -11.190  14.875  65.920  0.00  0.00    +0.043 A 
ATOM      4  C   UNL     1     -10.596  16.044  65.461  0.00  0.00    +0.009 A 
ATOM      5  C   UNL     1      -9.527  16.629  66.129  0.00  0.00    +0.012 A 
ATOM      6  C   UNL     1      -9.289  16.225  67.438  0.00  0.00    +0.059 A 
ATOM      7 CL   UNL     1      -7.872  16.939  68.203  0.00  0.00    -0.082 Cl
ATOM      8  S   UNL     1     -11.991  13.856  64.675  0.00  0.00    -0.084 S 
ATOM      9  C   UNL     1     -11.122  12.283  64.693  0.00  0.00    +0.043 A 
ATOM     10  C   UNL     1     -10.607  11.760  63.516  0.00  0.00    +0.008 A 
ATOM     11  C   UNL     1      -9.851  10.598  63.583  0.00  0.00    +0.001 A 
ATOM     12  C   UNL     1      -9.869   9.890  64.777  0.00  0.00    +0.001 A 
ATOM     13  C   UNL     1     -10.051  10.602  65.936  0.00  0.00    +0.015 A 
ATOM     14  C   UNL     1      -9.747  14.961  67.791  0.00  0.00    +0.027 A 
ATOM     15  C   UNL     1     -10.467  11.916  65.861  0.00  0.00    +0.058 A 
ENDROOT
BRANCH   1  16
ATOM     16  C   UNL     1     -10.387  12.183  68.343  0.00  0.00    +0.097 C 
BRANCH  16  17
ATOM     17  C   UNL     1     -11.704  12.078  69.074  0.00  0.00    +0.039 C 
BRANCH  17  18
ATOM     18  C   UNL     1     -12.067  10.667  69.440  0.00  0.00    +0.074 C 
BRANCH  18  23
ATOM     19  C   UNL     1     -11.700   6.729  72.155  0.00  0.00    +0.090 C 
ATOM     20  N   UNL     1     -12.019   7.565  71.031  0.00  0.00    -0.269 NA
ATOM     21  C   UNL     1     -10.879   8.032  70.299  0.00  0.00    +0.090 C 
ATOM     22  C   UNL     1     -10.425   9.412  70.682  0.00  0.00    +0.090 C 
ATOM     23  N   UNL     1     -11.497  10.376  70.727  0.00  0.00    -0.270 NA
ATOM     24  C   UNL     1     -12.452   9.898  71.694  0.00  0.00    +0.090 C 
ATOM     25  C   UNL     1     -13.013   8.562  71.300  0.00  0.00    +0.090 C 
ENDBRANCH  18  23
ENDBRANCH  17  18
ENDBRANCH  16  17
ENDBRANCH   1  16
TORSDOF 4
ENDMDL
MODEL 9
REMARK VINA RESULT:      -6.3      3.201      7.995
REMARK  Name = 
REMARK  4 active torsions:
REMARK  status: ('A' for Active; 'I' for Inactive)
REMARK    1  A    between atoms: N_5  and  C_6
REMARK    2  A    between atoms: C_6  and  C_7
REMARK    3  A    between atoms: C_7  and  C_8
REMARK    4  A    between atoms: C_8  and  N_9
REMARK                            x       y       z     vdW  Elec       q    Type
REMARK                         _______ _______ _______ _____ _____    ______ ____
ROOT
ATOM      1  N   UNL     1     -11.122  10.467  69.177  0.00  0.00    -0.286 N 
ATOM      2  C   UNL     1     -11.322   9.871  70.465  0.00  0.00    +0.058 A 
ATOM      3  C   UNL     1     -10.278   9.293  71.177  0.00  0.00    +0.043 A 
ATOM      4  C   UNL     1     -10.634   8.229  71.995  0.00  0.00    +0.009 A 
ATOM      5  C   UNL     1     -11.962   7.956  72.301  0.00  0.00    +0.012 A 
ATOM      6  C   UNL     1     -12.894   8.959  72.062  0.00  0.00    +0.059 A 
ATOM      7 CL   UNL     1     -14.570   8.525  72.390  0.00  0.00    -0.082 Cl
ATOM      8  S   UNL     1      -8.728   9.119  70.285  0.00  0.00    -0.084 S 
ATOM      9  C   UNL     1      -9.154   9.170  68.540  0.00  0.00    +0.043 A 
ATOM     10  C   UNL     1      -8.733   8.156  67.692  0.00  0.00    +0.008 A 
ATOM     11  C   UNL     1      -9.170   8.172  66.375  0.00  0.00    +0.001 A 
ATOM     12  C   UNL     1      -9.787   9.328  65.918  0.00  0.00    +0.001 A 
ATOM     13  C   UNL     1     -10.481  10.082  66.831  0.00  0.00    +0.015 A 
ATOM     14  C   UNL     1     -12.562   9.899  71.093  0.00  0.00    +0.027 A 
ATOM     15  C   UNL     1     -10.325   9.822  68.177  0.00  0.00    +0.058 A 
ENDROOT
BRANCH   1  16
ATOM     16  C   UNL     1     -11.974  11.589  68.807  0.00  0.00    +0.097 C 
BRANCH  16  17
ATOM     17  C   UNL     1     -11.432  12.906  69.309  0.00  0.00    +0.039 C 
BRANCH  17  18
ATOM     18  C   UNL     1     -10.653  13.662  68.270  0.00  0.00    +0.074 C 
BRANCH  18  23
ATOM     19  C   UNL     1     -10.081  18.055  66.432  0.00  0.00    +0.090 C 
ATOM     20  N   UNL     1      -9.748  16.792  67.029  0.00  0.00    -0.269 NA
ATOM     21  C   UNL     1      -9.892  15.668  66.152  0.00  0.00    +0.090 C 
ATOM     22  C   UNL     1     -11.195  14.936  66.296  0.00  0.00    +0.090 C 
ATOM     23  N   UNL     1     -11.530  14.627  67.665  0.00  0.00    -0.270 NA
ATOM     24  C   UNL     1     -11.600  15.879  68.374  0.00  0.00    +0.090 C 
ATOM     25  C   UNL     1     -10.284  16.602  68.345  0.00  0.00    +0.090 C 
ENDBRANCH  18  23
ENDBRANCH  17  18
ENDBRANCH  16  17
ENDBRANCH   1  16
TORSDOF 4
ENDMDL
