MODEL 1
REMARK VINA RESULT:      -8.0      0.000      0.000
REMARK  Name = 
REMARK  12 active torsions:
REMARK  status: ('A' for Active; 'I' for Inactive)
REMARK    1  A    between atoms: C_2  and  C_35
REMARK    2  A    between atoms: N_3  and  C_4
REMARK    3  A    between atoms: N_7  and  C_8
REMARK    4  A    between atoms: C_8  and  C_9
REMARK    5  A    between atoms: C_9  and  C_10
REMARK    6  A    between atoms: C_10  and  C_11
REMARK    7  A    between atoms: C_11  and  C_12
REMARK    8  A    between atoms: C_12  and  C_13
REMARK    9  A    between atoms: N_15  and  C_16
REMARK   10  A    between atoms: C_16  and  C_17
REMARK   11  A    between atoms: C_40  and  C_41
REMARK   12  A    between atoms: C_44  and  C_45
REMARK                            x       y       z     vdW  Elec       q    Type
REMARK                         _______ _______ _______ _____ _____    ______ ____
ROOT
ATOM      1  C   UNL     1      -7.932  12.063  68.425  0.00  0.00    +0.098 C 
ATOM      2  C   UNL     1      -6.501  11.685  68.256  0.00  0.00    +0.039 C 
ATOM      3  C   UNL     1      -6.257  10.298  67.768  0.00  0.00    +0.074 C 
ATOM      4  N   UNL     1      -7.254   9.338  68.101  0.00  0.00    -0.273 NA
ATOM      5  C   UNL     1      -8.609   9.791  67.947  0.00  0.00    +0.074 C 
ATOM      6  C   UNL     1      -8.798  10.929  68.945  0.00  0.00    +0.039 C 
ENDROOT
BRANCH   1   9
ATOM      7  O   UNL     1      -8.238  14.737  67.504  0.00  0.00    -0.268 OA
ATOM      8  C   UNL     1      -9.013  13.859  67.017  0.00  0.00    +0.265 C 
ATOM      9  N   UNL     1      -8.561  12.510  67.186  0.00  0.00    -0.203 NA
BRANCH   8  10
ATOM     10  C   UNL     1     -10.314  14.195  66.461  0.00  0.00    +0.055 A 
ATOM     11  C   UNL     1     -11.422  13.901  67.248  0.00  0.00    +0.004 A 
ATOM     12  C   UNL     1     -12.633  13.684  66.601  0.00  0.00    +0.000 A 
ATOM     13  C   UNL     1     -12.840  14.100  65.293  0.00  0.00    +0.000 A 
ATOM     14  C   UNL     1     -11.787  14.672  64.590  0.00  0.00    +0.000 A 
ATOM     15  C   UNL     1     -10.524  14.434  65.109  0.00  0.00    +0.005 A 
BRANCH  11  16
ATOM     16  C   UNL     1     -11.364  14.245  68.673  0.00  0.00    +0.000 A 
ATOM     17  C   UNL     1     -11.557  15.545  69.125  0.00  0.00    -0.000 A 
ATOM     18  C   UNL     1     -12.336  15.826  70.241  0.00  0.00    +0.004 A 
ATOM     19  C   UNL     1     -12.852  14.789  71.009  0.00  0.00    +0.071 A 
ATOM     20  C   UNL     1     -12.241  13.555  70.822  0.00  0.00    +0.004 A 
ATOM     21  C   UNL     1     -11.639  13.251  69.606  0.00  0.00    -0.000 A 
BRANCH  19  22
ATOM     22  C   UNL     1     -14.191  14.917  71.664  0.00  0.00    +0.419 C 
ATOM     23  F   UNL     1     -14.097  15.947  72.590  0.00  0.00    -0.166 F 
ATOM     24  F   UNL     1     -14.508  13.716  72.271  0.00  0.00    -0.166 F 
ATOM     25  F   UNL     1     -15.171  15.272  70.760  0.00  0.00    -0.166 F 
ENDBRANCH  19  22
ENDBRANCH  11  16
ENDBRANCH   8  10
ENDBRANCH   1   9
BRANCH   4  26
ATOM     26  C   UNL     1      -7.087   8.690  69.368  0.00  0.00    +0.072 C 
BRANCH  26  27
ATOM     27  C   UNL     1      -7.414   7.227  69.366  0.00  0.00    +0.017 C 
BRANCH  27  28
ATOM     28  C   UNL     1      -8.010   6.884  70.724  0.00  0.00    +0.003 C 
BRANCH  28  29
ATOM     29  C   UNL     1      -9.346   7.548  70.944  0.00  0.00    +0.017 C 
BRANCH  29  30
ATOM     30  C   UNL     1     -10.407   6.488  70.782  0.00  0.00    +0.108 C 
ATOM     31  C   UNL     1     -10.745   6.221  69.370  0.00  0.00    -0.011 A 
ATOM     32  C   UNL     1     -10.107   5.040  69.022  0.00  0.00    -0.004 A 
ATOM     33  C   UNL     1     -10.015   4.654  67.698  0.00  0.00    -0.000 A 
ATOM     34  C   UNL     1     -10.537   5.446  66.687  0.00  0.00    -0.000 A 
ATOM     35  C   UNL     1     -10.855   6.741  67.024  0.00  0.00    -0.000 A 
ATOM     36  C   UNL     1      -9.779   4.290  70.226  0.00  0.00    -0.004 A 
ATOM     37  C   UNL     1      -9.402   2.976  70.427  0.00  0.00    -0.000 A 
ATOM     38  C   UNL     1      -8.891   2.606  71.657  0.00  0.00    -0.000 A 
ATOM     39  C   UNL     1      -9.127   3.431  72.739  0.00  0.00    -0.000 A 
ATOM     40  C   UNL     1      -9.611   4.713  72.533  0.00  0.00    -0.004 A 
ATOM     41  C   UNL     1     -11.159   7.023  68.336  0.00  0.00    -0.004 A 
ATOM     42  C   UNL     1      -9.883   5.192  71.277  0.00  0.00    -0.011 A 
BRANCH  30  43
ATOM     43  C   UNL     1     -11.594   6.856  71.582  0.00  0.00    +0.248 C 
ATOM     44  N   UNL     1     -11.652   7.983  72.445  0.00  0.00    -0.196 NA
ATOM     45  O   UNL     1     -12.623   6.153  71.491  0.00  0.00    -0.273 OA
BRANCH  44  46
ATOM     46  C   UNL     1     -12.859   8.806  72.482  0.00  0.00    +0.218 C 
BRANCH  46  47
ATOM     47  C   UNL     1     -12.617   9.973  71.549  0.00  0.00    +0.417 C 
ATOM     48  F   UNL     1     -13.220   9.795  70.331  0.00  0.00    -0.168 F 
ATOM     49  F   UNL     1     -13.164  11.093  72.140  0.00  0.00    -0.168 F 
ATOM     50  F   UNL     1     -11.250  10.123  71.431  0.00  0.00    -0.168 F 
ENDBRANCH  46  47
ENDBRANCH  44  46
ENDBRANCH  30  43
ENDBRANCH  29  30
ENDBRANCH  28  29
ENDBRANCH  27  28
ENDBRANCH  26  27
ENDBRANCH   4  26
TORSDOF 12
ENDMDL
MODEL 2
REMARK VINA RESULT:      -7.9      2.471      4.108
REMARK  Name = 
REMARK  12 active torsions:
REMARK  status: ('A' for Active; 'I' for Inactive)
REMARK    1  A    between atoms: C_2  and  C_35
REMARK    2  A    between atoms: N_3  and  C_4
REMARK    3  A    between atoms: N_7  and  C_8
REMARK    4  A    between atoms: C_8  and  C_9
REMARK    5  A    between atoms: C_9  and  C_10
REMARK    6  A    between atoms: C_10  and  C_11
REMARK    7  A    between atoms: C_11  and  C_12
REMARK    8  A    between atoms: C_12  and  C_13
REMARK    9  A    between atoms: N_15  and  C_16
REMARK   10  A    between atoms: C_16  and  C_17
REMARK   11  A    between atoms: C_40  and  C_41
REMARK   12  A    between atoms: C_44  and  C_45
REMARK                            x       y       z     vdW  Elec       q    Type
REMARK                         _______ _______ _______ _____ _____    ______ ____
ROOT
ATOM      1  C   UNL     1      -8.880  10.413  67.828  0.00  0.00    +0.098 C 
ATOM      2  C   UNL     1      -7.675   9.569  67.592  0.00  0.00    +0.039 C 
ATOM      3  C   UNL     1      -7.920   8.288  66.872  0.00  0.00    +0.074 C 
ATOM      4  N   UNL     1      -9.215   7.719  67.037  0.00  0.00    -0.273 NA
ATOM      5  C   UNL     1     -10.303   8.657  66.967  0.00  0.00    +0.074 C 
ATOM      6  C   UNL     1     -10.127   9.607  68.147  0.00  0.00    +0.039 C 
ENDROOT
BRANCH   1   9
ATOM      7  O   UNL     1      -8.264  13.164  67.450  0.00  0.00    -0.268 OA
ATOM      8  C   UNL     1      -9.225  12.682  66.777  0.00  0.00    +0.265 C 
ATOM      9  N   UNL     1      -9.228  11.253  66.686  0.00  0.00    -0.203 NA
BRANCH   8  10
ATOM     10  C   UNL     1     -10.305  13.511  66.265  0.00  0.00    +0.055 A 
ATOM     11  C   UNL     1     -11.450  13.597  67.049  0.00  0.00    +0.004 A 
ATOM     12  C   UNL     1     -12.650  13.886  66.408  0.00  0.00    +0.000 A 
ATOM     13  C   UNL     1     -12.676  14.434  65.133  0.00  0.00    +0.000 A 
ATOM     14  C   UNL     1     -11.480  14.620  64.452  0.00  0.00    +0.000 A 
ATOM     15  C   UNL     1     -10.399  13.899  64.935  0.00  0.00    +0.005 A 
BRANCH  11  16
ATOM     16  C   UNL     1     -11.282  13.801  68.492  0.00  0.00    +0.000 A 
ATOM     17  C   UNL     1     -11.172  15.070  69.049  0.00  0.00    -0.000 A 
ATOM     18  C   UNL     1     -11.842  15.421  70.214  0.00  0.00    +0.004 A 
ATOM     19  C   UNL     1     -12.554  14.462  70.924  0.00  0.00    +0.071 A 
ATOM     20  C   UNL     1     -12.234  13.144  70.619  0.00  0.00    +0.004 A 
ATOM     21  C   UNL     1     -11.745  12.818  69.359  0.00  0.00    -0.000 A 
BRANCH  19  22
ATOM     22  C   UNL     1     -13.815  14.823  71.643  0.00  0.00    +0.419 C 
ATOM     23  F   UNL     1     -13.535  15.937  72.423  0.00  0.00    -0.166 F 
ATOM     24  F   UNL     1     -14.212  13.749  72.416  0.00  0.00    -0.166 F 
ATOM     25  F   UNL     1     -14.819  15.183  70.767  0.00  0.00    -0.166 F 
ENDBRANCH  19  22
ENDBRANCH  11  16
ENDBRANCH   8  10
ENDBRANCH   1   9
BRANCH   4  26
ATOM     26  C   UNL     1      -9.371   6.860  68.172  0.00  0.00    +0.072 C 
BRANCH  26  27
ATOM     27  C   UNL     1     -10.587   5.985  68.128  0.00  0.00    +0.017 C 
BRANCH  27  28
ATOM     28  C   UNL     1     -11.317   6.138  69.454  0.00  0.00    +0.003 C 
BRANCH  28  29
ATOM     29  C   UNL     1     -10.684   5.320  70.552  0.00  0.00    +0.017 C 
BRANCH  29  30
ATOM     30  C   UNL     1     -10.590   6.201  71.772  0.00  0.00    +0.108 C 
ATOM     31  C   UNL     1      -9.309   6.931  71.861  0.00  0.00    -0.011 A 
ATOM     32  C   UNL     1      -9.562   8.233  71.458  0.00  0.00    -0.004 A 
ATOM     33  C   UNL     1      -8.521   9.099  71.184  0.00  0.00    -0.000 A 
ATOM     34  C   UNL     1      -7.202   8.682  71.284  0.00  0.00    -0.000 A 
ATOM     35  C   UNL     1      -6.991   7.324  71.355  0.00  0.00    -0.000 A 
ATOM     36  C   UNL     1     -10.987   8.511  71.572  0.00  0.00    -0.004 A 
ATOM     37  C   UNL     1     -11.705   9.692  71.562  0.00  0.00    -0.000 A 
ATOM     38  C   UNL     1     -13.079   9.638  71.419  0.00  0.00    -0.000 A 
ATOM     39  C   UNL     1     -13.718   8.442  71.677  0.00  0.00    -0.000 A 
ATOM     40  C   UNL     1     -12.975   7.277  71.795  0.00  0.00    -0.004 A 
ATOM     41  C   UNL     1      -7.998   6.528  71.852  0.00  0.00    -0.004 A 
ATOM     42  C   UNL     1     -11.609   7.275  71.680  0.00  0.00    -0.011 A 
BRANCH  30  43
ATOM     43  C   UNL     1     -10.860   5.394  72.981  0.00  0.00    +0.248 C 
ATOM     44  N   UNL     1     -11.441   4.099  72.958  0.00  0.00    -0.196 NA
ATOM     45  O   UNL     1     -10.545   5.859  74.098  0.00  0.00    -0.273 OA
BRANCH  44  46
ATOM     46  C   UNL     1     -10.922   3.054  73.837  0.00  0.00    +0.218 C 
BRANCH  46  47
ATOM     47  C   UNL     1      -9.875   2.302  73.045  0.00  0.00    +0.417 C 
ATOM     48  F   UNL     1     -10.194   2.217  71.714  0.00  0.00    -0.168 F 
ATOM     49  F   UNL     1      -8.691   3.000  73.159  0.00  0.00    -0.168 F 
ATOM     50  F   UNL     1      -9.744   1.056  73.623  0.00  0.00    -0.168 F 
ENDBRANCH  46  47
ENDBRANCH  44  46
ENDBRANCH  30  43
ENDBRANCH  29  30
ENDBRANCH  28  29
ENDBRANCH  27  28
ENDBRANCH  26  27
ENDBRANCH   4  26
TORSDOF 12
ENDMDL
MODEL 3
REMARK VINA RESULT:      -7.9      4.711      7.550
REMARK  Name = 
REMARK  12 active torsions:
REMARK  status: ('A' for Active; 'I' for Inactive)
REMARK    1  A    between atoms: C_2  and  C_35
REMARK    2  A    between atoms: N_3  and  C_4
REMARK    3  A    between atoms: N_7  and  C_8
REMARK    4  A    between atoms: C_8  and  C_9
REMARK    5  A    between atoms: C_9  and  C_10
REMARK    6  A    between atoms: C_10  and  C_11
REMARK    7  A    between atoms: C_11  and  C_12
REMARK    8  A    between atoms: C_12  and  C_13
REMARK    9  A    between atoms: N_15  and  C_16
REMARK   10  A    between atoms: C_16  and  C_17
REMARK   11  A    between atoms: C_40  and  C_41
REMARK   12  A    between atoms: C_44  and  C_45
REMARK                            x       y       z     vdW  Elec       q    Type
REMARK                         _______ _______ _______ _____ _____    ______ ____
ROOT
ATOM      1  C   UNL     1      -5.842  15.059  70.242  0.00  0.00    +0.098 C 
ATOM      2  C   UNL     1      -5.382  13.721  70.710  0.00  0.00    +0.039 C 
ATOM      3  C   UNL     1      -5.186  12.700  69.643  0.00  0.00    +0.074 C 
ATOM      4  N   UNL     1      -5.995  12.852  68.481  0.00  0.00    -0.273 NA
ATOM      5  C   UNL     1      -6.116  14.200  67.997  0.00  0.00    +0.074 C 
ATOM      6  C   UNL     1      -6.830  14.987  69.091  0.00  0.00    +0.039 C 
ENDROOT
BRANCH   1   9
ATOM      7  O   UNL     1      -4.970  17.516  71.379  0.00  0.00    -0.268 OA
ATOM      8  C   UNL     1      -4.664  17.291  70.168  0.00  0.00    +0.265 C 
ATOM      9  N   UNL     1      -4.754  15.915  69.780  0.00  0.00    -0.203 NA
BRANCH   8  10
ATOM     10  C   UNL     1      -4.384  18.363  69.226  0.00  0.00    +0.055 A 
ATOM     11  C   UNL     1      -5.121  18.365  68.047  0.00  0.00    +0.004 A 
ATOM     12  C   UNL     1      -4.555  18.977  66.934  0.00  0.00    +0.000 A 
ATOM     13  C   UNL     1      -3.498  19.868  67.057  0.00  0.00    +0.000 A 
ATOM     14  C   UNL     1      -2.941  20.089  68.311  0.00  0.00    +0.000 A 
ATOM     15  C   UNL     1      -3.225  19.127  69.268  0.00  0.00    +0.005 A 
BRANCH  11  16
ATOM     16  C   UNL     1      -6.565  18.120  68.138  0.00  0.00    +0.000 A 
ATOM     17  C   UNL     1      -7.371  18.801  69.043  0.00  0.00    -0.000 A 
ATOM     18  C   UNL     1      -8.616  19.303  68.682  0.00  0.00    +0.004 A 
ATOM     19  C   UNL     1      -9.140  19.030  67.425  0.00  0.00    +0.071 A 
ATOM     20  C   UNL     1      -8.547  17.964  66.757  0.00  0.00    +0.004 A 
ATOM     21  C   UNL     1      -7.225  17.625  67.019  0.00  0.00    -0.000 A 
BRANCH  19  22
ATOM     22  C   UNL     1      -9.979  20.042  66.710  0.00  0.00    +0.419 C 
ATOM     23  F   UNL     1      -9.556  20.063  65.388  0.00  0.00    -0.166 F 
ATOM     24  F   UNL     1      -9.810  21.271  67.318  0.00  0.00    -0.166 F 
ATOM     25  F   UNL     1     -11.313  19.688  66.704  0.00  0.00    -0.166 F 
ENDBRANCH  19  22
ENDBRANCH  11  16
ENDBRANCH   8  10
ENDBRANCH   1   9
BRANCH   4  26
ATOM     26  C   UNL     1      -7.283  12.228  68.541  0.00  0.00    +0.072 C 
BRANCH  26  27
ATOM     27  C   UNL     1      -7.847  11.836  67.209  0.00  0.00    +0.017 C 
BRANCH  27  28
ATOM     28  C   UNL     1      -9.208  12.503  67.068  0.00  0.00    +0.003 C 
BRANCH  28  29
ATOM     29  C   UNL     1      -9.757  12.965  68.394  0.00  0.00    +0.017 C 
BRANCH  29  30
ATOM     30  C   UNL     1     -11.195  12.515  68.467  0.00  0.00    +0.108 C 
ATOM     31  C   UNL     1     -11.339  11.111  68.900  0.00  0.00    -0.011 A 
ATOM     32  C   UNL     1     -11.722  11.142  70.233  0.00  0.00    -0.004 A 
ATOM     33  C   UNL     1     -11.690   9.992  71.000  0.00  0.00    -0.000 A 
ATOM     34  C   UNL     1     -11.255   8.790  70.464  0.00  0.00    -0.000 A 
ATOM     35  C   UNL     1     -10.579   8.859  69.268  0.00  0.00    -0.000 A 
ATOM     36  C   UNL     1     -12.289  12.445  70.548  0.00  0.00    -0.004 A 
ATOM     37  C   UNL     1     -13.045  12.895  71.614  0.00  0.00    -0.000 A 
ATOM     38  C   UNL     1     -13.220  14.255  71.784  0.00  0.00    -0.000 A 
ATOM     39  C   UNL     1     -12.978  15.086  70.708  0.00  0.00    -0.000 A 
ATOM     40  C   UNL     1     -12.313  14.594  69.595  0.00  0.00    -0.004 A 
ATOM     41  C   UNL     1     -10.823   9.928  68.436  0.00  0.00    -0.004 A 
ATOM     42  C   UNL     1     -11.899  13.290  69.518  0.00  0.00    -0.011 A 
BRANCH  30  43
ATOM     43  C   UNL     1     -11.854  12.770  67.168  0.00  0.00    +0.248 C 
ATOM     44  N   UNL     1     -12.253  14.058  66.720  0.00  0.00    -0.196 NA
ATOM     45  O   UNL     1     -12.063  11.808  66.399  0.00  0.00    -0.273 OA
BRANCH  44  46
ATOM     46  C   UNL     1     -12.039  14.439  65.326  0.00  0.00    +0.218 C 
BRANCH  46  47
ATOM     47  C   UNL     1     -10.948  15.489  65.327  0.00  0.00    +0.417 C 
ATOM     48  F   UNL     1     -11.308  16.610  64.625  0.00  0.00    -0.168 F 
ATOM     49  F   UNL     1     -10.729  15.854  66.639  0.00  0.00    -0.168 F 
ATOM     50  F   UNL     1      -9.814  14.897  64.807  0.00  0.00    -0.168 F 
ENDBRANCH  46  47
ENDBRANCH  44  46
ENDBRANCH  30  43
ENDBRANCH  29  30
ENDBRANCH  28  29
ENDBRANCH  27  28
ENDBRANCH  26  27
ENDBRANCH   4  26
TORSDOF 12
ENDMDL
MODEL 4
REMARK VINA RESULT:      -7.9      4.801      7.863
REMARK  Name = 
REMARK  12 active torsions:
REMARK  status: ('A' for Active; 'I' for Inactive)
REMARK    1  A    between atoms: C_2  and  C_35
REMARK    2  A    between atoms: N_3  and  C_4
REMARK    3  A    between atoms: N_7  and  C_8
REMARK    4  A    between atoms: C_8  and  C_9
REMARK    5  A    between atoms: C_9  and  C_10
REMARK    6  A    between atoms: C_10  and  C_11
REMARK    7  A    between atoms: C_11  and  C_12
REMARK    8  A    between atoms: C_12  and  C_13
REMARK    9  A    between atoms: N_15  and  C_16
REMARK   10  A    between atoms: C_16  and  C_17
REMARK   11  A    between atoms: C_40  and  C_41
REMARK   12  A    between atoms: C_44  and  C_45
REMARK                            x       y       z     vdW  Elec       q    Type
REMARK                         _______ _______ _______ _____ _____    ______ ____
ROOT
ATOM      1  C   UNL     1      -5.824  15.388  70.338  0.00  0.00    +0.098 C 
ATOM      2  C   UNL     1      -5.326  14.248  71.159  0.00  0.00    +0.039 C 
ATOM      3  C   UNL     1      -4.858  13.061  70.391  0.00  0.00    +0.074 C 
ATOM      4  N   UNL     1      -5.470  12.861  69.120  0.00  0.00    -0.273 NA
ATOM      5  C   UNL     1      -5.633  14.051  68.331  0.00  0.00    +0.074 C 
ATOM      6  C   UNL     1      -6.593  14.951  69.104  0.00  0.00    +0.039 C 
ENDROOT
BRANCH   1   9
ATOM      7  O   UNL     1      -5.057  17.921  71.380  0.00  0.00    -0.268 OA
ATOM      8  C   UNL     1      -4.724  17.655  70.185  0.00  0.00    +0.265 C 
ATOM      9  N   UNL     1      -4.759  16.262  69.856  0.00  0.00    -0.203 NA
BRANCH   8  10
ATOM     10  C   UNL     1      -4.465  18.695  69.201  0.00  0.00    +0.055 A 
ATOM     11  C   UNL     1      -5.101  18.561  67.972  0.00  0.00    +0.004 A 
ATOM     12  C   UNL     1      -4.504  19.161  66.869  0.00  0.00    +0.000 A 
ATOM     13  C   UNL     1      -3.545  20.154  67.016  0.00  0.00    +0.000 A 
ATOM     14  C   UNL     1      -3.114  20.496  68.291  0.00  0.00    +0.000 A 
ATOM     15  C   UNL     1      -3.388  19.566  69.283  0.00  0.00    +0.005 A 
BRANCH  11  16
ATOM     16  C   UNL     1      -6.520  18.186  67.968  0.00  0.00    +0.000 A 
ATOM     17  C   UNL     1      -7.403  18.638  68.941  0.00  0.00    -0.000 A 
ATOM     18  C   UNL     1      -8.679  19.088  68.621  0.00  0.00    +0.004 A 
ATOM     19  C   UNL     1      -9.147  18.985  67.317  0.00  0.00    +0.071 A 
ATOM     20  C   UNL     1      -8.448  18.098  66.508  0.00  0.00    +0.004 A 
ATOM     21  C   UNL     1      -7.108  17.830  66.759  0.00  0.00    -0.000 A 
BRANCH  19  22
ATOM     22  C   UNL     1     -10.056  20.028  66.747  0.00  0.00    +0.419 C 
ATOM     23  F   UNL     1     -11.353  19.675  67.096  0.00  0.00    -0.166 F 
ATOM     24  F   UNL     1      -9.891  20.063  65.375  0.00  0.00    -0.166 F 
ATOM     25  F   UNL     1      -9.813  21.272  67.293  0.00  0.00    -0.166 F 
ENDBRANCH  19  22
ENDBRANCH  11  16
ENDBRANCH   8  10
ENDBRANCH   1   9
BRANCH   4  26
ATOM     26  C   UNL     1      -6.685  12.103  69.135  0.00  0.00    +0.072 C 
BRANCH  26  27
ATOM     27  C   UNL     1      -7.093  11.555  67.800  0.00  0.00    +0.017 C 
BRANCH  27  28
ATOM     28  C   UNL     1      -8.548  11.935  67.568  0.00  0.00    +0.003 C 
BRANCH  28  29
ATOM     29  C   UNL     1      -9.435  11.524  68.716  0.00  0.00    +0.017 C 
BRANCH  29  30
ATOM     30  C   UNL     1     -10.836  11.973  68.384  0.00  0.00    +0.108 C 
ATOM     31  C   UNL     1     -11.822  11.603  69.419  0.00  0.00    -0.011 A 
ATOM     32  C   UNL     1     -12.080  12.750  70.154  0.00  0.00    -0.004 A 
ATOM     33  C   UNL     1     -12.763  12.678  71.354  0.00  0.00    -0.000 A 
ATOM     34  C   UNL     1     -13.187  11.459  71.860  0.00  0.00    -0.000 A 
ATOM     35  C   UNL     1     -12.636  10.333  71.292  0.00  0.00    -0.000 A 
ATOM     36  C   UNL     1     -11.699  13.922  69.379  0.00  0.00    -0.004 A 
ATOM     37  C   UNL     1     -11.989  15.266  69.526  0.00  0.00    -0.000 A 
ATOM     38  C   UNL     1     -11.269  16.190  68.793  0.00  0.00    -0.000 A 
ATOM     39  C   UNL     1     -10.576  15.749  67.682  0.00  0.00    -0.000 A 
ATOM     40  C   UNL     1     -10.385  14.390  67.487  0.00  0.00    -0.004 A 
ATOM     41  C   UNL     1     -12.169  10.409  70.000  0.00  0.00    -0.004 A 
ATOM     42  C   UNL     1     -10.881  13.456  68.359  0.00  0.00    -0.011 A 
BRANCH  30  43
ATOM     43  C   UNL     1     -11.210  11.465  67.048  0.00  0.00    +0.248 C 
ATOM     44  N   UNL     1     -12.062  12.155  66.145  0.00  0.00    -0.196 NA
ATOM     45  O   UNL     1     -10.741  10.371  66.666  0.00  0.00    -0.273 OA
BRANCH  44  46
ATOM     46  C   UNL     1     -11.736  12.187  64.721  0.00  0.00    +0.218 C 
BRANCH  46  47
ATOM     47  C   UNL     1     -11.925  13.618  64.265  0.00  0.00    +0.417 C 
ATOM     48  F   UNL     1     -12.733  14.330  65.115  0.00  0.00    -0.168 F 
ATOM     49  F   UNL     1     -10.681  14.214  64.253  0.00  0.00    -0.168 F 
ATOM     50  F   UNL     1     -12.438  13.573  62.984  0.00  0.00    -0.168 F 
ENDBRANCH  46  47
ENDBRANCH  44  46
ENDBRANCH  30  43
ENDBRANCH  29  30
ENDBRANCH  28  29
ENDBRANCH  27  28
ENDBRANCH  26  27
ENDBRANCH   4  26
TORSDOF 12
ENDMDL
MODEL 5
REMARK VINA RESULT:      -7.8      2.436      3.508
REMARK  Name = 
REMARK  12 active torsions:
REMARK  status: ('A' for Active; 'I' for Inactive)
REMARK    1  A    between atoms: C_2  and  C_35
REMARK    2  A    between atoms: N_3  and  C_4
REMARK    3  A    between atoms: N_7  and  C_8
REMARK    4  A    between atoms: C_8  and  C_9
REMARK    5  A    between atoms: C_9  and  C_10
REMARK    6  A    between atoms: C_10  and  C_11
REMARK    7  A    between atoms: C_11  and  C_12
REMARK    8  A    between atoms: C_12  and  C_13
REMARK    9  A    between atoms: N_15  and  C_16
REMARK   10  A    between atoms: C_16  and  C_17
REMARK   11  A    between atoms: C_40  and  C_41
REMARK   12  A    between atoms: C_44  and  C_45
REMARK                            x       y       z     vdW  Elec       q    Type
REMARK                         _______ _______ _______ _____ _____    ______ ____
ROOT
ATOM      1  C   UNL     1      -8.623  10.254  67.409  0.00  0.00    +0.098 C 
ATOM      2  C   UNL     1      -8.186   8.970  66.791  0.00  0.00    +0.039 C 
ATOM      3  C   UNL     1      -9.284   8.066  66.346  0.00  0.00    +0.074 C 
ATOM      4  N   UNL     1     -10.510   8.177  67.061  0.00  0.00    -0.273 NA
ATOM      5  C   UNL     1     -10.928   9.523  67.345  0.00  0.00    +0.074 C 
ATOM      6  C   UNL     1      -9.868  10.117  68.267  0.00  0.00    +0.039 C 
ENDROOT
BRANCH   1   9
ATOM      7  O   UNL     1      -8.214  13.056  67.671  0.00  0.00    -0.268 OA
ATOM      8  C   UNL     1      -9.058  12.667  66.807  0.00  0.00    +0.265 C 
ATOM      9  N   UNL     1      -8.927  11.292  66.428  0.00  0.00    -0.203 NA
BRANCH   8  10
ATOM     10  C   UNL     1     -10.149  13.514  66.351  0.00  0.00    +0.055 A 
ATOM     11  C   UNL     1     -11.293  13.533  67.140  0.00  0.00    +0.004 A 
ATOM     12  C   UNL     1     -12.497  13.848  66.521  0.00  0.00    +0.000 A 
ATOM     13  C   UNL     1     -12.533  14.478  65.285  0.00  0.00    +0.000 A 
ATOM     14  C   UNL     1     -11.341  14.724  64.616  0.00  0.00    +0.000 A 
ATOM     15  C   UNL     1     -10.250  13.987  65.050  0.00  0.00    +0.005 A 
BRANCH  11  16
ATOM     16  C   UNL     1     -11.125  13.643  68.594  0.00  0.00    +0.000 A 
ATOM     17  C   UNL     1     -10.832  14.854  69.211  0.00  0.00    -0.000 A 
ATOM     18  C   UNL     1     -11.463  15.252  70.383  0.00  0.00    +0.004 A 
ATOM     19  C   UNL     1     -12.330  14.385  71.037  0.00  0.00    +0.071 A 
ATOM     20  C   UNL     1     -12.212  13.048  70.673  0.00  0.00    +0.004 A 
ATOM     21  C   UNL     1     -11.754  12.707  69.407  0.00  0.00    -0.000 A 
BRANCH  19  22
ATOM     22  C   UNL     1     -13.534  14.906  71.755  0.00  0.00    +0.419 C 
ATOM     23  F   UNL     1     -14.058  13.851  72.492  0.00  0.00    -0.166 F 
ATOM     24  F   UNL     1     -14.442  15.375  70.824  0.00  0.00    -0.166 F 
ATOM     25  F   UNL     1     -13.205  15.902  72.651  0.00  0.00    -0.166 F 
ENDBRANCH  19  22
ENDBRANCH  11  16
ENDBRANCH   8  10
ENDBRANCH   1   9
BRANCH   4  26
ATOM     26  C   UNL     1     -10.612   7.366  68.238  0.00  0.00    +0.072 C 
BRANCH  26  27
ATOM     27  C   UNL     1      -9.672   6.198  68.272  0.00  0.00    +0.017 C 
BRANCH  27  28
ATOM     28  C   UNL     1      -9.162   6.055  69.699  0.00  0.00    +0.003 C 
BRANCH  28  29
ATOM     29  C   UNL     1      -8.687   7.368  70.269  0.00  0.00    +0.017 C 
BRANCH  29  30
ATOM     30  C   UNL     1      -9.171   7.438  71.696  0.00  0.00    +0.108 C 
ATOM     31  C   UNL     1     -10.494   8.081  71.826  0.00  0.00    -0.011 A 
ATOM     32  C   UNL     1     -11.417   7.062  72.007  0.00  0.00    -0.004 A 
ATOM     33  C   UNL     1     -12.772   7.315  71.904  0.00  0.00    -0.000 A 
ATOM     34  C   UNL     1     -13.239   8.584  71.598  0.00  0.00    -0.000 A 
ATOM     35  C   UNL     1     -12.315   9.476  71.103  0.00  0.00    -0.000 A 
ATOM     36  C   UNL     1     -10.736   5.863  72.473  0.00  0.00    -0.004 A 
ATOM     37  C   UNL     1     -11.201   4.695  73.047  0.00  0.00    -0.000 A 
ATOM     38  C   UNL     1     -10.349   3.611  73.144  0.00  0.00    -0.000 A 
ATOM     39  C   UNL     1      -8.991   3.833  73.033  0.00  0.00    -0.000 A 
ATOM     40  C   UNL     1      -8.531   5.052  72.559  0.00  0.00    -0.004 A 
ATOM     41  C   UNL     1     -10.990   9.296  71.428  0.00  0.00    -0.004 A 
ATOM     42  C   UNL     1      -9.388   6.063  72.208  0.00  0.00    -0.011 A 
BRANCH  30  43
ATOM     43  C   UNL     1      -8.144   8.098  72.529  0.00  0.00    +0.248 C 
ATOM     44  N   UNL     1      -8.348   8.491  73.879  0.00  0.00    -0.196 NA
ATOM     45  O   UNL     1      -7.015   8.312  72.037  0.00  0.00    -0.273 OA
BRANCH  44  46
ATOM     46  C   UNL     1      -7.291   8.276  74.865  0.00  0.00    +0.218 C 
BRANCH  46  47
ATOM     47  C   UNL     1      -7.692   7.059  75.671  0.00  0.00    +0.417 C 
ATOM     48  F   UNL     1      -8.990   6.686  75.434  0.00  0.00    -0.168 F 
ATOM     49  F   UNL     1      -6.869   6.022  75.285  0.00  0.00    -0.168 F 
ATOM     50  F   UNL     1      -7.477   7.362  77.000  0.00  0.00    -0.168 F 
ENDBRANCH  46  47
ENDBRANCH  44  46
ENDBRANCH  30  43
ENDBRANCH  29  30
ENDBRANCH  28  29
ENDBRANCH  27  28
ENDBRANCH  26  27
ENDBRANCH   4  26
TORSDOF 12
ENDMDL
MODEL 6
REMARK VINA RESULT:      -7.8      5.838     11.127
REMARK  Name = 
REMARK  12 active torsions:
REMARK  status: ('A' for Active; 'I' for Inactive)
REMARK    1  A    between atoms: C_2  and  C_35
REMARK    2  A    between atoms: N_3  and  C_4
REMARK    3  A    between atoms: N_7  and  C_8
REMARK    4  A    between atoms: C_8  and  C_9
REMARK    5  A    between atoms: C_9  and  C_10
REMARK    6  A    between atoms: C_10  and  C_11
REMARK    7  A    between atoms: C_11  and  C_12
REMARK    8  A    between atoms: C_12  and  C_13
REMARK    9  A    between atoms: N_15  and  C_16
REMARK   10  A    between atoms: C_16  and  C_17
REMARK   11  A    between atoms: C_40  and  C_41
REMARK   12  A    between atoms: C_44  and  C_45
REMARK                            x       y       z     vdW  Elec       q    Type
REMARK                         _______ _______ _______ _____ _____    ______ ____
ROOT
ATOM      1  C   UNL     1      -7.786  14.049  68.113  0.00  0.00    +0.098 C 
ATOM      2  C   UNL     1      -6.464  14.160  67.433  0.00  0.00    +0.039 C 
ATOM      3  C   UNL     1      -5.288  14.308  68.334  0.00  0.00    +0.074 C 
ATOM      4  N   UNL     1      -5.541  14.930  69.590  0.00  0.00    -0.273 NA
ATOM      5  C   UNL     1      -6.744  14.500  70.249  0.00  0.00    +0.074 C 
ATOM      6  C   UNL     1      -7.901  14.922  69.350  0.00  0.00    +0.039 C 
ENDROOT
BRANCH   1   9
ATOM      7  O   UNL     1      -9.027  11.982  66.605  0.00  0.00    -0.268 OA
ATOM      8  C   UNL     1      -9.061  11.884  67.870  0.00  0.00    +0.265 C 
ATOM      9  N   UNL     1      -8.095  12.692  68.553  0.00  0.00    -0.203 NA
BRANCH   8  10
ATOM     10  C   UNL     1     -10.087  11.121  68.562  0.00  0.00    +0.055 A 
ATOM     11  C   UNL     1     -11.105  11.851  69.165  0.00  0.00    +0.004 A 
ATOM     12  C   UNL     1     -11.761  11.272  70.246  0.00  0.00    +0.000 A 
ATOM     13  C   UNL     1     -11.689   9.907  70.490  0.00  0.00    +0.000 A 
ATOM     14  C   UNL     1     -10.877   9.118  69.685  0.00  0.00    +0.000 A 
ATOM     15  C   UNL     1      -9.917   9.799  68.954  0.00  0.00    +0.005 A 
BRANCH  11  16
ATOM     16  C   UNL     1     -11.705  12.953  68.404  0.00  0.00    +0.000 A 
ATOM     17  C   UNL     1     -11.474  14.284  68.732  0.00  0.00    -0.000 A 
ATOM     18  C   UNL     1     -11.215  15.244  67.762  0.00  0.00    +0.004 A 
ATOM     19  C   UNL     1     -11.298  14.914  66.415  0.00  0.00    +0.071 A 
ATOM     20  C   UNL     1     -11.999  13.746  66.136  0.00  0.00    +0.004 A 
ATOM     21  C   UNL     1     -12.062  12.728  67.080  0.00  0.00    -0.000 A 
BRANCH  19  22
ATOM     22  C   UNL     1     -10.378  15.541  65.416  0.00  0.00    +0.419 C 
ATOM     23  F   UNL     1      -9.875  14.517  64.624  0.00  0.00    -0.166 F 
ATOM     24  F   UNL     1      -9.369  16.202  66.091  0.00  0.00    -0.166 F 
ATOM     25  F   UNL     1     -11.047  16.410  64.579  0.00  0.00    -0.166 F 
ENDBRANCH  19  22
ENDBRANCH  11  16
ENDBRANCH   8  10
ENDBRANCH   1   9
BRANCH   4  26
ATOM     26  C   UNL     1      -5.453  16.360  69.598  0.00  0.00    +0.072 C 
BRANCH  26  27
ATOM     27  C   UNL     1      -4.103  16.902  69.239  0.00  0.00    +0.017 C 
BRANCH  27  28
ATOM     28  C   UNL     1      -4.257  17.724  67.967  0.00  0.00    +0.003 C 
BRANCH  28  29
ATOM     29  C   UNL     1      -5.669  18.218  67.774  0.00  0.00    +0.017 C 
BRANCH  29  30
ATOM     30  C   UNL     1      -5.630  19.724  67.846  0.00  0.00    +0.108 C 
ATOM     31  C   UNL     1      -5.449  20.233  69.220  0.00  0.00    -0.011 A 
ATOM     32  C   UNL     1      -4.121  20.614  69.334  0.00  0.00    -0.004 A 
ATOM     33  C   UNL     1      -3.572  20.891  70.572  0.00  0.00    -0.000 A 
ATOM     34  C   UNL     1      -4.328  20.774  71.728  0.00  0.00    -0.000 A 
ATOM     35  C   UNL     1      -5.514  20.085  71.620  0.00  0.00    -0.000 A 
ATOM     36  C   UNL     1      -3.560  20.829  68.008  0.00  0.00    -0.004 A 
ATOM     37  C   UNL     1      -2.407  21.459  67.579  0.00  0.00    -0.000 A 
ATOM     38  C   UNL     1      -1.991  21.278  66.274  0.00  0.00    -0.000 A 
ATOM     39  C   UNL     1      -2.909  20.814  65.352  0.00  0.00    -0.000 A 
ATOM     40  C   UNL     1      -4.113  20.284  65.789  0.00  0.00    -0.004 A 
ATOM     41  C   UNL     1      -6.134  20.033  70.392  0.00  0.00    -0.004 A 
ATOM     42  C   UNL     1      -4.435  20.219  67.120  0.00  0.00    -0.011 A 
BRANCH  30  43
ATOM     43  C   UNL     1      -6.840  20.276  67.200  0.00  0.00    +0.248 C 
ATOM     44  N   UNL     1      -7.817  19.487  66.537  0.00  0.00    -0.196 NA
ATOM     45  O   UNL     1      -7.038  21.510  67.246  0.00  0.00    -0.273 OA
BRANCH  44  46
ATOM     46  C   UNL     1      -9.236  19.787  66.716  0.00  0.00    +0.218 C 
BRANCH  46  47
ATOM     47  C   UNL     1      -9.695  19.004  67.927  0.00  0.00    +0.417 C 
ATOM     48  F   UNL     1      -8.799  18.030  68.284  0.00  0.00    -0.168 F 
ATOM     49  F   UNL     1      -9.805  19.893  68.976  0.00  0.00    -0.168 F 
ATOM     50  F   UNL     1     -10.935  18.478  67.625  0.00  0.00    -0.168 F 
ENDBRANCH  46  47
ENDBRANCH  44  46
ENDBRANCH  30  43
ENDBRANCH  29  30
ENDBRANCH  28  29
ENDBRANCH  27  28
ENDBRANCH  26  27
ENDBRANCH   4  26
TORSDOF 12
ENDMDL
MODEL 7
REMARK VINA RESULT:      -7.7      4.991     10.536
REMARK  Name = 
REMARK  12 active torsions:
REMARK  status: ('A' for Active; 'I' for Inactive)
REMARK    1  A    between atoms: C_2  and  C_35
REMARK    2  A    between atoms: N_3  and  C_4
REMARK    3  A    between atoms: N_7  and  C_8
REMARK    4  A    between atoms: C_8  and  C_9
REMARK    5  A    between atoms: C_9  and  C_10
REMARK    6  A    between atoms: C_10  and  C_11
REMARK    7  A    between atoms: C_11  and  C_12
REMARK    8  A    between atoms: C_12  and  C_13
REMARK    9  A    between atoms: N_15  and  C_16
REMARK   10  A    between atoms: C_16  and  C_17
REMARK   11  A    between atoms: C_40  and  C_41
REMARK   12  A    between atoms: C_44  and  C_45
REMARK                            x       y       z     vdW  Elec       q    Type
REMARK                         _______ _______ _______ _____ _____    ______ ____
ROOT
ATOM      1  C   UNL     1      -6.188  11.949  68.129  0.00  0.00    +0.098 C 
ATOM      2  C   UNL     1      -4.768  11.776  68.549  0.00  0.00    +0.039 C 
ATOM      3  C   UNL     1      -4.236  12.826  69.461  0.00  0.00    +0.074 C 
ATOM      4  N   UNL     1      -4.833  14.113  69.343  0.00  0.00    -0.273 NA
ATOM      5  C   UNL     1      -6.265  14.109  69.214  0.00  0.00    +0.074 C 
ATOM      6  C   UNL     1      -6.575  13.399  67.900  0.00  0.00    +0.039 C 
ENDROOT
BRANCH   1   9
ATOM      7  O   UNL     1      -7.597   9.481  68.021  0.00  0.00    -0.268 OA
ATOM      8  C   UNL     1      -8.075  10.395  68.759  0.00  0.00    +0.265 C 
ATOM      9  N   UNL     1      -7.144  11.428  69.101  0.00  0.00    -0.203 NA
BRANCH   8  10
ATOM     10  C   UNL     1      -9.486  10.453  69.107  0.00  0.00    +0.055 A 
ATOM     11  C   UNL     1     -10.205  11.537  68.614  0.00  0.00    +0.004 A 
ATOM     12  C   UNL     1     -11.334  11.935  69.320  0.00  0.00    +0.000 A 
ATOM     13  C   UNL     1     -11.948  11.094  70.238  0.00  0.00    +0.000 A 
ATOM     14  C   UNL     1     -11.372   9.862  70.518  0.00  0.00    +0.000 A 
ATOM     15  C   UNL     1     -10.041   9.728  70.153  0.00  0.00    +0.005 A 
BRANCH  11  16
ATOM     16  C   UNL     1     -10.001  11.918  67.212  0.00  0.00    +0.000 A 
ATOM     17  C   UNL     1     -10.602  11.226  66.167  0.00  0.00    -0.000 A 
ATOM     18  C   UNL     1     -11.184  11.884  65.091  0.00  0.00    +0.004 A 
ATOM     19  C   UNL     1     -11.074  13.265  64.976  0.00  0.00    +0.071 A 
ATOM     20  C   UNL     1     -10.072  13.843  65.746  0.00  0.00    +0.004 A 
ATOM     21  C   UNL     1      -9.659  13.235  66.926  0.00  0.00    -0.000 A 
BRANCH  19  22
ATOM     22  C   UNL     1     -12.189  14.074  64.392  0.00  0.00    +0.419 C 
ATOM     23  F   UNL     1     -13.253  14.006  65.283  0.00  0.00    -0.166 F 
ATOM     24  F   UNL     1     -12.525  13.549  63.159  0.00  0.00    -0.166 F 
ATOM     25  F   UNL     1     -11.846  15.405  64.272  0.00  0.00    -0.166 F 
ENDBRANCH  19  22
ENDBRANCH  11  16
ENDBRANCH   8  10
ENDBRANCH   1   9
BRANCH   4  26
ATOM     26  C   UNL     1      -4.247  14.976  68.360  0.00  0.00    +0.072 C 
BRANCH  26  27
ATOM     27  C   UNL     1      -4.474  16.438  68.601  0.00  0.00    +0.017 C 
BRANCH  27  28
ATOM     28  C   UNL     1      -4.749  17.092  67.255  0.00  0.00    +0.003 C 
BRANCH  28  29
ATOM     29  C   UNL     1      -6.212  17.055  66.891  0.00  0.00    +0.017 C 
BRANCH  29  30
ATOM     30  C   UNL     1      -6.646  18.477  66.634  0.00  0.00    +0.108 C 
ATOM     31  C   UNL     1      -6.460  19.358  67.804  0.00  0.00    -0.011 A 
ATOM     32  C   UNL     1      -5.319  20.108  67.561  0.00  0.00    -0.004 A 
ATOM     33  C   UNL     1      -4.731  20.842  68.574  0.00  0.00    -0.000 A 
ATOM     34  C   UNL     1      -5.253  20.828  69.859  0.00  0.00    -0.000 A 
ATOM     35  C   UNL     1      -6.161  19.834  70.143  0.00  0.00    -0.000 A 
ATOM     36  C   UNL     1      -5.034  20.114  66.133  0.00  0.00    -0.004 A 
ATOM     37  C   UNL     1      -4.207  20.903  65.356  0.00  0.00    -0.000 A 
ATOM     38  C   UNL     1      -3.929  20.508  64.061  0.00  0.00    -0.000 A 
ATOM     39  C   UNL     1      -4.763  19.582  63.465  0.00  0.00    -0.000 A 
ATOM     40  C   UNL     1      -5.667  18.873  64.240  0.00  0.00    -0.004 A 
ATOM     41  C   UNL     1      -6.886  19.292  69.106  0.00  0.00    -0.004 A 
ATOM     42  C   UNL     1      -5.776  19.074  65.592  0.00  0.00    -0.011 A 
BRANCH  30  43
ATOM     43  C   UNL     1      -8.042  18.481  66.147  0.00  0.00    +0.248 C 
ATOM     44  N   UNL     1      -8.840  17.314  66.011  0.00  0.00    -0.196 NA
ATOM     45  O   UNL     1      -8.572  19.574  65.850  0.00  0.00    -0.273 OA
BRANCH  44  46
ATOM     46  C   UNL     1     -10.245  17.346  66.411  0.00  0.00    +0.218 C 
BRANCH  46  47
ATOM     47  C   UNL     1     -10.286  16.979  67.879  0.00  0.00    +0.417 C 
ATOM     48  F   UNL     1     -10.388  18.084  68.685  0.00  0.00    -0.168 F 
ATOM     49  F   UNL     1     -11.405  16.197  68.077  0.00  0.00    -0.168 F 
ATOM     50  F   UNL     1      -9.147  16.248  68.148  0.00  0.00    -0.168 F 
ENDBRANCH  46  47
ENDBRANCH  44  46
ENDBRANCH  30  43
ENDBRANCH  29  30
ENDBRANCH  28  29
ENDBRANCH  27  28
ENDBRANCH  26  27
ENDBRANCH   4  26
TORSDOF 12
ENDMDL
MODEL 8
REMARK VINA RESULT:      -7.7      3.083      8.775
REMARK  Name = 
REMARK  12 active torsions:
REMARK  status: ('A' for Active; 'I' for Inactive)
REMARK    1  A    between atoms: C_2  and  C_35
REMARK    2  A    between atoms: N_3  and  C_4
REMARK    3  A    between atoms: N_7  and  C_8
REMARK    4  A    between atoms: C_8  and  C_9
REMARK    5  A    between atoms: C_9  and  C_10
REMARK    6  A    between atoms: C_10  and  C_11
REMARK    7  A    between atoms: C_11  and  C_12
REMARK    8  A    between atoms: C_12  and  C_13
REMARK    9  A    between atoms: N_15  and  C_16
REMARK   10  A    between atoms: C_16  and  C_17
REMARK   11  A    between atoms: C_40  and  C_41
REMARK   12  A    between atoms: C_44  and  C_45
REMARK                            x       y       z     vdW  Elec       q    Type
REMARK                         _______ _______ _______ _____ _____    ______ ____
ROOT
ATOM      1  C   UNL     1      -9.170   9.594  68.965  0.00  0.00    +0.098 C 
ATOM      2  C   UNL     1      -9.577  10.569  67.914  0.00  0.00    +0.039 C 
ATOM      3  C   UNL     1      -8.465  11.139  67.103  0.00  0.00    +0.074 C 
ATOM      4  N   UNL     1      -7.199  11.216  67.750  0.00  0.00    -0.273 NA
ATOM      5  C   UNL     1      -6.838  10.056  68.518  0.00  0.00    +0.074 C 
ATOM      6  C   UNL     1      -7.861   9.953  69.645  0.00  0.00    +0.039 C 
ENDROOT
BRANCH   1   9
ATOM      7  O   UNL     1     -11.197   7.799  68.095  0.00  0.00    -0.268 OA
ATOM      8  C   UNL     1     -10.080   7.300  68.431  0.00  0.00    +0.265 C 
ATOM      9  N   UNL     1      -8.997   8.237  68.456  0.00  0.00    -0.203 NA
BRANCH   8  10
ATOM     10  C   UNL     1      -9.950   5.925  68.887  0.00  0.00    +0.055 A 
ATOM     11  C   UNL     1      -9.705   5.739  70.242  0.00  0.00    +0.004 A 
ATOM     12  C   UNL     1      -9.052   4.573  70.625  0.00  0.00    +0.000 A 
ATOM     13  C   UNL     1      -8.977   3.474  69.780  0.00  0.00    +0.000 A 
ATOM     14  C   UNL     1      -9.495   3.572  68.495  0.00  0.00    +0.000 A 
ATOM     15  C   UNL     1      -9.698   4.862  68.030  0.00  0.00    +0.005 A 
BRANCH  11  16
ATOM     16  C   UNL     1     -10.490   6.528  71.199  0.00  0.00    +0.000 A 
ATOM     17  C   UNL     1      -9.934   7.581  71.916  0.00  0.00    -0.000 A 
ATOM     18  C   UNL     1     -10.603   8.786  72.088  0.00  0.00    +0.004 A 
ATOM     19  C   UNL     1     -11.911   8.926  71.641  0.00  0.00    +0.071 A 
ATOM     20  C   UNL     1     -12.580   7.734  71.390  0.00  0.00    +0.004 A 
ATOM     21  C   UNL     1     -11.868   6.597  71.028  0.00  0.00    -0.000 A 
BRANCH  19  22
ATOM     22  C   UNL     1     -12.398  10.235  71.102  0.00  0.00    +0.419 C 
ATOM     23  F   UNL     1     -12.982  10.920  72.160  0.00  0.00    -0.166 F 
ATOM     24  F   UNL     1     -13.308   9.991  70.091  0.00  0.00    -0.166 F 
ATOM     25  F   UNL     1     -11.359  11.015  70.638  0.00  0.00    -0.166 F 
ENDBRANCH  19  22
ENDBRANCH  11  16
ENDBRANCH   8  10
ENDBRANCH   1   9
BRANCH   4  26
ATOM     26  C   UNL     1      -6.967  12.408  68.509  0.00  0.00    +0.072 C 
BRANCH  26  27
ATOM     27  C   UNL     1      -7.438  13.669  67.849  0.00  0.00    +0.017 C 
BRANCH  27  28
ATOM     28  C   UNL     1      -8.380  14.374  68.814  0.00  0.00    +0.003 C 
BRANCH  28  29
ATOM     29  C   UNL     1      -8.529  15.841  68.496  0.00  0.00    +0.017 C 
BRANCH  29  30
ATOM     30  C   UNL     1      -9.996  16.103  68.263  0.00  0.00    +0.108 C 
ATOM     31  C   UNL     1     -10.528  15.396  67.081  0.00  0.00    -0.011 A 
ATOM     32  C   UNL     1     -11.231  14.299  67.553  0.00  0.00    -0.004 A 
ATOM     33  C   UNL     1     -11.631  13.295  66.691  0.00  0.00    -0.000 A 
ATOM     34  C   UNL     1     -11.324  13.352  65.340  0.00  0.00    -0.000 A 
ATOM     35  C   UNL     1     -10.359  14.260  64.967  0.00  0.00    -0.000 A 
ATOM     36  C   UNL     1     -11.586  14.510  68.949  0.00  0.00    -0.004 A 
ATOM     37  C   UNL     1     -12.487  13.877  69.784  0.00  0.00    -0.000 A 
ATOM     38  C   UNL     1     -12.422  14.115  71.144  0.00  0.00    -0.000 A 
ATOM     39  C   UNL     1     -11.745  15.237  71.580  0.00  0.00    -0.000 A 
ATOM     40  C   UNL     1     -10.927  15.932  70.703  0.00  0.00    -0.004 A 
ATOM     41  C   UNL     1     -10.158  15.367  65.760  0.00  0.00    -0.004 A 
ATOM     42  C   UNL     1     -10.778  15.548  69.395  0.00  0.00    -0.011 A 
BRANCH  30  43
ATOM     43  C   UNL     1     -10.228  17.561  68.196  0.00  0.00    +0.248 C 
ATOM     44  N   UNL     1      -9.326  18.534  68.702  0.00  0.00    -0.196 NA
ATOM     45  O   UNL     1     -11.270  17.980  67.646  0.00  0.00    -0.273 OA
BRANCH  44  46
ATOM     46  C   UNL     1      -9.066  19.751  67.936  0.00  0.00    +0.218 C 
BRANCH  46  47
ATOM     47  C   UNL     1      -7.851  19.472  67.078  0.00  0.00    +0.417 C 
ATOM     48  F   UNL     1      -8.170  18.783  65.936  0.00  0.00    -0.168 F 
ATOM     49  F   UNL     1      -7.317  20.689  66.712  0.00  0.00    -0.168 F 
ATOM     50  F   UNL     1      -6.949  18.779  67.862  0.00  0.00    -0.168 F 
ENDBRANCH  46  47
ENDBRANCH  44  46
ENDBRANCH  30  43
ENDBRANCH  29  30
ENDBRANCH  28  29
ENDBRANCH  27  28
ENDBRANCH  26  27
ENDBRANCH   4  26
TORSDOF 12
ENDMDL
MODEL 9
REMARK VINA RESULT:      -7.7      3.661      9.282
REMARK  Name = 
REMARK  12 active torsions:
REMARK  status: ('A' for Active; 'I' for Inactive)
REMARK    1  A    between atoms: C_2  and  C_35
REMARK    2  A    between atoms: N_3  and  C_4
REMARK    3  A    between atoms: N_7  and  C_8
REMARK    4  A    between atoms: C_8  and  C_9
REMARK    5  A    between atoms: C_9  and  C_10
REMARK    6  A    between atoms: C_10  and  C_11
REMARK    7  A    between atoms: C_11  and  C_12
REMARK    8  A    between atoms: C_12  and  C_13
REMARK    9  A    between atoms: N_15  and  C_16
REMARK   10  A    between atoms: C_16  and  C_17
REMARK   11  A    between atoms: C_40  and  C_41
REMARK   12  A    between atoms: C_44  and  C_45
REMARK                            x       y       z     vdW  Elec       q    Type
REMARK                         _______ _______ _______ _____ _____    ______ ____
ROOT
ATOM      1  C   UNL     1      -8.223  10.203  67.986  0.00  0.00    +0.098 C 
ATOM      2  C   UNL     1      -6.767  10.493  68.122  0.00  0.00    +0.039 C 
ATOM      3  C   UNL     1      -6.429  11.815  68.719  0.00  0.00    +0.074 C 
ATOM      4  N   UNL     1      -7.386  12.851  68.520  0.00  0.00    -0.273 NA
ATOM      5  C   UNL     1      -8.756  12.453  68.696  0.00  0.00    +0.074 C 
ATOM      6  C   UNL     1      -9.047  11.422  67.611  0.00  0.00    +0.039 C 
ENDROOT
BRANCH   1   9
ATOM      7  O   UNL     1     -10.561   8.600  68.217  0.00  0.00    -0.268 OA
ATOM      8  C   UNL     1     -10.185   9.238  69.248  0.00  0.00    +0.265 C 
ATOM      9  N   UNL     1      -8.822   9.677  69.209  0.00  0.00    -0.203 NA
BRANCH   8  10
ATOM     10  C   UNL     1     -11.107   9.607  70.310  0.00  0.00    +0.055 A 
ATOM     11  C   UNL     1     -11.528   8.585  71.153  0.00  0.00    +0.004 A 
ATOM     12  C   UNL     1     -12.755   8.737  71.788  0.00  0.00    +0.000 A 
ATOM     13  C   UNL     1     -13.364   9.980  71.897  0.00  0.00    +0.000 A 
ATOM     14  C   UNL     1     -12.775  11.079  71.285  0.00  0.00    +0.000 A 
ATOM     15  C   UNL     1     -11.841  10.786  70.303  0.00  0.00    +0.005 A 
BRANCH  11  16
ATOM     16  C   UNL     1     -10.518   7.642  71.648  0.00  0.00    +0.000 A 
ATOM     17  C   UNL     1     -10.012   7.717  72.940  0.00  0.00    -0.000 A 
ATOM     18  C   UNL     1      -9.828   6.585  73.724  0.00  0.00    +0.004 A 
ATOM     19  C   UNL     1     -10.041   5.322  73.184  0.00  0.00    +0.071 A 
ATOM     20  C   UNL     1     -10.058   5.270  71.796  0.00  0.00    +0.004 A 
ATOM     21  C   UNL     1     -10.440   6.385  71.059  0.00  0.00    -0.000 A 
BRANCH  19  22
ATOM     22  C   UNL     1     -10.596   4.216  74.024  0.00  0.00    +0.419 C 
ATOM     23  F   UNL     1     -11.900   3.995  73.600  0.00  0.00    -0.166 F 
ATOM     24  F   UNL     1     -10.552   4.597  75.352  0.00  0.00    -0.166 F 
ATOM     25  F   UNL     1      -9.905   3.036  73.839  0.00  0.00    -0.166 F 
ENDBRANCH  19  22
ENDBRANCH  11  16
ENDBRANCH   8  10
ENDBRANCH   1   9
BRANCH   4  26
ATOM     26  C   UNL     1      -7.237  13.602  67.310  0.00  0.00    +0.072 C 
BRANCH  26  27
ATOM     27  C   UNL     1      -6.745  15.005  67.505  0.00  0.00    +0.017 C 
BRANCH  27  28
ATOM     28  C   UNL     1      -7.941  15.937  67.378  0.00  0.00    +0.003 C 
BRANCH  28  29
ATOM     29  C   UNL     1      -8.667  16.116  68.688  0.00  0.00    +0.017 C 
BRANCH  29  30
ATOM     30  C   UNL     1     -10.105  16.435  68.364  0.00  0.00    +0.108 C 
ATOM     31  C   UNL     1     -10.622  15.668  67.213  0.00  0.00    -0.011 A 
ATOM     32  C   UNL     1     -11.405  14.648  67.732  0.00  0.00    -0.004 A 
ATOM     33  C   UNL     1     -11.822  13.604  66.927  0.00  0.00    -0.000 A 
ATOM     34  C   UNL     1     -11.451  13.541  65.593  0.00  0.00    -0.000 A 
ATOM     35  C   UNL     1     -10.422  14.366  65.201  0.00  0.00    -0.000 A 
ATOM     36  C   UNL     1     -11.810  14.985  69.089  0.00  0.00    -0.004 A 
ATOM     37  C   UNL     1     -12.781  14.465  69.923  0.00  0.00    -0.000 A 
ATOM     38  C   UNL     1     -12.764  14.803  71.263  0.00  0.00    -0.000 A 
ATOM     39  C   UNL     1     -12.047  15.919  71.648  0.00  0.00    -0.000 A 
ATOM     40  C   UNL     1     -11.153  16.500  70.762  0.00  0.00    -0.004 A 
ATOM     41  C   UNL     1     -10.195  15.519  65.918  0.00  0.00    -0.004 A 
ATOM     42  C   UNL     1     -10.967  16.010  69.495  0.00  0.00    -0.011 A 
BRANCH  30  43
ATOM     43  C   UNL     1     -10.253  17.894  68.178  0.00  0.00    +0.248 C 
ATOM     44  N   UNL     1      -9.311  18.853  68.636  0.00  0.00    -0.196 NA
ATOM     45  O   UNL     1     -11.253  18.324  67.564  0.00  0.00    -0.273 OA
BRANCH  44  46
ATOM     46  C   UNL     1      -8.962  19.990  67.788  0.00  0.00    +0.218 C 
BRANCH  46  47
ATOM     47  C   UNL     1      -7.562  19.733  67.273  0.00  0.00    +0.417 C 
ATOM     48  F   UNL     1      -6.870  20.896  67.051  0.00  0.00    -0.168 F 
ATOM     49  F   UNL     1      -6.893  19.013  68.241  0.00  0.00    -0.168 F 
ATOM     50  F   UNL     1      -7.683  18.978  66.124  0.00  0.00    -0.168 F 
ENDBRANCH  46  47
ENDBRANCH  44  46
ENDBRANCH  30  43
ENDBRANCH  29  30
ENDBRANCH  28  29
ENDBRANCH  27  28
ENDBRANCH  26  27
ENDBRANCH   4  26
TORSDOF 12
ENDMDL
