MODEL 1
REMARK VINA RESULT:      -7.3      0.000      0.000
REMARK  Name = 
REMARK  1 active torsions:
REMARK  status: ('A' for Active; 'I' for Inactive)
REMARK    1  A    between atoms: C_7  and  C_9
REMARK                            x       y       z     vdW  Elec       q    Type
REMARK                         _______ _______ _______ _____ _____    ______ ____
ROOT
ATOM      1  C   UNL     1     -11.143  14.870  67.178  0.00  0.00    +0.163 C 
ATOM      2  N   UNL     1     -11.384  14.731  65.785  0.00  0.00    -0.181 N 
ATOM      3  C   UNL     1     -11.351  15.840  64.881  0.00  0.00    +0.139 C 
ATOM      4  S   UNL     1     -11.456  13.148  65.074  0.00  0.00    +0.077 S 
ATOM      5  O   UNL     1     -12.804  12.918  64.444  0.00  0.00    -0.150 OA
ATOM      6  O   UNL     1     -10.370  12.942  64.073  0.00  0.00    -0.150 OA
ATOM      7  C   UNL     1     -11.312  12.050  66.441  0.00  0.00    +0.129 A 
ATOM      8  C   UNL     1     -11.773  12.556  67.650  0.00  0.00    +0.059 A 
ATOM      9  C   UNL     1     -11.873  11.605  68.659  0.00  0.00    +0.005 A 
ATOM     10  C   UNL     1     -11.229  10.377  68.554  0.00  0.00    +0.000 A 
ATOM     11  C   UNL     1     -10.362  10.121  67.498  0.00  0.00    +0.001 A 
ATOM     12  C   UNL     1     -10.501  10.925  66.375  0.00  0.00    +0.020 A 
ATOM     13  C   UNL     1     -11.726  13.981  67.982  0.00  0.00    +0.216 C 
ATOM     14  O   UNL     1     -11.928  14.372  69.311  0.00  0.00    -0.285 OA
ENDROOT
BRANCH   1  20
ATOM     15  C   UNL     1      -6.418  21.026  67.386  0.00  0.00    +0.040 C 
ATOM     16  C   UNL     1      -7.163  19.747  67.256  0.00  0.00    +0.029 A 
ATOM     17  S   UNL     1      -7.306  18.394  68.303  0.00  0.00    -0.054 S 
ATOM     18  C   UNL     1      -8.569  17.572  67.479  0.00  0.00    +0.186 A 
ATOM     19  N   UNL     1      -9.062  16.236  67.587  0.00  0.00    -0.149 NA
ATOM     20  C   UNL     1     -10.467  16.056  67.672  0.00  0.00    +0.289 C 
ATOM     21  O   UNL     1     -11.157  17.033  68.094  0.00  0.00    -0.266 OA
ATOM     22  N   UNL     1      -8.977  18.558  66.641  0.00  0.00    -0.221 NA
ATOM     23  C   UNL     1      -7.965  19.303  66.211  0.00  0.00    +0.103 A 
ENDBRANCH   1  20
TORSDOF 1
ENDMDL
MODEL 2
REMARK VINA RESULT:      -7.1      1.456      1.984
REMARK  Name = 
REMARK  1 active torsions:
REMARK  status: ('A' for Active; 'I' for Inactive)
REMARK    1  A    between atoms: C_7  and  C_9
REMARK                            x       y       z     vdW  Elec       q    Type
REMARK                         _______ _______ _______ _____ _____    ______ ____
ROOT
ATOM      1  C   UNL     1     -10.519  15.655  66.767  0.00  0.00    +0.163 C 
ATOM      2  N   UNL     1     -11.238  15.145  65.652  0.00  0.00    -0.181 N 
ATOM      3  C   UNL     1     -11.075  15.660  64.327  0.00  0.00    +0.139 C 
ATOM      4  S   UNL     1     -12.148  13.674  65.811  0.00  0.00    +0.077 S 
ATOM      5  O   UNL     1     -13.605  13.928  65.527  0.00  0.00    -0.150 OA
ATOM      6  O   UNL     1     -11.622  12.600  64.921  0.00  0.00    -0.150 OA
ATOM      7  C   UNL     1     -12.002  13.254  67.513  0.00  0.00    +0.129 A 
ATOM      8  C   UNL     1     -11.805  14.330  68.368  0.00  0.00    +0.059 A 
ATOM      9  C   UNL     1     -11.930  14.011  69.716  0.00  0.00    +0.005 A 
ATOM     10  C   UNL     1     -11.888  12.690  70.147  0.00  0.00    +0.000 A 
ATOM     11  C   UNL     1     -11.587  11.665  69.258  0.00  0.00    +0.001 A 
ATOM     12  C   UNL     1     -11.763  11.945  67.910  0.00  0.00    +0.020 A 
ATOM     13  C   UNL     1     -11.103  15.548  67.961  0.00  0.00    +0.216 C 
ATOM     14  O   UNL     1     -10.688  16.451  68.947  0.00  0.00    -0.285 OA
ENDROOT
BRANCH   1  20
ATOM     15  C   UNL     1      -5.382  21.455  67.258  0.00  0.00    +0.040 C 
ATOM     16  C   UNL     1      -6.511  20.494  67.152  0.00  0.00    +0.029 A 
ATOM     17  S   UNL     1      -7.276  19.772  65.796  0.00  0.00    -0.054 S 
ATOM     18  C   UNL     1      -8.228  18.614  66.633  0.00  0.00    +0.186 A 
ATOM     19  N   UNL     1      -9.336  17.814  66.216  0.00  0.00    -0.149 NA
ATOM     20  C   UNL     1      -9.313  16.434  66.545  0.00  0.00    +0.289 C 
ATOM     21  O   UNL     1      -8.182  15.903  66.765  0.00  0.00    -0.266 OA
ATOM     22  N   UNL     1      -7.649  18.680  67.858  0.00  0.00    -0.221 NA
ATOM     23  C   UNL     1      -7.264  19.913  68.165  0.00  0.00    +0.103 A 
ENDBRANCH   1  20
TORSDOF 1
ENDMDL
MODEL 3
REMARK VINA RESULT:      -6.4      4.070      8.108
REMARK  Name = 
REMARK  1 active torsions:
REMARK  status: ('A' for Active; 'I' for Inactive)
REMARK    1  A    between atoms: C_7  and  C_9
REMARK                            x       y       z     vdW  Elec       q    Type
REMARK                         _______ _______ _______ _____ _____    ______ ____
ROOT
ATOM      1  C   UNL     1     -12.004  12.640  69.448  0.00  0.00    +0.163 C 
ATOM      2  N   UNL     1     -12.443  13.368  70.586  0.00  0.00    -0.181 N 
ATOM      3  C   UNL     1     -13.086  12.743  71.702  0.00  0.00    +0.139 C 
ATOM      4  S   UNL     1     -11.963  15.024  70.792  0.00  0.00    +0.077 S 
ATOM      5  O   UNL     1     -13.174  15.918  70.837  0.00  0.00    -0.150 OA
ATOM      6  O   UNL     1     -11.130  15.210  72.014  0.00  0.00    -0.150 OA
ATOM      7  C   UNL     1     -11.074  15.404  69.321  0.00  0.00    +0.129 A 
ATOM      8  C   UNL     1     -11.447  14.668  68.204  0.00  0.00    +0.059 A 
ATOM      9  C   UNL     1     -10.910  15.141  67.011  0.00  0.00    +0.005 A 
ATOM     10  C   UNL     1      -9.833  16.019  67.008  0.00  0.00    +0.000 A 
ATOM     11  C   UNL     1      -9.181  16.343  68.193  0.00  0.00    +0.001 A 
ATOM     12  C   UNL     1      -9.887  16.123  69.367  0.00  0.00    +0.020 A 
ATOM     13  C   UNL     1     -11.959  13.300  68.291  0.00  0.00    +0.216 C 
ATOM     14  O   UNL     1     -12.031  12.530  67.123  0.00  0.00    -0.285 OA
ENDROOT
BRANCH   1  20
ATOM     15  C   UNL     1     -10.430   5.662  72.464  0.00  0.00    +0.040 C 
ATOM     16  C   UNL     1     -10.563   7.064  71.991  0.00  0.00    +0.029 A 
ATOM     17  S   UNL     1      -9.921   7.876  70.622  0.00  0.00    -0.054 S 
ATOM     18  C   UNL     1     -10.833   9.326  70.740  0.00  0.00    +0.186 A 
ATOM     19  N   UNL     1     -10.676  10.602  70.116  0.00  0.00    -0.149 NA
ATOM     20  C   UNL     1     -11.827  11.201  69.543  0.00  0.00    +0.289 C 
ATOM     21  O   UNL     1     -12.783  10.436  69.212  0.00  0.00    -0.266 OA
ATOM     22  N   UNL     1     -11.768   8.938  71.644  0.00  0.00    -0.221 NA
ATOM     23  C   UNL     1     -11.269   8.117  72.561  0.00  0.00    +0.103 A 
ENDBRANCH   1  20
TORSDOF 1
ENDMDL
MODEL 4
REMARK VINA RESULT:      -6.4      4.322      6.308
REMARK  Name = 
REMARK  1 active torsions:
REMARK  status: ('A' for Active; 'I' for Inactive)
REMARK    1  A    between atoms: C_7  and  C_9
REMARK                            x       y       z     vdW  Elec       q    Type
REMARK                         _______ _______ _______ _____ _____    ______ ____
ROOT
ATOM      1  C   UNL     1     -11.207  10.133  69.951  0.00  0.00    +0.163 C 
ATOM      2  N   UNL     1     -12.046   9.797  71.047  0.00  0.00    -0.181 N 
ATOM      3  C   UNL     1     -12.998  10.711  71.600  0.00  0.00    +0.139 C 
ATOM      4  S   UNL     1     -12.143   8.150  71.588  0.00  0.00    +0.077 S 
ATOM      5  O   UNL     1     -11.697   8.043  73.022  0.00  0.00    -0.150 OA
ATOM      6  O   UNL     1     -13.517   7.595  71.425  0.00  0.00    -0.150 OA
ATOM      7  C   UNL     1     -10.964   7.297  70.598  0.00  0.00    +0.129 A 
ATOM      8  C   UNL     1      -9.905   8.075  70.148  0.00  0.00    +0.059 A 
ATOM      9  C   UNL     1      -8.870   7.343  69.576  0.00  0.00    +0.005 A 
ATOM     10  C   UNL     1      -9.060   6.025  69.174  0.00  0.00    +0.000 A 
ATOM     11  C   UNL     1     -10.325   5.449  69.214  0.00  0.00    +0.001 A 
ATOM     12  C   UNL     1     -11.256   6.058  70.044  0.00  0.00    +0.020 A 
ATOM     13  C   UNL     1     -10.032   9.507  69.877  0.00  0.00    +0.216 C 
ATOM     14  O   UNL     1      -9.020  10.151  69.154  0.00  0.00    -0.285 OA
ENDROOT
BRANCH   1  20
ATOM     15  C   UNL     1     -10.444  16.578  65.690  0.00  0.00    +0.040 C 
ATOM     16  C   UNL     1     -10.463  15.437  66.642  0.00  0.00    +0.029 A 
ATOM     17  S   UNL     1     -11.480  15.077  67.977  0.00  0.00    -0.054 S 
ATOM     18  C   UNL     1     -10.958  13.466  68.262  0.00  0.00    +0.186 A 
ATOM     19  N   UNL     1     -11.146  12.588  69.373  0.00  0.00    -0.149 NA
ATOM     20  C   UNL     1     -11.557  11.258  69.101  0.00  0.00    +0.289 C 
ATOM     21  O   UNL     1     -12.153  11.043  68.002  0.00  0.00    -0.266 OA
ATOM     22  N   UNL     1     -10.265  13.242  67.118  0.00  0.00    -0.221 NA
ATOM     23  C   UNL     1      -9.626  14.328  66.697  0.00  0.00    +0.103 A 
ENDBRANCH   1  20
TORSDOF 1
ENDMDL
MODEL 5
REMARK VINA RESULT:      -6.1      2.216      2.809
REMARK  Name = 
REMARK  1 active torsions:
REMARK  status: ('A' for Active; 'I' for Inactive)
REMARK    1  A    between atoms: C_7  and  C_9
REMARK                            x       y       z     vdW  Elec       q    Type
REMARK                         _______ _______ _______ _____ _____    ______ ____
ROOT
ATOM      1  C   UNL     1      -9.564  14.123  66.990  0.00  0.00    +0.163 C 
ATOM      2  N   UNL     1     -10.920  13.735  67.162  0.00  0.00    -0.181 N 
ATOM      3  C   UNL     1     -11.933  14.643  67.606  0.00  0.00    +0.139 C 
ATOM      4  S   UNL     1     -11.460  12.195  66.567  0.00  0.00    +0.077 S 
ATOM      5  O   UNL     1     -11.986  11.352  67.699  0.00  0.00    -0.150 OA
ATOM      6  O   UNL     1     -12.495  12.346  65.503  0.00  0.00    -0.150 OA
ATOM      7  C   UNL     1      -9.998  11.426  65.963  0.00  0.00    +0.129 A 
ATOM      8  C   UNL     1      -8.823  11.831  66.584  0.00  0.00    +0.059 A 
ATOM      9  C   UNL     1      -7.718  11.049  66.266  0.00  0.00    +0.005 A 
ATOM     10  C   UNL     1      -7.733  10.198  65.166  0.00  0.00    +0.000 A 
ATOM     11  C   UNL     1      -8.805  10.206  64.280  0.00  0.00    +0.001 A 
ATOM     12  C   UNL     1      -9.994  10.741  64.755  0.00  0.00    +0.020 A 
ATOM     13  C   UNL     1      -8.642  13.173  67.138  0.00  0.00    +0.216 C 
ATOM     14  O   UNL     1      -7.350  13.596  67.475  0.00  0.00    -0.285 OA
ENDROOT
BRANCH   1  20
ATOM     15  C   UNL     1      -5.885  20.873  68.072  0.00  0.00    +0.040 C 
ATOM     16  C   UNL     1      -6.568  19.554  68.071  0.00  0.00    +0.029 A 
ATOM     17  S   UNL     1      -8.216  19.117  68.274  0.00  0.00    -0.054 S 
ATOM     18  C   UNL     1      -8.095  17.465  67.825  0.00  0.00    +0.186 A 
ATOM     19  N   UNL     1      -8.991  16.365  67.995  0.00  0.00    -0.149 NA
ATOM     20  C   UNL     1      -9.233  15.533  66.871  0.00  0.00    +0.289 C 
ATOM     21  O   UNL     1      -9.032  16.028  65.721  0.00  0.00    -0.266 OA
ATOM     22  N   UNL     1      -6.858  17.467  67.267  0.00  0.00    -0.221 NA
ATOM     23  C   UNL     1      -6.025  18.286  67.898  0.00  0.00    +0.103 A 
ENDBRANCH   1  20
TORSDOF 1
ENDMDL
MODEL 6
REMARK VINA RESULT:      -6.1      2.710      7.562
REMARK  Name = 
REMARK  1 active torsions:
REMARK  status: ('A' for Active; 'I' for Inactive)
REMARK    1  A    between atoms: C_7  and  C_9
REMARK                            x       y       z     vdW  Elec       q    Type
REMARK                         _______ _______ _______ _____ _____    ______ ____
ROOT
ATOM      1  C   UNL     1      -8.657  17.374  67.933  0.00  0.00    +0.163 C 
ATOM      2  N   UNL     1      -7.698  16.674  68.713  0.00  0.00    -0.181 N 
ATOM      3  C   UNL     1      -7.945  15.374  69.257  0.00  0.00    +0.139 C 
ATOM      4  S   UNL     1      -6.066  17.261  68.805  0.00  0.00    +0.077 S 
ATOM      5  O   UNL     1      -5.705  17.581  70.232  0.00  0.00    -0.150 OA
ATOM      6  O   UNL     1      -5.095  16.287  68.227  0.00  0.00    -0.150 OA
ATOM      7  C   UNL     1      -6.097  18.775  67.910  0.00  0.00    +0.129 A 
ATOM      8  C   UNL     1      -7.325  19.423  67.895  0.00  0.00    +0.059 A 
ATOM      9  C   UNL     1      -7.274  20.719  67.394  0.00  0.00    +0.005 A 
ATOM     10  C   UNL     1      -6.183  21.160  66.654  0.00  0.00    +0.000 A 
ATOM     11  C   UNL     1      -5.175  20.276  66.285  0.00  0.00    +0.001 A 
ATOM     12  C   UNL     1      -5.080  19.104  67.023  0.00  0.00    +0.020 A 
ATOM     13  C   UNL     1      -8.599  18.706  67.959  0.00  0.00    +0.216 C 
ATOM     14  O   UNL     1      -9.778  19.394  67.643  0.00  0.00    -0.285 OA
ENDROOT
BRANCH   1  20
ATOM     15  C   UNL     1     -12.455  12.183  63.585  0.00  0.00    +0.040 C 
ATOM     16  C   UNL     1     -11.602  13.200  64.253  0.00  0.00    +0.029 A 
ATOM     17  S   UNL     1     -11.693  14.914  64.308  0.00  0.00    -0.054 S 
ATOM     18  C   UNL     1     -10.512  15.188  65.524  0.00  0.00    +0.186 A 
ATOM     19  N   UNL     1      -9.829  16.374  65.935  0.00  0.00    -0.149 NA
ATOM     20  C   UNL     1      -9.757  16.644  67.326  0.00  0.00    +0.289 C 
ATOM     21  O   UNL     1     -10.637  16.117  68.072  0.00  0.00    -0.266 OA
ATOM     22  N   UNL     1     -10.369  13.925  65.996  0.00  0.00    -0.221 NA
ATOM     23  C   UNL     1     -10.467  13.015  65.033  0.00  0.00    +0.103 A 
ENDBRANCH   1  20
TORSDOF 1
ENDMDL
MODEL 7
REMARK VINA RESULT:      -6.1      2.691      3.580
REMARK  Name = 
REMARK  1 active torsions:
REMARK  status: ('A' for Active; 'I' for Inactive)
REMARK    1  A    between atoms: C_7  and  C_9
REMARK                            x       y       z     vdW  Elec       q    Type
REMARK                         _______ _______ _______ _____ _____    ______ ____
ROOT
ATOM      1  C   UNL     1     -11.088  12.069  68.561  0.00  0.00    +0.163 C 
ATOM      2  N   UNL     1     -10.695  11.428  67.356  0.00  0.00    -0.181 N 
ATOM      3  C   UNL     1     -10.781  12.065  66.078  0.00  0.00    +0.139 C 
ATOM      4  S   UNL     1      -9.826   9.926  67.421  0.00  0.00    +0.077 S 
ATOM      5  O   UNL     1     -10.602   8.841  66.721  0.00  0.00    -0.150 OA
ATOM      6  O   UNL     1      -8.460  10.051  66.836  0.00  0.00    -0.150 OA
ATOM      7  C   UNL     1      -9.777   9.525  69.134  0.00  0.00    +0.129 A 
ATOM      8  C   UNL     1     -10.831  10.032  69.885  0.00  0.00    +0.059 A 
ATOM      9  C   UNL     1     -10.906   9.513  71.173  0.00  0.00    +0.005 A 
ATOM     10  C   UNL     1      -9.826   8.850  71.744  0.00  0.00    +0.000 A 
ATOM     11  C   UNL     1      -8.599   8.804  71.092  0.00  0.00    +0.001 A 
ATOM     12  C   UNL     1      -8.616   9.044  69.725  0.00  0.00    +0.020 A 
ATOM     13  C   UNL     1     -11.510  11.284  69.553  0.00  0.00    +0.216 C 
ATOM     14  O   UNL     1     -12.349  11.872  70.508  0.00  0.00    -0.285 OA
ENDROOT
BRANCH   1  20
ATOM     15  C   UNL     1      -9.891  19.539  66.816  0.00  0.00    +0.040 C 
ATOM     16  C   UNL     1      -9.913  18.088  67.137  0.00  0.00    +0.029 A 
ATOM     17  S   UNL     1      -9.813  17.244  68.628  0.00  0.00    -0.054 S 
ATOM     18  C   UNL     1     -10.221  15.677  68.057  0.00  0.00    +0.186 A 
ATOM     19  N   UNL     1     -10.091  14.385  68.653  0.00  0.00    -0.149 NA
ATOM     20  C   UNL     1     -11.211  13.516  68.594  0.00  0.00    +0.289 C 
ATOM     21  O   UNL     1     -12.355  14.045  68.446  0.00  0.00    -0.266 OA
ATOM     22  N   UNL     1     -10.693  15.996  66.826  0.00  0.00    -0.221 NA
ATOM     23  C   UNL     1     -10.023  17.002  66.277  0.00  0.00    +0.103 A 
ENDBRANCH   1  20
TORSDOF 1
ENDMDL
MODEL 8
REMARK VINA RESULT:      -6.0      3.742      7.419
REMARK  Name = 
REMARK  1 active torsions:
REMARK  status: ('A' for Active; 'I' for Inactive)
REMARK    1  A    between atoms: C_7  and  C_9
REMARK                            x       y       z     vdW  Elec       q    Type
REMARK                         _______ _______ _______ _____ _____    ______ ____
ROOT
ATOM      1  C   UNL     1      -8.656  17.714  67.976  0.00  0.00    +0.163 C 
ATOM      2  N   UNL     1      -8.522  19.035  68.480  0.00  0.00    -0.181 N 
ATOM      3  C   UNL     1      -9.635  19.796  68.959  0.00  0.00    +0.139 C 
ATOM      4  S   UNL     1      -6.942  19.683  68.795  0.00  0.00    +0.077 S 
ATOM      5  O   UNL     1      -6.704  20.912  67.958  0.00  0.00    -0.150 OA
ATOM      6  O   UNL     1      -6.749  19.990  70.241  0.00  0.00    -0.150 OA
ATOM      7  C   UNL     1      -5.839  18.433  68.232  0.00  0.00    +0.129 A 
ATOM      8  C   UNL     1      -6.336  17.628  67.215  0.00  0.00    +0.059 A 
ATOM      9  C   UNL     1      -5.379  16.810  66.623  0.00  0.00    +0.005 A 
ATOM     10  C   UNL     1      -4.156  16.573  67.242  0.00  0.00    +0.000 A 
ATOM     11  C   UNL     1      -3.913  17.039  68.529  0.00  0.00    +0.001 A 
ATOM     12  C   UNL     1      -4.720  18.076  68.974  0.00  0.00    +0.020 A 
ATOM     13  C   UNL     1      -7.759  17.319  67.072  0.00  0.00    +0.216 C 
ATOM     14  O   UNL     1      -8.142  16.278  66.217  0.00  0.00    -0.285 OA
ENDROOT
BRANCH   1  20
ATOM     15  C   UNL     1     -14.046  13.999  72.149  0.00  0.00    +0.040 C 
ATOM     16  C   UNL     1     -12.876  14.621  71.478  0.00  0.00    +0.029 A 
ATOM     17  S   UNL     1     -11.884  14.091  70.181  0.00  0.00    -0.054 S 
ATOM     18  C   UNL     1     -11.022  15.551  69.912  0.00  0.00    +0.186 A 
ATOM     19  N   UNL     1      -9.831  15.829  69.172  0.00  0.00    -0.149 NA
ATOM     20  C   UNL     1      -9.846  16.944  68.295  0.00  0.00    +0.289 C 
ATOM     21  O   UNL     1     -10.974  17.342  67.873  0.00  0.00    -0.266 OA
ATOM     22  N   UNL     1     -11.783  16.406  70.640  0.00  0.00    -0.221 NA
ATOM     23  C   UNL     1     -12.260  15.839  71.742  0.00  0.00    +0.103 A 
ENDBRANCH   1  20
TORSDOF 1
ENDMDL
MODEL 9
REMARK VINA RESULT:      -6.0      3.076      4.120
REMARK  Name = 
REMARK  1 active torsions:
REMARK  status: ('A' for Active; 'I' for Inactive)
REMARK    1  A    between atoms: C_7  and  C_9
REMARK                            x       y       z     vdW  Elec       q    Type
REMARK                         _______ _______ _______ _____ _____    ______ ____
ROOT
ATOM      1  C   UNL     1     -10.351  11.510  67.786  0.00  0.00    +0.163 C 
ATOM      2  N   UNL     1     -10.008  10.451  66.903  0.00  0.00    -0.181 N 
ATOM      3  C   UNL     1      -9.546  10.676  65.568  0.00  0.00    +0.139 C 
ATOM      4  S   UNL     1      -9.871   8.830  67.512  0.00  0.00    +0.077 S 
ATOM      5  O   UNL     1     -10.854   7.925  66.816  0.00  0.00    -0.150 OA
ATOM      6  O   UNL     1      -8.484   8.301  67.369  0.00  0.00    -0.150 OA
ATOM      7  C   UNL     1     -10.362   8.955  69.197  0.00  0.00    +0.129 A 
ATOM      8  C   UNL     1     -11.248   9.988  69.474  0.00  0.00    +0.059 A 
ATOM      9  C   UNL     1     -11.806   9.927  70.746  0.00  0.00    +0.005 A 
ATOM     10  C   UNL     1     -11.246   9.130  71.738  0.00  0.00    +0.000 A 
ATOM     11  C   UNL     1     -10.038   8.477  71.522  0.00  0.00    +0.001 A 
ATOM     12  C   UNL     1      -9.660   8.298  70.199  0.00  0.00    +0.020 A 
ATOM     13  C   UNL     1     -11.262  11.243  68.722  0.00  0.00    +0.216 C 
ATOM     14  O   UNL     1     -11.968  12.335  69.242  0.00  0.00    -0.285 OA
ENDROOT
BRANCH   1  20
ATOM     15  C   UNL     1     -10.180  19.261  67.388  0.00  0.00    +0.040 C 
ATOM     16  C   UNL     1     -10.411  17.794  67.400  0.00  0.00    +0.029 A 
ATOM     17  S   UNL     1     -10.212  16.593  66.189  0.00  0.00    -0.054 S 
ATOM     18  C   UNL     1     -10.418  15.204  67.177  0.00  0.00    +0.186 A 
ATOM     19  N   UNL     1     -10.657  13.833  66.852  0.00  0.00    -0.149 NA
ATOM     20  C   UNL     1      -9.871  12.853  67.511  0.00  0.00    +0.289 C 
ATOM     21  O   UNL     1      -8.750  13.219  67.978  0.00  0.00    -0.266 OA
ATOM     22  N   UNL     1     -10.321  15.776  68.403  0.00  0.00    -0.221 NA
ATOM     23  C   UNL     1     -10.866  16.987  68.437  0.00  0.00    +0.103 A 
ENDBRANCH   1  20
TORSDOF 1
ENDMDL
