MODEL 1
REMARK VINA RESULT:      -6.9      0.000      0.000
REMARK  Name = 
REMARK  3 active torsions:
REMARK  status: ('A' for Active; 'I' for Inactive)
REMARK    1  A    between atoms: C_17  and  O_18
REMARK    2  A    between atoms: O_18  and  C_19
REMARK    3  A    between atoms: C_32  and  C_33
REMARK                            x       y       z     vdW  Elec       q    Type
REMARK                         _______ _______ _______ _____ _____    ______ ____
ROOT
ATOM      1  C   UNL     1      -4.750   0.276  59.001  0.00  0.00    +0.007 C 
ATOM      2  C   UNL     1      -5.114   0.797  60.503  0.00  0.00    +0.053 C 
ATOM      3  C   UNL     1      -3.469   1.053  60.833  0.00  0.00    +0.159 C 
ATOM      4  O   UNL     1      -3.767   2.009  61.953  0.00  0.00    -0.223 OA
ATOM      5  C   UNL     1      -3.207  -0.216  61.914  0.00  0.00    +0.071 C 
ATOM      6  C   UNL     1      -3.028  -1.329  60.775  0.00  0.00    +0.006 C 
ATOM      7  C   UNL     1      -4.809  -0.655  62.238  0.00  0.00    +0.171 C 
ATOM      8  C   UNL     1      -4.324  -2.062  62.943  0.00  0.00    +0.047 C 
ATOM      9  O   UNL     1      -4.822   0.257  63.472  0.00  0.00    -0.452 OA
ATOM     10  C   UNL     1      -4.026  -0.187  64.554  0.00  0.00    +0.319 C 
ATOM     11  O   UNL     1      -3.225   0.594  65.194  0.00  0.00    -0.250 OA
ATOM     12  C   UNL     1      -4.823  -1.248  65.095  0.00  0.00    +0.142 C 
ATOM     13  C   UNL     1      -4.268  -1.675  66.585  0.00  0.00    +0.166 C 
ATOM     14  O   UNL     1      -4.007  -0.265  67.093  0.00  0.00    -0.222 OA
ATOM     15  C   UNL     1      -5.803  -1.827  67.174  0.00  0.00    +0.066 C 
ATOM     16  C   UNL     1      -6.106  -0.386  67.896  0.00  0.00    +0.157 C 
ATOM     17  O   UNL     1      -7.182  -0.065  66.867  0.00  0.00    -0.223 OA
ATOM     18  C   UNL     1      -7.238  -0.943  68.948  0.00  0.00    +0.066 C 
ATOM     19  C   UNL     1      -6.571  -0.683  70.434  0.00  0.00    +0.155 C 
ATOM     20  O   UNL     1      -5.856   0.591  70.033  0.00  0.00    -0.223 OA
ATOM     21  C   UNL     1      -7.815   0.176  71.084  0.00  0.00    +0.036 C 
ATOM     22  C   UNL     1      -8.107   1.350  70.892  0.00  0.00    +0.038 C 
ATOM     23  C   UNL     1      -7.704   2.880  71.049  0.00  0.00    +0.183 C 
ATOM     24  O   UNL     1      -7.256   2.964  69.600  0.00  0.00    -0.220 OA
ATOM     25  C   UNL     1      -9.270   3.443  70.565  0.00  0.00    +0.189 C 
ATOM     26  O   UNL     1     -10.037   2.484  71.439  0.00  0.00    -0.220 OA
ATOM     27  C   UNL     1      -9.262   4.595  71.719  0.00  0.00    +0.100 C 
ATOM     28  C   UNL     1      -8.824   5.854  71.111  0.00  0.00    +0.156 C 
ATOM     29  O   UNL     1      -7.716   6.132  71.378  0.00  0.00    -0.296 OA
ATOM     30  C   UNL     1      -9.787   7.006  71.118  0.00  0.00    +0.098 C 
ATOM     31  C   UNL     1     -10.390   7.014  69.593  0.00  0.00    +0.172 C 
ATOM     32  O   UNL     1     -11.815   7.293  70.009  0.00  0.00    -0.222 OA
ATOM     33  C   UNL     1     -10.180   8.672  69.250  0.00  0.00    +0.164 C 
ATOM     34  C   UNL     1      -8.487   8.552  69.309  0.00  0.00    +0.168 C 
ATOM     35  O   UNL     1      -8.454   7.713  68.053  0.00  0.00    -0.222 OA
ATOM     36  C   UNL     1      -8.251   9.941  68.474  0.00  0.00    +0.068 C 
ATOM     37  C   UNL     1      -9.448   9.889  67.345  0.00  0.00    +0.142 C 
ATOM     38  C   UNL     1      -8.401  10.029  66.111  0.00  0.00    +0.003 C 
ATOM     39  C   UNL     1      -8.826   9.115  65.272  0.00  0.00    -0.002 C 
ATOM     40  C   UNL     1      -8.835   9.312  63.808  0.00  0.00    -0.000 C 
ATOM     41  C   UNL     1      -7.687   9.734  63.348  0.00  0.00    -0.000 C 
ATOM     42  C   UNL     1      -7.562  10.022  61.906  0.00  0.00    -0.000 C 
ATOM     43  C   UNL     1      -8.232   9.246  61.094  0.00  0.00    -0.000 C 
ATOM     44  C   UNL     1      -7.476   8.767  59.914  0.00  0.00    -0.005 C 
ATOM     45  C   UNL     1      -6.448   8.010  60.316  0.00  0.00    -0.026 C 
ATOM     46  C   UNL     1      -6.618   6.585  59.932  0.00  0.00    +0.031 C 
ATOM     47  C   UNL     1      -5.289   6.177  59.310  0.00  0.00    +0.031 C 
ATOM     48  C   UNL     1      -4.685   5.172  60.255  0.00  0.00    -0.026 C 
ATOM     49  C   UNL     1      -5.480   4.224  60.594  0.00  0.00    -0.005 C 
ATOM     50  C   UNL     1      -5.034   3.222  59.567  0.00  0.00    -0.005 C 
ATOM     51  C   UNL     1      -5.384   2.260  60.039  0.00  0.00    -0.024 C 
ENDROOT
BRANCH  33  52
ATOM     52  C   UNL     1     -10.453   9.263  70.684  0.00  0.00    +0.369 C 
ATOM     53  O   UNL     1     -11.513  10.180  70.618  0.00  0.00    -0.245 OA
ATOM     54  O   UNL     1      -9.536   9.513  71.460  0.00  0.00    -0.245 OA
ENDBRANCH  33  52
BRANCH  37  55
ATOM     55  O   UNL     1      -9.690  11.390  67.426  0.00  0.00    -0.327 OA
BRANCH  55  56
ATOM     56  C   UNL     1     -11.171  11.247  67.130  0.00  0.00    +0.268 C 
ATOM     57  C   UNL     1     -11.710  12.806  67.606  0.00  0.00    +0.228 C 
ATOM     58  O   UNL     1     -10.902  12.786  68.890  0.00  0.00    -0.216 OA
ATOM     59  C   UNL     1     -10.707  13.977  66.934  0.00  0.00    +0.160 C 
ATOM     60  N   UNL     1      -9.293  13.389  67.144  0.00  0.00    -0.127 NA
ATOM     61  C   UNL     1     -10.782  13.573  65.288  0.00  0.00    +0.199 C 
ATOM     62  O   UNL     1     -11.692  14.727  64.991  0.00  0.00    -0.219 OA
ATOM     63  C   UNL     1     -12.106  12.504  65.430  0.00  0.00    +0.150 C 
ATOM     64  C   UNL     1     -12.116  12.241  63.810  0.00  0.00    +0.035 C 
ATOM     65  O   UNL     1     -11.028  11.476  65.637  0.00  0.00    -0.328 OA
ENDBRANCH  55  56
ENDBRANCH  37  55
TORSDOF 3
ENDMDL
MODEL 2
REMARK VINA RESULT:      -5.6      1.840      3.045
REMARK  Name = 
REMARK  3 active torsions:
REMARK  status: ('A' for Active; 'I' for Inactive)
REMARK    1  A    between atoms: C_17  and  O_18
REMARK    2  A    between atoms: O_18  and  C_19
REMARK    3  A    between atoms: C_32  and  C_33
REMARK                            x       y       z     vdW  Elec       q    Type
REMARK                         _______ _______ _______ _____ _____    ______ ____
ROOT
ATOM      1  C   UNL     1      -4.197  -0.491  63.130  0.00  0.00    +0.007 C 
ATOM      2  C   UNL     1      -4.810   0.430  64.328  0.00  0.00    +0.053 C 
ATOM      3  C   UNL     1      -3.244   0.834  64.843  0.00  0.00    +0.159 C 
ATOM      4  O   UNL     1      -3.719   2.063  65.566  0.00  0.00    -0.223 OA
ATOM      5  C   UNL     1      -3.192  -0.054  66.277  0.00  0.00    +0.071 C 
ATOM      6  C   UNL     1      -2.833  -1.444  65.563  0.00  0.00    +0.006 C 
ATOM      7  C   UNL     1      -4.831  -0.441  66.438  0.00  0.00    +0.171 C 
ATOM      8  C   UNL     1      -4.496  -1.562  67.596  0.00  0.00    +0.047 C 
ATOM      9  O   UNL     1      -5.046   0.790  67.329  0.00  0.00    -0.452 OA
ATOM     10  C   UNL     1      -4.457   0.711  68.613  0.00  0.00    +0.319 C 
ATOM     11  O   UNL     1      -3.769   1.674  69.122  0.00  0.00    -0.250 OA
ATOM     12  C   UNL     1      -5.351  -0.176  69.297  0.00  0.00    +0.142 C 
ATOM     13  C   UNL     1      -5.069  -0.129  70.918  0.00  0.00    +0.166 C 
ATOM     14  O   UNL     1      -4.881   1.377  71.027  0.00  0.00    -0.222 OA
ATOM     15  C   UNL     1      -6.685  -0.161  71.255  0.00  0.00    +0.066 C 
ATOM     16  C   UNL     1      -7.089   1.415  71.460  0.00  0.00    +0.157 C 
ATOM     17  O   UNL     1      -7.965   1.382  70.214  0.00  0.00    -0.223 OA
ATOM     18  C   UNL     1      -8.395   1.146  72.420  0.00  0.00    +0.066 C 
ATOM     19  C   UNL     1      -7.993   1.854  73.856  0.00  0.00    +0.155 C 
ATOM     20  O   UNL     1      -7.202   2.981  73.227  0.00  0.00    -0.223 OA
ATOM     21  C   UNL     1      -9.319   2.816  74.003  0.00  0.00    +0.036 C 
ATOM     22  C   UNL     1      -9.557   3.872  73.428  0.00  0.00    +0.038 C 
ATOM     23  C   UNL     1      -9.166   5.395  73.195  0.00  0.00    +0.183 C 
ATOM     24  O   UNL     1      -8.472   5.071  71.885  0.00  0.00    -0.220 OA
ATOM     25  C   UNL     1     -10.616   5.733  72.308  0.00  0.00    +0.189 C 
ATOM     26  O   UNL     1     -11.537   5.042  73.281  0.00  0.00    -0.220 OA
ATOM     27  C   UNL     1     -10.793   7.170  73.057  0.00  0.00    +0.100 C 
ATOM     28  C   UNL     1     -10.238   8.213  72.191  0.00  0.00    +0.156 C 
ATOM     29  O   UNL     1      -9.190   8.599  72.549  0.00  0.00    -0.296 OA
ATOM     30  C   UNL     1     -11.171   9.281  71.695  0.00  0.00    +0.098 C 
ATOM     31  C   UNL     1     -11.500   8.821  70.156  0.00  0.00    +0.172 C 
ATOM     32  O   UNL     1     -12.972   9.155  70.222  0.00  0.00    -0.222 OA
ATOM     33  C   UNL     1     -11.211  10.314  69.382  0.00  0.00    +0.164 C 
ATOM     34  C   UNL     1      -9.555  10.280  69.762  0.00  0.00    +0.168 C 
ATOM     35  O   UNL     1      -9.316   9.114  68.832  0.00  0.00    -0.222 OA
ATOM     36  C   UNL     1      -9.158  11.374  68.608  0.00  0.00    +0.068 C 
ATOM     37  C   UNL     1     -10.141  10.951  67.358  0.00  0.00    +0.142 C 
ATOM     38  C   UNL     1      -8.893  10.764  66.334  0.00  0.00    +0.003 C 
ATOM     39  C   UNL     1      -9.178   9.630  65.741  0.00  0.00    -0.002 C 
ATOM     40  C   UNL     1      -8.930   9.391  64.304  0.00  0.00    -0.000 C 
ATOM     41  C   UNL     1      -7.713   9.704  63.944  0.00  0.00    -0.000 C 
ATOM     42  C   UNL     1      -7.336   9.565  62.524  0.00  0.00    -0.000 C 
ATOM     43  C   UNL     1      -7.865   8.561  61.873  0.00  0.00    -0.000 C 
ATOM     44  C   UNL     1      -6.922   7.788  61.032  0.00  0.00    -0.005 C 
ATOM     45  C   UNL     1      -5.990   7.221  61.808  0.00  0.00    -0.026 C 
ATOM     46  C   UNL     1      -6.110   5.740  61.836  0.00  0.00    +0.031 C 
ATOM     47  C   UNL     1      -4.699   5.219  61.597  0.00  0.00    +0.031 C 
ATOM     48  C   UNL     1      -4.283   4.556  62.884  0.00  0.00    -0.026 C 
ATOM     49  C   UNL     1      -5.138   3.720  63.346  0.00  0.00    -0.005 C 
ATOM     50  C   UNL     1      -4.534   2.479  62.749  0.00  0.00    -0.005 C 
ATOM     51  C   UNL     1      -4.975   1.683  63.416  0.00  0.00    -0.024 C 
ENDROOT
BRANCH  33  52
ATOM     52  C   UNL     1     -11.720  11.286  70.511  0.00  0.00    +0.369 C 
ATOM     53  O   UNL     1     -13.050  10.973  70.833  0.00  0.00    -0.245 OA
ATOM     54  O   UNL     1     -11.396  12.469  70.534  0.00  0.00    -0.245 OA
ENDBRANCH  33  52
BRANCH  37  55
ATOM     55  O   UNL     1     -10.372  12.399  66.952  0.00  0.00    -0.327 OA
BRANCH  55  56
ATOM     56  C   UNL     1     -11.861  12.189  66.755  0.00  0.00    +0.268 C 
ATOM     57  C   UNL     1     -12.376  13.826  66.687  0.00  0.00    +0.228 C 
ATOM     58  O   UNL     1     -11.534  14.228  67.883  0.00  0.00    -0.216 OA
ATOM     59  C   UNL     1     -11.381  14.683  65.636  0.00  0.00    +0.160 C 
ATOM     60  N   UNL     1      -9.967  14.178  66.001  0.00  0.00    -0.127 NA
ATOM     61  C   UNL     1     -11.503  13.748  64.226  0.00  0.00    +0.199 C 
ATOM     62  O   UNL     1     -12.412  14.748  63.576  0.00  0.00    -0.219 OA
ATOM     63  C   UNL     1     -12.831  12.812  64.752  0.00  0.00    +0.150 C 
ATOM     64  C   UNL     1     -12.886  12.016  63.317  0.00  0.00    +0.035 C 
ATOM     65  O   UNL     1     -11.757  11.897  65.271  0.00  0.00    -0.328 OA
ENDBRANCH  55  56
ENDBRANCH  37  55
TORSDOF 3
ENDMDL
MODEL 3
REMARK VINA RESULT:      -5.4      1.821      2.796
REMARK  Name = 
REMARK  3 active torsions:
REMARK  status: ('A' for Active; 'I' for Inactive)
REMARK    1  A    between atoms: C_17  and  O_18
REMARK    2  A    between atoms: O_18  and  C_19
REMARK    3  A    between atoms: C_32  and  C_33
REMARK                            x       y       z     vdW  Elec       q    Type
REMARK                         _______ _______ _______ _____ _____    ______ ____
ROOT
ATOM      1  C   UNL     1      -6.406  -0.097  61.537  0.00  0.00    +0.007 C 
ATOM      2  C   UNL     1      -6.810   0.766  62.861  0.00  0.00    +0.053 C 
ATOM      3  C   UNL     1      -5.175   0.897  63.298  0.00  0.00    +0.159 C 
ATOM      4  O   UNL     1      -5.427   2.093  64.170  0.00  0.00    -0.223 OA
ATOM      5  C   UNL     1      -5.166  -0.139  64.631  0.00  0.00    +0.071 C 
ATOM      6  C   UNL     1      -5.050  -1.480  63.760  0.00  0.00    +0.006 C 
ATOM      7  C   UNL     1      -6.832  -0.315  64.872  0.00  0.00    +0.171 C 
ATOM      8  C   UNL     1      -6.592  -1.589  65.887  0.00  0.00    +0.047 C 
ATOM      9  O   UNL     1      -6.817   0.832  65.892  0.00  0.00    -0.452 OA
ATOM     10  C   UNL     1      -6.172   0.537  67.116  0.00  0.00    +0.319 C 
ATOM     11  O   UNL     1      -5.325   1.338  67.666  0.00  0.00    -0.250 OA
ATOM     12  C   UNL     1      -7.140  -0.289  67.773  0.00  0.00    +0.142 C 
ATOM     13  C   UNL     1      -6.762  -0.455  69.367  0.00  0.00    +0.166 C 
ATOM     14  O   UNL     1      -6.355   0.991  69.608  0.00  0.00    -0.222 OA
ATOM     15  C   UNL     1      -8.343  -0.304  69.815  0.00  0.00    +0.066 C 
ATOM     16  C   UNL     1      -8.507   1.282  70.202  0.00  0.00    +0.157 C 
ATOM     17  O   UNL     1      -9.449   1.501  69.026  0.00  0.00    -0.223 OA
ATOM     18  C   UNL     1      -9.779   1.091  71.224  0.00  0.00    +0.066 C 
ATOM     19  C   UNL     1      -9.198   1.580  72.688  0.00  0.00    +0.155 C 
ATOM     20  O   UNL     1      -8.292   2.650  72.117  0.00  0.00    -0.223 OA
ATOM     21  C   UNL     1     -10.362   2.691  73.025  0.00  0.00    +0.036 C 
ATOM     22  C   UNL     1     -10.481   3.825  72.575  0.00  0.00    +0.038 C 
ATOM     23  C   UNL     1      -9.892   5.298  72.464  0.00  0.00    +0.183 C 
ATOM     24  O   UNL     1      -9.328   5.024  71.081  0.00  0.00    -0.220 OA
ATOM     25  C   UNL     1     -11.328   5.921  71.722  0.00  0.00    +0.189 C 
ATOM     26  O   UNL     1     -12.280   5.262  72.687  0.00  0.00    -0.220 OA
ATOM     27  C   UNL     1     -11.255   7.281  72.619  0.00  0.00    +0.100 C 
ATOM     28  C   UNL     1     -10.609   8.326  71.821  0.00  0.00    +0.156 C 
ATOM     29  O   UNL     1      -9.498   8.526  72.138  0.00  0.00    -0.296 OA
ATOM     30  C   UNL     1     -11.408   9.557  71.501  0.00  0.00    +0.098 C 
ATOM     31  C   UNL     1     -11.888   9.313  69.952  0.00  0.00    +0.172 C 
ATOM     32  O   UNL     1     -13.291   9.834  70.157  0.00  0.00    -0.222 OA
ATOM     33  C   UNL     1     -11.435  10.827  69.309  0.00  0.00    +0.164 C 
ATOM     34  C   UNL     1      -9.782  10.529  69.562  0.00  0.00    +0.168 C 
ATOM     35  O   UNL     1      -9.766   9.448  68.508  0.00  0.00    -0.222 OA
ATOM     36  C   UNL     1      -9.302  11.676  68.495  0.00  0.00    +0.068 C 
ATOM     37  C   UNL     1     -10.406  11.526  67.284  0.00  0.00    +0.142 C 
ATOM     38  C   UNL     1      -9.259  11.283  66.159  0.00  0.00    +0.003 C 
ATOM     39  C   UNL     1      -9.737  10.268  65.481  0.00  0.00    -0.002 C 
ATOM     40  C   UNL     1      -9.609  10.153  64.013  0.00  0.00    -0.000 C 
ATOM     41  C   UNL     1      -8.383  10.335  63.598  0.00  0.00    -0.000 C 
ATOM     42  C   UNL     1      -8.113  10.298  62.147  0.00  0.00    -0.000 C 
ATOM     43  C   UNL     1      -8.816   9.451  61.442  0.00  0.00    -0.000 C 
ATOM     44  C   UNL     1      -8.043   8.651  60.463  0.00  0.00    -0.005 C 
ATOM     45  C   UNL     1      -7.158   7.883  61.109  0.00  0.00    -0.026 C 
ATOM     46  C   UNL     1      -7.485   6.439  61.001  0.00  0.00    +0.031 C 
ATOM     47  C   UNL     1      -6.179   5.760  60.611  0.00  0.00    +0.031 C 
ATOM     48  C   UNL     1      -5.787   4.913  61.793  0.00  0.00    -0.026 C 
ATOM     49  C   UNL     1      -6.724   4.155  62.232  0.00  0.00    -0.005 C 
ATOM     50  C   UNL     1      -6.338   2.915  61.474  0.00  0.00    -0.005 C 
ATOM     51  C   UNL     1      -6.848   2.120  62.091  0.00  0.00    -0.024 C 
ENDROOT
BRANCH  33  52
ATOM     52  C   UNL     1     -11.735  11.733  70.562  0.00  0.00    +0.369 C 
ATOM     53  O   UNL     1     -12.978  11.377  71.109  0.00  0.00    -0.245 OA
ATOM     54  O   UNL     1     -11.425  12.920  70.585  0.00  0.00    -0.245 OA
ENDBRANCH  33  52
BRANCH  37  55
ATOM     55  O   UNL     1     -10.452  13.027  67.040  0.00  0.00    -0.327 OA
BRANCH  55  56
ATOM     56  C   UNL     1     -11.920  13.000  66.659  0.00  0.00    +0.268 C 
ATOM     57  C   UNL     1     -12.280  14.674  66.782  0.00  0.00    +0.228 C 
ATOM     58  O   UNL     1     -11.554  14.819  68.107  0.00  0.00    -0.216 OA
ATOM     59  C   UNL     1     -11.098  15.563  65.981  0.00  0.00    +0.160 C 
ATOM     60  N   UNL     1      -9.786  14.870  66.413  0.00  0.00    -0.127 NA
ATOM     61  C   UNL     1     -11.132  14.849  64.442  0.00  0.00    +0.199 C 
ATOM     62  O   UNL     1     -11.868  16.017  63.857  0.00  0.00    -0.219 OA
ATOM     63  C   UNL     1     -12.589  13.990  64.681  0.00  0.00    +0.150 C 
ATOM     64  C   UNL     1     -12.543  13.411  63.146  0.00  0.00    +0.035 C 
ATOM     65  O   UNL     1     -11.666  12.907  65.167  0.00  0.00    -0.328 OA
ENDBRANCH  55  56
ENDBRANCH  37  55
TORSDOF 3
ENDMDL
MODEL 4
REMARK VINA RESULT:      -5.2      3.275      9.821
REMARK  Name = 
REMARK  3 active torsions:
REMARK  status: ('A' for Active; 'I' for Inactive)
REMARK    1  A    between atoms: C_17  and  O_18
REMARK    2  A    between atoms: O_18  and  C_19
REMARK    3  A    between atoms: C_32  and  C_33
REMARK                            x       y       z     vdW  Elec       q    Type
REMARK                         _______ _______ _______ _____ _____    ______ ____
ROOT
ATOM      1  C   UNL     1      -9.361   6.136  76.204  0.00  0.00    +0.007 C 
ATOM      2  C   UNL     1      -8.884   5.443  74.807  0.00  0.00    +0.053 C 
ATOM      3  C   UNL     1     -10.361   4.615  74.692  0.00  0.00    +0.159 C 
ATOM      4  O   UNL     1     -10.209   4.398  73.213  0.00  0.00    -0.223 OA
ATOM      5  C   UNL     1      -9.825   3.051  75.030  0.00  0.00    +0.071 C 
ATOM      6  C   UNL     1      -9.813   3.253  76.620  0.00  0.00    +0.006 C 
ATOM      7  C   UNL     1      -8.154   3.281  74.884  0.00  0.00    +0.171 C 
ATOM      8  C   UNL     1      -7.850   1.830  75.602  0.00  0.00    +0.047 C 
ATOM      9  O   UNL     1      -8.209   2.834  73.417  0.00  0.00    -0.452 OA
ATOM     10  C   UNL     1      -8.473   1.458  73.219  0.00  0.00    +0.319 C 
ATOM     11  O   UNL     1      -9.339   1.033  72.365  0.00  0.00    -0.250 OA
ATOM     12  C   UNL     1      -7.214   0.861  73.552  0.00  0.00    +0.142 C 
ATOM     13  C   UNL     1      -7.174  -0.705  73.045  0.00  0.00    +0.166 C 
ATOM     14  O   UNL     1      -7.846  -0.478  71.699  0.00  0.00    -0.222 OA
ATOM     15  C   UNL     1      -5.614  -0.555  72.527  0.00  0.00    +0.066 C 
ATOM     16  C   UNL     1      -5.747  -0.226  70.925  0.00  0.00    +0.157 C 
ATOM     17  O   UNL     1      -5.173   1.169  71.135  0.00  0.00    -0.223 OA
ATOM     18  C   UNL     1      -4.269  -0.801  70.497  0.00  0.00    +0.066 C 
ATOM     19  C   UNL     1      -4.604  -2.062  69.487  0.00  0.00    +0.155 C 
ATOM     20  O   UNL     1      -5.842  -1.425  68.891  0.00  0.00    -0.223 OA
ATOM     21  C   UNL     1      -3.690  -1.569  68.212  0.00  0.00    +0.036 C 
ATOM     22  C   UNL     1      -3.948  -0.702  67.385  0.00  0.00    +0.038 C 
ATOM     23  C   UNL     1      -4.877  -0.213  66.192  0.00  0.00    +0.183 C 
ATOM     24  O   UNL     1      -5.657   0.712  67.109  0.00  0.00    -0.220 OA
ATOM     25  C   UNL     1      -3.835   1.112  65.792  0.00  0.00    +0.189 C 
ATOM     26  O   UNL     1      -2.562   0.306  65.844  0.00  0.00    -0.220 OA
ATOM     27  C   UNL     1      -4.024   0.837  64.196  0.00  0.00    +0.100 C 
ATOM     28  C   UNL     1      -5.060   1.740  63.692  0.00  0.00    +0.156 C 
ATOM     29  O   UNL     1      -6.087   1.203  63.506  0.00  0.00    -0.296 OA
ATOM     30  C   UNL     1      -4.668   2.739  62.641  0.00  0.00    +0.098 C 
ATOM     31  C   UNL     1      -4.507   4.139  63.482  0.00  0.00    +0.172 C 
ATOM     32  O   UNL     1      -3.258   4.590  62.762  0.00  0.00    -0.222 OA
ATOM     33  C   UNL     1      -5.438   5.148  62.468  0.00  0.00    +0.164 C 
ATOM     34  C   UNL     1      -6.872   4.308  62.818  0.00  0.00    +0.168 C 
ATOM     35  O   UNL     1      -6.870   4.800  64.246  0.00  0.00    -0.222 OA
ATOM     36  C   UNL     1      -7.838   5.535  62.321  0.00  0.00    +0.068 C 
ATOM     37  C   UNL     1      -7.032   6.866  62.856  0.00  0.00    +0.142 C 
ATOM     38  C   UNL     1      -8.313   7.401  63.702  0.00  0.00    +0.003 C 
ATOM     39  C   UNL     1      -7.774   7.743  64.847  0.00  0.00    -0.002 C 
ATOM     40  C   UNL     1      -8.199   8.936  65.609  0.00  0.00    -0.000 C 
ATOM     41  C   UNL     1      -9.493   8.995  65.774  0.00  0.00    -0.000 C 
ATOM     42  C   UNL     1     -10.068  10.160  66.475  0.00  0.00    -0.000 C 
ATOM     43  C   UNL     1      -9.361  10.659  67.456  0.00  0.00    -0.000 C 
ATOM     44  C   UNL     1     -10.123  10.964  68.689  0.00  0.00    -0.005 C 
ATOM     45  C   UNL     1     -10.633   9.834  69.194  0.00  0.00    -0.026 C 
ATOM     46  C   UNL     1     -10.006   9.468  70.490  0.00  0.00    +0.031 C 
ATOM     47  C   UNL     1     -11.168   9.146  71.420  0.00  0.00    +0.031 C 
ATOM     48  C   UNL     1     -11.072   7.670  71.702  0.00  0.00    -0.026 C 
ATOM     49  C   UNL     1      -9.909   7.279  72.074  0.00  0.00    -0.005 C 
ATOM     50  C   UNL     1     -10.151   7.339  73.556  0.00  0.00    -0.005 C 
ATOM     51  C   UNL     1      -9.342   6.650  73.934  0.00  0.00    -0.024 C 
ENDROOT
BRANCH  33  52
ATOM     52  C   UNL     1      -5.086   4.500  61.076  0.00  0.00    +0.369 C 
ATOM     53  O   UNL     1      -4.228   5.355  60.367  0.00  0.00    -0.245 OA
ATOM     54  O   UNL     1      -5.920   3.873  60.431  0.00  0.00    -0.245 OA
ENDBRANCH  33  52
BRANCH  37  55
ATOM     55  O   UNL     1      -7.399   7.676  61.620  0.00  0.00    -0.327 OA
BRANCH  55  56
ATOM     56  C   UNL     1      -5.954   8.038  61.333  0.00  0.00    +0.268 C 
ATOM     57  C   UNL     1      -6.176   9.013  59.936  0.00  0.00    +0.228 C 
ATOM     58  O   UNL     1      -7.145   8.032  59.303  0.00  0.00    -0.216 OA
ATOM     59  C   UNL     1      -7.406  10.124  60.217  0.00  0.00    +0.160 C 
ATOM     60  N   UNL     1      -8.487   9.279  60.929  0.00  0.00    -0.127 NA
ATOM     61  C   UNL     1      -6.859  10.875  61.637  0.00  0.00    +0.199 C 
ATOM     62  O   UNL     1      -6.436  12.104  60.888  0.00  0.00    -0.219 OA
ATOM     63  C   UNL     1      -5.277  10.235  61.572  0.00  0.00    +0.150 C 
ATOM     64  C   UNL     1      -4.847  11.062  62.924  0.00  0.00    +0.035 C 
ATOM     65  O   UNL     1      -5.881   9.126  62.388  0.00  0.00    -0.328 OA
ENDBRANCH  55  56
ENDBRANCH  37  55
TORSDOF 3
ENDMDL
MODEL 5
REMARK VINA RESULT:      -5.1      2.511      8.536
REMARK  Name = 
REMARK  3 active torsions:
REMARK  status: ('A' for Active; 'I' for Inactive)
REMARK    1  A    between atoms: C_17  and  O_18
REMARK    2  A    between atoms: O_18  and  C_19
REMARK    3  A    between atoms: C_32  and  C_33
REMARK                            x       y       z     vdW  Elec       q    Type
REMARK                         _______ _______ _______ _____ _____    ______ ____
ROOT
ATOM      1  C   UNL     1      -5.258   0.651  74.379  0.00  0.00    +0.007 C 
ATOM      2  C   UNL     1      -5.322   1.242  72.860  0.00  0.00    +0.053 C 
ATOM      3  C   UNL     1      -6.492   0.087  72.440  0.00  0.00    +0.159 C 
ATOM      4  O   UNL     1      -6.973   0.892  71.266  0.00  0.00    -0.223 OA
ATOM      5  C   UNL     1      -5.554  -0.901  71.444  0.00  0.00    +0.071 C 
ATOM      6  C   UNL     1      -4.878  -1.709  72.653  0.00  0.00    +0.006 C 
ATOM      7  C   UNL     1      -4.209   0.102  71.225  0.00  0.00    +0.171 C 
ATOM      8  C   UNL     1      -3.329  -1.144  70.605  0.00  0.00    +0.047 C 
ATOM      9  O   UNL     1      -4.818   0.654  69.929  0.00  0.00    -0.452 OA
ATOM     10  C   UNL     1      -4.856  -0.258  68.848  0.00  0.00    +0.319 C 
ATOM     11  O   UNL     1      -5.904  -0.427  68.117  0.00  0.00    -0.250 OA
ATOM     12  C   UNL     1      -3.488  -0.274  68.422  0.00  0.00    +0.142 C 
ATOM     13  C   UNL     1      -3.358  -0.988  66.945  0.00  0.00    +0.166 C 
ATOM     14  O   UNL     1      -4.589  -0.345  66.323  0.00  0.00    -0.222 OA
ATOM     15  C   UNL     1      -2.259   0.134  66.437  0.00  0.00    +0.066 C 
ATOM     16  C   UNL     1      -3.154   1.242  65.625  0.00  0.00    +0.157 C 
ATOM     17  O   UNL     1      -2.846   2.303  66.674  0.00  0.00    -0.223 OA
ATOM     18  C   UNL     1      -1.939   1.795  64.668  0.00  0.00    +0.066 C 
ATOM     19  C   UNL     1      -2.422   1.408  63.139  0.00  0.00    +0.155 C 
ATOM     20  O   UNL     1      -3.897   1.616  63.413  0.00  0.00    -0.223 OA
ATOM     21  C   UNL     1      -2.293   2.911  62.483  0.00  0.00    +0.036 C 
ATOM     22  C   UNL     1      -3.063   3.858  62.601  0.00  0.00    +0.038 C 
ATOM     23  C   UNL     1      -4.504   4.464  62.314  0.00  0.00    +0.183 C 
ATOM     24  O   UNL     1      -4.965   4.173  63.731  0.00  0.00    -0.220 OA
ATOM     25  C   UNL     1      -4.044   6.055  62.824  0.00  0.00    +0.189 C 
ATOM     26  O   UNL     1      -2.746   6.075  62.057  0.00  0.00    -0.220 OA
ATOM     27  C   UNL     1      -4.862   6.736  61.589  0.00  0.00    +0.100 C 
ATOM     28  C   UNL     1      -6.175   7.158  62.083  0.00  0.00    +0.156 C 
ATOM     29  O   UNL     1      -7.043   6.443  61.747  0.00  0.00    -0.296 OA
ATOM     30  C   UNL     1      -6.505   8.622  62.033  0.00  0.00    +0.098 C 
ATOM     31  C   UNL     1      -6.276   9.121  63.579  0.00  0.00    +0.172 C 
ATOM     32  O   UNL     1      -5.599  10.419  63.207  0.00  0.00    -0.222 OA
ATOM     33  C   UNL     1      -7.745   9.963  63.789  0.00  0.00    +0.164 C 
ATOM     34  C   UNL     1      -8.669   8.544  63.664  0.00  0.00    +0.168 C 
ATOM     35  O   UNL     1      -8.132   8.020  64.976  0.00  0.00    -0.222 OA
ATOM     36  C   UNL     1      -9.982   9.207  64.384  0.00  0.00    +0.068 C 
ATOM     37  C   UNL     1      -9.314  10.138  65.565  0.00  0.00    +0.142 C 
ATOM     38  C   UNL     1     -10.164   9.402  66.739  0.00  0.00    +0.003 C 
ATOM     39  C   UNL     1      -9.254   9.193  67.660  0.00  0.00    -0.002 C 
ATOM     40  C   UNL     1      -9.530   9.334  69.105  0.00  0.00    -0.000 C 
ATOM     41  C   UNL     1     -10.597   8.681  69.481  0.00  0.00    -0.000 C 
ATOM     42  C   UNL     1     -11.024   8.771  70.891  0.00  0.00    -0.000 C 
ATOM     43  C   UNL     1     -10.074   8.840  71.787  0.00  0.00    -0.000 C 
ATOM     44  C   UNL     1     -10.253   7.960  72.965  0.00  0.00    -0.005 C 
ATOM     45  C   UNL     1     -10.241   6.680  72.575  0.00  0.00    -0.026 C 
ATOM     46  C   UNL     1      -9.044   5.954  73.070  0.00  0.00    +0.031 C 
ATOM     47  C   UNL     1      -9.577   4.656  73.660  0.00  0.00    +0.031 C 
ATOM     48  C   UNL     1      -9.066   3.557  72.766  0.00  0.00    -0.026 C 
ATOM     49  C   UNL     1      -7.807   3.611  72.533  0.00  0.00    -0.005 C 
ATOM     50  C   UNL     1      -7.371   2.658  73.611  0.00  0.00    -0.005 C 
ATOM     51  C   UNL     1      -6.356   2.349  73.226  0.00  0.00    -0.024 C 
ENDROOT
BRANCH  33  52
ATOM     52  C   UNL     1      -7.925  10.524  62.329  0.00  0.00    +0.369 C 
ATOM     53  O   UNL     1      -7.746  11.917  62.338  0.00  0.00    -0.245 OA
ATOM     54  O   UNL     1      -8.770  10.067  61.566  0.00  0.00    -0.245 OA
ENDBRANCH  33  52
BRANCH  37  55
ATOM     55  O   UNL     1     -10.349  11.239  65.385  0.00  0.00    -0.327 OA
BRANCH  55  56
ATOM     56  C   UNL     1      -9.309  12.339  65.476  0.00  0.00    +0.268 C 
ATOM     57  C   UNL     1     -10.200  13.635  64.786  0.00  0.00    +0.228 C 
ATOM     58  O   UNL     1     -10.711  12.783  63.639  0.00  0.00    -0.216 OA
ATOM     59  C   UNL     1     -11.728  13.699  65.485  0.00  0.00    +0.160 C 
ATOM     60  N   UNL     1     -12.154  12.215  65.536  0.00  0.00    -0.127 NA
ATOM     61  C   UNL     1     -11.336  13.788  67.133  0.00  0.00    +0.199 C 
ATOM     62  O   UNL     1     -11.666  15.250  67.188  0.00  0.00    -0.219 OA
ATOM     63  C   UNL     1      -9.678  14.123  66.900  0.00  0.00    +0.150 C 
ATOM     64  C   UNL     1      -9.436  14.244  68.519  0.00  0.00    +0.035 C 
ATOM     65  O   UNL     1      -9.549  12.625  66.946  0.00  0.00    -0.328 OA
ENDBRANCH  55  56
ENDBRANCH  37  55
TORSDOF 3
ENDMDL
MODEL 6
REMARK VINA RESULT:      -5.1      5.135      6.937
REMARK  Name = 
REMARK  3 active torsions:
REMARK  status: ('A' for Active; 'I' for Inactive)
REMARK    1  A    between atoms: C_17  and  O_18
REMARK    2  A    between atoms: O_18  and  C_19
REMARK    3  A    between atoms: C_32  and  C_33
REMARK                            x       y       z     vdW  Elec       q    Type
REMARK                         _______ _______ _______ _____ _____    ______ ____
ROOT
ATOM      1  C   UNL     1      -9.127   1.655  63.484  0.00  0.00    +0.007 C 
ATOM      2  C   UNL     1      -8.831   2.022  65.045  0.00  0.00    +0.053 C 
ATOM      3  C   UNL     1      -7.503   0.966  65.061  0.00  0.00    +0.159 C 
ATOM      4  O   UNL     1      -6.884   1.645  66.250  0.00  0.00    -0.223 OA
ATOM      5  C   UNL     1      -8.142  -0.261  66.027  0.00  0.00    +0.071 C 
ATOM      6  C   UNL     1      -8.958  -0.959  64.837  0.00  0.00    +0.006 C 
ATOM      7  C   UNL     1      -9.506   0.533  66.638  0.00  0.00    +0.171 C 
ATOM      8  C   UNL     1     -10.137  -0.885  67.187  0.00  0.00    +0.047 C 
ATOM      9  O   UNL     1      -8.716   0.960  67.882  0.00  0.00    -0.452 OA
ATOM     10  C   UNL     1      -8.392  -0.088  68.775  0.00  0.00    +0.319 C 
ATOM     11  O   UNL     1      -7.214  -0.236  69.276  0.00  0.00    -0.250 OA
ATOM     12  C   UNL     1      -9.648  -0.328  69.422  0.00  0.00    +0.142 C 
ATOM     13  C   UNL     1      -9.430  -1.259  70.762  0.00  0.00    +0.166 C 
ATOM     14  O   UNL     1      -8.168  -0.572  71.259  0.00  0.00    -0.222 OA
ATOM     15  C   UNL     1     -10.511  -0.361  71.629  0.00  0.00    +0.066 C 
ATOM     16  C   UNL     1      -9.582   0.716  72.445  0.00  0.00    +0.157 C 
ATOM     17  O   UNL     1     -10.178   1.873  71.654  0.00  0.00    -0.223 OA
ATOM     18  C   UNL     1     -10.640   0.975  73.675  0.00  0.00    +0.066 C 
ATOM     19  C   UNL     1      -9.843   0.431  75.014  0.00  0.00    +0.155 C 
ATOM     20  O   UNL     1      -8.472   0.851  74.527  0.00  0.00    -0.223 OA
ATOM     21  C   UNL     1      -9.981   1.797  75.920  0.00  0.00    +0.036 C 
ATOM     22  C   UNL     1      -9.337   2.836  75.828  0.00  0.00    +0.038 C 
ATOM     23  C   UNL     1      -7.928   3.562  75.957  0.00  0.00    +0.183 C 
ATOM     24  O   UNL     1      -7.719   3.535  74.453  0.00  0.00    -0.220 OA
ATOM     25  C   UNL     1      -8.619   5.143  75.802  0.00  0.00    +0.189 C 
ATOM     26  O   UNL     1      -9.745   4.897  76.774  0.00  0.00    -0.220 OA
ATOM     27  C   UNL     1      -7.647   5.731  76.972  0.00  0.00    +0.100 C 
ATOM     28  C   UNL     1      -6.495   6.372  76.336  0.00  0.00    +0.156 C 
ATOM     29  O   UNL     1      -5.519   5.725  76.394  0.00  0.00    -0.296 OA
ATOM     30  C   UNL     1      -6.296   7.843  76.567  0.00  0.00    +0.098 C 
ATOM     31  C   UNL     1      -6.857   8.530  75.187  0.00  0.00    +0.172 C 
ATOM     32  O   UNL     1      -7.567   9.671  75.878  0.00  0.00    -0.222 OA
ATOM     33  C   UNL     1      -5.537   9.563  74.868  0.00  0.00    +0.164 C 
ATOM     34  C   UNL     1      -4.482   8.260  74.597  0.00  0.00    +0.168 C 
ATOM     35  O   UNL     1      -5.207   7.872  73.330  0.00  0.00    -0.222 OA
ATOM     36  C   UNL     1      -3.394   9.172  73.780  0.00  0.00    +0.068 C 
ATOM     37  C   UNL     1      -4.355  10.178  72.901  0.00  0.00    +0.142 C 
ATOM     38  C   UNL     1      -3.679   9.726  71.494  0.00  0.00    +0.003 C 
ATOM     39  C   UNL     1      -4.724   9.547  70.722  0.00  0.00    -0.002 C 
ATOM     40  C   UNL     1      -4.741   9.927  69.294  0.00  0.00    -0.000 C 
ATOM     41  C   UNL     1      -3.708   9.468  68.637  0.00  0.00    -0.000 C 
ATOM     42  C   UNL     1      -3.566   9.811  67.208  0.00  0.00    -0.000 C 
ATOM     43  C   UNL     1      -4.671   9.896  66.514  0.00  0.00    -0.000 C 
ATOM     44  C   UNL     1      -4.639   9.223  65.195  0.00  0.00    -0.005 C 
ATOM     45  C   UNL     1      -4.460   7.908  65.365  0.00  0.00    -0.026 C 
ATOM     46  C   UNL     1      -5.659   7.124  64.972  0.00  0.00    +0.031 C 
ATOM     47  C   UNL     1      -5.131   5.999  64.093  0.00  0.00    +0.031 C 
ATOM     48  C   UNL     1      -5.363   4.729  64.870  0.00  0.00    -0.026 C 
ATOM     49  C   UNL     1      -6.555   4.598  65.323  0.00  0.00    -0.005 C 
ATOM     50  C   UNL     1      -7.099   3.766  64.194  0.00  0.00    -0.005 C 
ATOM     51  C   UNL     1      -7.989   3.286  64.692  0.00  0.00    -0.024 C 
ENDROOT
BRANCH  33  52
ATOM     52  C   UNL     1      -5.136   9.924  76.347  0.00  0.00    +0.369 C 
ATOM     53  O   UNL     1      -5.453  11.267  76.603  0.00  0.00    -0.245 OA
ATOM     54  O   UNL     1      -4.118   9.474  76.863  0.00  0.00    -0.245 OA
ENDBRANCH  33  52
BRANCH  37  55
ATOM     55  O   UNL     1      -3.409  11.358  73.078  0.00  0.00    -0.327 OA
BRANCH  55  56
ATOM     56  C   UNL     1      -4.529  12.297  73.481  0.00  0.00    +0.268 C 
ATOM     57  C   UNL     1      -3.607  13.690  73.879  0.00  0.00    +0.228 C 
ATOM     58  O   UNL     1      -2.587  12.892  74.669  0.00  0.00    -0.216 OA
ATOM     59  C   UNL     1      -2.494  13.994  72.655  0.00  0.00    +0.160 C 
ATOM     60  N   UNL     1      -1.942  12.588  72.326  0.00  0.00    -0.127 NA
ATOM     61  C   UNL     1      -3.507  14.067  71.296  0.00  0.00    +0.199 C 
ATOM     62  O   UNL     1      -3.409  15.563  71.236  0.00  0.00    -0.219 OA
ATOM     63  C   UNL     1      -4.970  14.151  72.173  0.00  0.00    +0.150 C 
ATOM     64  C   UNL     1      -5.838  14.277  70.785  0.00  0.00    +0.035 C 
ATOM     65  O   UNL     1      -4.920  12.652  72.059  0.00  0.00    -0.328 OA
ENDBRANCH  55  56
ENDBRANCH  37  55
TORSDOF 3
ENDMDL
MODEL 7
REMARK VINA RESULT:      -5.1      5.028     10.347
REMARK  Name = 
REMARK  3 active torsions:
REMARK  status: ('A' for Active; 'I' for Inactive)
REMARK    1  A    between atoms: C_17  and  O_18
REMARK    2  A    between atoms: O_18  and  C_19
REMARK    3  A    between atoms: C_32  and  C_33
REMARK                            x       y       z     vdW  Elec       q    Type
REMARK                         _______ _______ _______ _____ _____    ______ ____
ROOT
ATOM      1  C   UNL     1     -11.454   0.563  73.724  0.00  0.00    +0.007 C 
ATOM      2  C   UNL     1     -10.423   1.778  73.372  0.00  0.00    +0.053 C 
ATOM      3  C   UNL     1      -9.104   0.820  73.843  0.00  0.00    +0.159 C 
ATOM      4  O   UNL     1      -8.127   1.649  73.059  0.00  0.00    -0.223 OA
ATOM      5  C   UNL     1      -8.697   1.605  75.281  0.00  0.00    +0.071 C 
ATOM      6  C   UNL     1      -9.820   0.871  76.158  0.00  0.00    +0.006 C 
ATOM      7  C   UNL     1      -9.608   3.020  75.106  0.00  0.00    +0.171 C 
ATOM      8  C   UNL     1      -9.383   3.409  76.690  0.00  0.00    +0.047 C 
ATOM      9  O   UNL     1      -8.399   3.737  74.492  0.00  0.00    -0.452 OA
ATOM     10  C   UNL     1      -7.344   4.013  75.394  0.00  0.00    +0.319 C 
ATOM     11  O   UNL     1      -6.110   3.772  75.114  0.00  0.00    -0.250 OA
ATOM     12  C   UNL     1      -7.867   5.123  76.134  0.00  0.00    +0.142 C 
ATOM     13  C   UNL     1      -6.667   5.848  76.997  0.00  0.00    +0.166 C 
ATOM     14  O   UNL     1      -5.600   5.785  75.915  0.00  0.00    -0.222 OA
ATOM     15  C   UNL     1      -7.241   7.353  76.636  0.00  0.00    +0.066 C 
ATOM     16  C   UNL     1      -6.353   7.827  75.341  0.00  0.00    +0.157 C 
ATOM     17  O   UNL     1      -7.587   7.804  74.449  0.00  0.00    -0.223 OA
ATOM     18  C   UNL     1      -6.523   9.443  75.584  0.00  0.00    +0.066 C 
ATOM     19  C   UNL     1      -4.987   9.972  75.869  0.00  0.00    +0.155 C 
ATOM     20  O   UNL     1      -4.332   8.981  74.929  0.00  0.00    -0.223 OA
ATOM     21  C   UNL     1      -4.944  11.148  74.720  0.00  0.00    +0.036 C 
ATOM     22  C   UNL     1      -4.789  11.021  73.511  0.00  0.00    +0.038 C 
ATOM     23  C   UNL     1      -3.834  10.594  72.314  0.00  0.00    +0.183 C 
ATOM     24  O   UNL     1      -4.537   9.257  72.161  0.00  0.00    -0.220 OA
ATOM     25  C   UNL     1      -4.889  11.252  71.107  0.00  0.00    +0.189 C 
ATOM     26  O   UNL     1      -5.122  12.557  71.825  0.00  0.00    -0.220 OA
ATOM     27  C   UNL     1      -3.628  11.859  70.271  0.00  0.00    +0.100 C 
ATOM     28  C   UNL     1      -3.289  10.919  69.200  0.00  0.00    +0.156 C 
ATOM     29  O   UNL     1      -2.328  10.288  69.429  0.00  0.00    -0.296 OA
ATOM     30  C   UNL     1      -3.408  11.401  67.782  0.00  0.00    +0.098 C 
ATOM     31  C   UNL     1      -4.827  10.755  67.273  0.00  0.00    +0.172 C 
ATOM     32  O   UNL     1      -5.285  11.991  66.535  0.00  0.00    -0.222 OA
ATOM     33  C   UNL     1      -4.284  10.092  65.797  0.00  0.00    +0.164 C 
ATOM     34  C   UNL     1      -3.272   8.975  66.580  0.00  0.00    +0.168 C 
ATOM     35  O   UNL     1      -4.456   8.216  67.132  0.00  0.00    -0.222 OA
ATOM     36  C   UNL     1      -3.162   7.995  65.273  0.00  0.00    +0.068 C 
ATOM     37  C   UNL     1      -4.686   8.049  64.653  0.00  0.00    +0.142 C 
ATOM     38  C   UNL     1      -4.858   6.435  64.722  0.00  0.00    +0.003 C 
ATOM     39  C   UNL     1      -6.057   6.299  65.235  0.00  0.00    -0.002 C 
ATOM     40  C   UNL     1      -7.002   5.250  64.798  0.00  0.00    -0.000 C 
ATOM     41  C   UNL     1      -6.464   4.059  64.787  0.00  0.00    -0.000 C 
ATOM     42  C   UNL     1      -7.277   2.917  64.324  0.00  0.00    -0.000 C 
ATOM     43  C   UNL     1      -8.550   2.946  64.621  0.00  0.00    -0.000 C 
ATOM     44  C   UNL     1      -9.105   1.677  65.145  0.00  0.00    -0.005 C 
ATOM     45  C   UNL     1      -8.506   1.368  66.301  0.00  0.00    -0.026 C 
ATOM     46  C   UNL     1      -9.438   1.457  67.455  0.00  0.00    +0.031 C 
ATOM     47  C   UNL     1      -9.232   0.166  68.236  0.00  0.00    +0.031 C 
ATOM     48  C   UNL     1      -8.610   0.574  69.545  0.00  0.00    -0.026 C 
ATOM     49  C   UNL     1      -9.226   1.522  70.149  0.00  0.00    -0.005 C 
ATOM     50  C   UNL     1     -10.068   0.662  71.050  0.00  0.00    -0.005 C 
ATOM     51  C   UNL     1     -10.330   1.397  71.864  0.00  0.00    -0.024 C 
ENDROOT
BRANCH  33  52
ATOM     52  C   UNL     1      -3.219  11.184  65.407  0.00  0.00    +0.369 C 
ATOM     53  O   UNL     1      -3.608  11.812  64.214  0.00  0.00    -0.245 OA
ATOM     54  O   UNL     1      -2.019  11.002  65.585  0.00  0.00    -0.245 OA
ENDBRANCH  33  52
BRANCH  37  55
ATOM     55  O   UNL     1      -4.183   8.022  63.217  0.00  0.00    -0.327 OA
BRANCH  55  56
ATOM     56  C   UNL     1      -5.147   9.106  62.775  0.00  0.00    +0.268 C 
ATOM     57  C   UNL     1      -4.484   9.471  61.234  0.00  0.00    +0.228 C 
ATOM     58  O   UNL     1      -3.061   9.500  61.761  0.00  0.00    -0.216 OA
ATOM     59  C   UNL     1      -4.197   8.042  60.395  0.00  0.00    +0.160 C 
ATOM     60  N   UNL     1      -3.575   7.122  61.469  0.00  0.00    -0.127 NA
ATOM     61  C   UNL     1      -5.726   7.310  60.453  0.00  0.00    +0.199 C 
ATOM     62  O   UNL     1      -6.004   7.652  59.019  0.00  0.00    -0.219 OA
ATOM     63  C   UNL     1      -6.563   8.697  60.994  0.00  0.00    +0.150 C 
ATOM     64  C   UNL     1      -7.995   7.896  60.951  0.00  0.00    +0.035 C 
ATOM     65  O   UNL     1      -6.242   8.144  62.356  0.00  0.00    -0.328 OA
ENDBRANCH  55  56
ENDBRANCH  37  55
TORSDOF 3
ENDMDL
MODEL 8
REMARK VINA RESULT:      -5.0      3.934      4.865
REMARK  Name = 
REMARK  3 active torsions:
REMARK  status: ('A' for Active; 'I' for Inactive)
REMARK    1  A    between atoms: C_17  and  O_18
REMARK    2  A    between atoms: O_18  and  C_19
REMARK    3  A    between atoms: C_32  and  C_33
REMARK                            x       y       z     vdW  Elec       q    Type
REMARK                         _______ _______ _______ _____ _____    ______ ____
ROOT
ATOM      1  C   UNL     1     -12.075   1.694  60.381  0.00  0.00    +0.007 C 
ATOM      2  C   UNL     1     -11.296   1.978  61.786  0.00  0.00    +0.053 C 
ATOM      3  C   UNL     1      -9.920   1.168  61.209  0.00  0.00    +0.159 C 
ATOM      4  O   UNL     1      -9.016   1.843  62.200  0.00  0.00    -0.223 OA
ATOM      5  C   UNL     1     -10.007  -0.226  62.156  0.00  0.00    +0.071 C 
ATOM      6  C   UNL     1     -11.092  -0.954  61.227  0.00  0.00    +0.006 C 
ATOM      7  C   UNL     1     -11.159   0.268  63.293  0.00  0.00    +0.171 C 
ATOM      8  C   UNL     1     -11.360  -1.277  63.823  0.00  0.00    +0.047 C 
ATOM      9  O   UNL     1     -10.043   0.721  64.244  0.00  0.00    -0.452 OA
ATOM     10  C   UNL     1      -9.288  -0.325  64.823  0.00  0.00    +0.319 C 
ATOM     11  O   UNL     1      -8.000  -0.308  64.872  0.00  0.00    -0.250 OA
ATOM     12  C   UNL     1     -10.189  -0.830  65.816  0.00  0.00    +0.142 C 
ATOM     13  C   UNL     1      -9.389  -1.817  66.863  0.00  0.00    +0.166 C 
ATOM     14  O   UNL     1      -8.136  -0.965  66.995  0.00  0.00    -0.222 OA
ATOM     15  C   UNL     1     -10.201  -1.193  68.158  0.00  0.00    +0.066 C 
ATOM     16  C   UNL     1      -9.195  -0.042  68.753  0.00  0.00    +0.157 C 
ATOM     17  O   UNL     1     -10.181   1.056  68.375  0.00  0.00    -0.223 OA
ATOM     18  C   UNL     1      -9.773  -0.072  70.291  0.00  0.00    +0.066 C 
ATOM     19  C   UNL     1      -8.489  -0.578  71.195  0.00  0.00    +0.155 C 
ATOM     20  O   UNL     1      -7.448   0.110  70.337  0.00  0.00    -0.223 OA
ATOM     21  C   UNL     1      -8.477   0.664  72.272  0.00  0.00    +0.036 C 
ATOM     22  C   UNL     1      -8.051   1.802  72.112  0.00  0.00    +0.038 C 
ATOM     23  C   UNL     1      -6.797   2.747  71.857  0.00  0.00    +0.183 C 
ATOM     24  O   UNL     1      -7.133   2.881  70.382  0.00  0.00    -0.220 OA
ATOM     25  C   UNL     1      -7.701   4.193  72.163  0.00  0.00    +0.189 C 
ATOM     26  O   UNL     1      -8.366   3.678  73.414  0.00  0.00    -0.220 OA
ATOM     27  C   UNL     1      -6.465   4.841  73.006  0.00  0.00    +0.100 C 
ATOM     28  C   UNL     1      -5.709   5.722  72.112  0.00  0.00    +0.156 C 
ATOM     29  O   UNL     1      -4.699   5.250  71.749  0.00  0.00    -0.296 OA
ATOM     30  C   UNL     1      -5.638   7.180  72.463  0.00  0.00    +0.098 C 
ATOM     31  C   UNL     1      -6.738   7.871  71.461  0.00  0.00    +0.172 C 
ATOM     32  O   UNL     1      -7.301   8.812  72.500  0.00  0.00    -0.222 OA
ATOM     33  C   UNL     1      -5.766   9.139  70.860  0.00  0.00    +0.164 C 
ATOM     34  C   UNL     1      -4.712   8.064  70.073  0.00  0.00    +0.168 C 
ATOM     35  O   UNL     1      -5.782   7.663  69.084  0.00  0.00    -0.222 OA
ATOM     36  C   UNL     1      -4.116   9.214  69.070  0.00  0.00    +0.068 C 
ATOM     37  C   UNL     1      -5.451  10.109  68.714  0.00  0.00    +0.142 C 
ATOM     38  C   UNL     1      -5.264   9.897  67.113  0.00  0.00    +0.003 C 
ATOM     39  C   UNL     1      -6.480   9.604  66.722  0.00  0.00    -0.002 C 
ATOM     40  C   UNL     1      -7.052  10.092  65.449  0.00  0.00    -0.000 C 
ATOM     41  C   UNL     1      -6.269   9.873  64.427  0.00  0.00    -0.000 C 
ATOM     42  C   UNL     1      -6.689  10.352  63.095  0.00  0.00    -0.000 C 
ATOM     43  C   UNL     1      -7.969  10.302  62.832  0.00  0.00    -0.000 C 
ATOM     44  C   UNL     1      -8.318   9.756  61.500  0.00  0.00    -0.005 C 
ATOM     45  C   UNL     1      -7.917   8.482  61.419  0.00  0.00    -0.026 C 
ATOM     46  C   UNL     1      -9.063   7.538  61.349  0.00  0.00    +0.031 C 
ATOM     47  C   UNL     1      -8.736   6.596  60.198  0.00  0.00    +0.031 C 
ATOM     48  C   UNL     1      -8.507   5.246  60.825  0.00  0.00    -0.026 C 
ATOM     49  C   UNL     1      -9.432   4.875  61.631  0.00  0.00    -0.005 C 
ATOM     50  C   UNL     1     -10.225   4.058  60.649  0.00  0.00    -0.005 C 
ATOM     51  C   UNL     1     -10.810   3.392  61.347  0.00  0.00    -0.024 C 
ENDROOT
BRANCH  33  52
ATOM     52  C   UNL     1      -4.918   9.441  72.152  0.00  0.00    +0.369 C 
ATOM     53  O   UNL     1      -5.312  10.675  72.692  0.00  0.00    -0.245 OA
ATOM     54  O   UNL     1      -3.729   9.146  72.222  0.00  0.00    -0.245 OA
ENDBRANCH  33  52
BRANCH  37  55
ATOM     55  O   UNL     1      -4.669  11.414  68.721  0.00  0.00    -0.327 OA
BRANCH  55  56
ATOM     56  C   UNL     1      -5.738  12.141  69.515  0.00  0.00    +0.268 C 
ATOM     57  C   UNL     1      -4.779  13.378  70.222  0.00  0.00    +0.228 C 
ATOM     58  O   UNL     1      -3.673  12.415  70.611  0.00  0.00    -0.216 OA
ATOM     59  C   UNL     1      -3.815  14.086  69.039  0.00  0.00    +0.160 C 
ATOM     60  N   UNL     1      -3.300  12.871  68.233  0.00  0.00    -0.127 NA
ATOM     61  C   UNL     1      -4.977  14.535  67.888  0.00  0.00    +0.199 C 
ATOM     62  O   UNL     1      -4.890  15.979  68.284  0.00  0.00    -0.219 OA
ATOM     63  C   UNL     1      -6.330  14.290  68.901  0.00  0.00    +0.150 C 
ATOM     64  C   UNL     1      -7.352  14.804  67.724  0.00  0.00    +0.035 C 
ATOM     65  O   UNL     1      -6.290  12.901  68.324  0.00  0.00    -0.328 OA
ENDBRANCH  55  56
ENDBRANCH  37  55
TORSDOF 3
ENDMDL
MODEL 9
REMARK VINA RESULT:      -5.0      4.368      5.673
REMARK  Name = 
REMARK  3 active torsions:
REMARK  status: ('A' for Active; 'I' for Inactive)
REMARK    1  A    between atoms: C_17  and  O_18
REMARK    2  A    between atoms: O_18  and  C_19
REMARK    3  A    between atoms: C_32  and  C_33
REMARK                            x       y       z     vdW  Elec       q    Type
REMARK                         _______ _______ _______ _____ _____    ______ ____
ROOT
ATOM      1  C   UNL     1      -9.675   2.546  61.255  0.00  0.00    +0.007 C 
ATOM      2  C   UNL     1      -9.252   2.732  62.819  0.00  0.00    +0.053 C 
ATOM      3  C   UNL     1      -7.852   1.805  62.569  0.00  0.00    +0.159 C 
ATOM      4  O   UNL     1      -7.169   2.376  63.780  0.00  0.00    -0.223 OA
ATOM      5  C   UNL     1      -8.295   0.411  63.411  0.00  0.00    +0.071 C 
ATOM      6  C   UNL     1      -9.172  -0.196  62.214  0.00  0.00    +0.006 C 
ATOM      7  C   UNL     1      -9.647   0.994  64.245  0.00  0.00    +0.171 C 
ATOM      8  C   UNL     1     -10.109  -0.534  64.648  0.00  0.00    +0.047 C 
ATOM      9  O   UNL     1      -8.769   1.324  65.460  0.00  0.00    -0.452 OA
ATOM     10  C   UNL     1      -8.278   0.202  66.167  0.00  0.00    +0.319 C 
ATOM     11  O   UNL     1      -7.048   0.096  66.534  0.00  0.00    -0.250 OA
ATOM     12  C   UNL     1      -9.440  -0.231  66.885  0.00  0.00    +0.142 C 
ATOM     13  C   UNL     1      -9.018  -1.306  68.058  0.00  0.00    +0.166 C 
ATOM     14  O   UNL     1      -7.767  -0.579  68.530  0.00  0.00    -0.222 OA
ATOM     15  C   UNL     1     -10.070  -0.628  69.135  0.00  0.00    +0.066 C 
ATOM     16  C   UNL     1      -9.148   0.412  70.005  0.00  0.00    +0.157 C 
ATOM     17  O   UNL     1      -9.908   1.605  69.438  0.00  0.00    -0.223 OA
ATOM     18  C   UNL     1     -10.093   0.414  71.349  0.00  0.00    +0.066 C 
ATOM     19  C   UNL     1      -9.126  -0.226  72.523  0.00  0.00    +0.155 C 
ATOM     20  O   UNL     1      -7.847   0.373  71.977  0.00  0.00    -0.223 OA
ATOM     21  C   UNL     1      -9.275   0.992  73.617  0.00  0.00    +0.036 C 
ATOM     22  C   UNL     1      -8.724   2.087  73.612  0.00  0.00    +0.038 C 
ATOM     23  C   UNL     1      -7.369   2.913  73.713  0.00  0.00    +0.183 C 
ATOM     24  O   UNL     1      -7.311   3.101  72.207  0.00  0.00    -0.220 OA
ATOM     25  C   UNL     1      -8.190   4.433  73.841  0.00  0.00    +0.189 C 
ATOM     26  O   UNL     1      -9.190   3.963  74.867  0.00  0.00    -0.220 OA
ATOM     27  C   UNL     1      -7.152   4.947  74.989  0.00  0.00    +0.100 C 
ATOM     28  C   UNL     1      -6.122   5.766  74.346  0.00  0.00    +0.156 C 
ATOM     29  O   UNL     1      -5.099   5.207  74.226  0.00  0.00    -0.296 OA
ATOM     30  C   UNL     1      -6.014   7.206  74.759  0.00  0.00    +0.098 C 
ATOM     31  C   UNL     1      -6.762   8.014  73.543  0.00  0.00    +0.172 C 
ATOM     32  O   UNL     1      -7.482   8.988  74.446  0.00  0.00    -0.222 OA
ATOM     33  C   UNL     1      -5.564   9.193  73.252  0.00  0.00    +0.164 C 
ATOM     34  C   UNL     1      -4.445   8.036  72.710  0.00  0.00    +0.168 C 
ATOM     35  O   UNL     1      -5.263   7.753  71.472  0.00  0.00    -0.222 OA
ATOM     36  C   UNL     1      -3.517   9.140  71.932  0.00  0.00    +0.068 C 
ATOM     37  C   UNL     1      -4.637  10.162  71.291  0.00  0.00    +0.142 C 
ATOM     38  C   UNL     1      -4.074   9.959  69.780  0.00  0.00    +0.003 C 
ATOM     39  C   UNL     1      -5.175   9.789  69.087  0.00  0.00    -0.002 C 
ATOM     40  C   UNL     1      -5.365  10.349  67.733  0.00  0.00    -0.000 C 
ATOM     41  C   UNL     1      -4.373  10.073  66.929  0.00  0.00    -0.000 C 
ATOM     42  C   UNL     1      -4.402  10.610  65.554  0.00  0.00    -0.000 C 
ATOM     43  C   UNL     1      -5.575  10.687  64.981  0.00  0.00    -0.000 C 
ATOM     44  C   UNL     1      -5.626  10.197  63.584  0.00  0.00    -0.005 C 
ATOM     45  C   UNL     1      -5.331   8.892  63.554  0.00  0.00    -0.026 C 
ATOM     46  C   UNL     1      -6.501   8.062  63.166  0.00  0.00    +0.031 C 
ATOM     47  C   UNL     1      -5.980   7.112  62.096  0.00  0.00    +0.031 C 
ATOM     48  C   UNL     1      -6.035   5.736  62.707  0.00  0.00    -0.026 C 
ATOM     49  C   UNL     1      -7.161   5.442  63.243  0.00  0.00    -0.005 C 
ATOM     50  C   UNL     1      -7.752   4.719  62.065  0.00  0.00    -0.005 C 
ATOM     51  C   UNL     1      -8.549   4.101  62.569  0.00  0.00    -0.024 C 
ENDROOT
BRANCH  33  52
ATOM     52  C   UNL     1      -5.043   9.393  74.725  0.00  0.00    +0.369 C 
ATOM     53  O   UNL     1      -5.481  10.635  75.211  0.00  0.00    -0.245 OA
ATOM     54  O   UNL     1      -3.929   9.011  75.069  0.00  0.00    -0.245 OA
ENDBRANCH  33  52
BRANCH  37  55
ATOM     55  O   UNL     1      -3.770  11.388  71.543  0.00  0.00    -0.327 OA
BRANCH  55  56
ATOM     56  C   UNL     1      -4.937  12.202  72.067  0.00  0.00    +0.268 C 
ATOM     57  C   UNL     1      -4.079  13.398  72.952  0.00  0.00    +0.228 C 
ATOM     58  O   UNL     1      -3.154  12.379  73.592  0.00  0.00    -0.216 OA
ATOM     59  C   UNL     1      -2.831  14.009  72.004  0.00  0.00    +0.160 C 
ATOM     60  N   UNL     1      -2.233  12.742  71.351  0.00  0.00    -0.127 NA
ATOM     61  C   UNL     1      -3.676  14.496  70.616  0.00  0.00    +0.199 C 
ATOM     62  O   UNL     1      -3.582  15.942  71.001  0.00  0.00    -0.219 OA
ATOM     63  C   UNL     1      -5.233  14.365  71.305  0.00  0.00    +0.150 C 
ATOM     64  C   UNL     1      -5.932  14.907  69.922  0.00  0.00    +0.035 C 
ATOM     65  O   UNL     1      -5.159  12.960  70.772  0.00  0.00    -0.328 OA
ENDBRANCH  55  56
ENDBRANCH  37  55
TORSDOF 3
ENDMDL
