MODEL 1
REMARK VINA RESULT:      -6.5      0.000      0.000
REMARK  Name = 
REMARK  8 active torsions:
REMARK  status: ('A' for Active; 'I' for Inactive)
REMARK    1  A    between atoms: C_2  and  C_3
REMARK    2  A    between atoms: C_3  and  C_23
REMARK    3  A    between atoms: C_4  and  C_5
REMARK    4  A    between atoms: C_4  and  C_11
REMARK    5  A    between atoms: C_14  and  O_15
REMARK    6  A    between atoms: O_15  and  C_16
REMARK    7  A    between atoms: C_16  and  C_17
REMARK    8  A    between atoms: C_17  and  N_18
REMARK                            x       y       z     vdW  Elec       q    Type
REMARK                         _______ _______ _______ _____ _____    ______ ____
ROOT
ATOM      1  C   UNL     1     -11.611  13.263  68.951  0.00  0.00    -0.022 C 
ATOM      2  C   UNL     1     -11.369  14.506  69.349  0.00  0.00    -0.004 C 
ENDROOT
BRANCH   2   3
ATOM      3  C   UNL     1     -12.043  14.989  70.563  0.00  0.00    -0.000 A 
ATOM      4  C   UNL     1     -13.409  14.736  70.606  0.00  0.00    -0.000 A 
ATOM      5  C   UNL     1     -14.096  15.341  71.652  0.00  0.00    -0.000 A 
ATOM      6  C   UNL     1     -13.446  15.714  72.811  0.00  0.00    -0.000 A 
ATOM      7  C   UNL     1     -12.072  15.531  72.841  0.00  0.00    -0.000 A 
ATOM      8  C   UNL     1     -11.326  15.262  71.713  0.00  0.00    -0.000 A 
ENDBRANCH   2   3
BRANCH   1   9
ATOM      9  C   UNL     1     -11.606  13.004  67.518  0.00  0.00    -0.004 A 
ATOM     10  C   UNL     1     -12.475  13.631  66.637  0.00  0.00    -0.000 A 
ATOM     11  C   UNL     1     -12.096  13.947  65.339  0.00  0.00    -0.000 A 
ATOM     12  C   UNL     1     -10.827  13.650  64.916  0.00  0.00    -0.000 A 
ATOM     13  C   UNL     1      -9.984  12.920  65.708  0.00  0.00    -0.000 A 
ATOM     14  C   UNL     1     -10.449  12.495  66.942  0.00  0.00    -0.000 A 
ENDBRANCH   1   9
BRANCH   2  15
ATOM     15  C   UNL     1     -10.547  15.436  68.562  0.00  0.00    -0.000 A 
ATOM     16  C   UNL     1     -11.124  16.666  68.287  0.00  0.00    +0.003 A 
ATOM     17  C   UNL     1     -10.350  17.792  68.087  0.00  0.00    +0.037 A 
ATOM     18  C   UNL     1      -9.072  17.839  68.619  0.00  0.00    +0.139 A 
ATOM     19  C   UNL     1      -8.453  16.634  68.854  0.00  0.00    +0.037 A 
ATOM     20  C   UNL     1      -9.200  15.466  68.897  0.00  0.00    +0.003 A 
BRANCH  18  21
ATOM     21  O   UNL     1      -8.307  18.998  68.648  0.00  0.00    -0.474 OA
BRANCH  21  22
ATOM     22  C   UNL     1      -7.189  19.068  67.767  0.00  0.00    +0.223 C 
BRANCH  22  23
ATOM     23  C   UNL     1      -7.576  19.724  66.447  0.00  0.00    +0.120 C 
BRANCH  23  24
ATOM     24  N   UNL     1      -7.058  18.887  65.396  0.00  0.00    -0.267 NA
ATOM     25  C   UNL     1      -6.399  17.698  65.875  0.00  0.00    +0.090 C 
ATOM     26  C   UNL     1      -6.180  19.679  64.571  0.00  0.00    +0.090 C 
ENDBRANCH  23  24
ENDBRANCH  22  23
ENDBRANCH  21  22
ENDBRANCH  18  21
ENDBRANCH   2  15
BRANCH   1  28
ATOM     27  C   UNL     1     -12.241  10.918  69.512  0.00  0.00    +0.005 C 
ATOM     28  C   UNL     1     -11.657  12.216  69.988  0.00  0.00    +0.026 C 
ENDBRANCH   1  28
TORSDOF 8
ENDMDL
MODEL 2
REMARK VINA RESULT:      -6.4      1.562      2.048
REMARK  Name = 
REMARK  8 active torsions:
REMARK  status: ('A' for Active; 'I' for Inactive)
REMARK    1  A    between atoms: C_2  and  C_3
REMARK    2  A    between atoms: C_3  and  C_23
REMARK    3  A    between atoms: C_4  and  C_5
REMARK    4  A    between atoms: C_4  and  C_11
REMARK    5  A    between atoms: C_14  and  O_15
REMARK    6  A    between atoms: O_15  and  C_16
REMARK    7  A    between atoms: C_16  and  C_17
REMARK    8  A    between atoms: C_17  and  N_18
REMARK                            x       y       z     vdW  Elec       q    Type
REMARK                         _______ _______ _______ _____ _____    ______ ____
ROOT
ATOM      1  C   UNL     1     -11.580  13.197  69.003  0.00  0.00    -0.022 C 
ATOM      2  C   UNL     1     -11.362  14.452  69.377  0.00  0.00    -0.004 C 
ENDROOT
BRANCH   2   3
ATOM      3  C   UNL     1     -12.041  14.944  70.583  0.00  0.00    -0.000 A 
ATOM      4  C   UNL     1     -13.402  14.668  70.636  0.00  0.00    -0.000 A 
ATOM      5  C   UNL     1     -14.097  15.278  71.672  0.00  0.00    -0.000 A 
ATOM      6  C   UNL     1     -13.450  15.684  72.822  0.00  0.00    -0.000 A 
ATOM      7  C   UNL     1     -12.074  15.526  72.852  0.00  0.00    -0.000 A 
ATOM      8  C   UNL     1     -11.326  15.251  71.726  0.00  0.00    -0.000 A 
ENDBRANCH   2   3
BRANCH   1   9
ATOM      9  C   UNL     1     -11.574  12.912  67.574  0.00  0.00    -0.004 A 
ATOM     10  C   UNL     1     -12.418  13.551  66.676  0.00  0.00    -0.000 A 
ATOM     11  C   UNL     1     -12.021  13.830  65.376  0.00  0.00    -0.000 A 
ATOM     12  C   UNL     1     -10.759  13.484  64.967  0.00  0.00    -0.000 A 
ATOM     13  C   UNL     1      -9.946  12.742  65.777  0.00  0.00    -0.000 A 
ATOM     14  C   UNL     1     -10.431  12.355  67.015  0.00  0.00    -0.000 A 
ENDBRANCH   1   9
BRANCH   2  15
ATOM     15  C   UNL     1     -10.561  15.384  68.568  0.00  0.00    -0.000 A 
ATOM     16  C   UNL     1     -11.128  16.630  68.347  0.00  0.00    +0.003 A 
ATOM     17  C   UNL     1     -10.343  17.746  68.132  0.00  0.00    +0.037 A 
ATOM     18  C   UNL     1      -9.041  17.759  68.602  0.00  0.00    +0.139 A 
ATOM     19  C   UNL     1      -8.433  16.538  68.782  0.00  0.00    +0.037 A 
ATOM     20  C   UNL     1      -9.199  15.383  68.838  0.00  0.00    +0.003 A 
BRANCH  18  21
ATOM     21  O   UNL     1      -8.253  18.903  68.617  0.00  0.00    -0.474 OA
BRANCH  21  22
ATOM     22  C   UNL     1      -6.850  18.730  68.801  0.00  0.00    +0.223 C 
BRANCH  22  23
ATOM     23  C   UNL     1      -6.260  19.883  69.606  0.00  0.00    +0.120 C 
BRANCH  23  24
ATOM     24  N   UNL     1      -5.218  19.327  70.430  0.00  0.00    -0.267 NA
ATOM     25  C   UNL     1      -5.271  17.890  70.540  0.00  0.00    +0.090 C 
ATOM     26  C   UNL     1      -5.275  19.956  71.726  0.00  0.00    +0.090 C 
ENDBRANCH  23  24
ENDBRANCH  22  23
ENDBRANCH  21  22
ENDBRANCH  18  21
ENDBRANCH   2  15
BRANCH   1  28
ATOM     27  C   UNL     1     -12.343  10.923  69.676  0.00  0.00    +0.005 C 
ATOM     28  C   UNL     1     -11.601  12.170  70.059  0.00  0.00    +0.026 C 
ENDBRANCH   1  28
TORSDOF 8
ENDMDL
MODEL 3
REMARK VINA RESULT:      -6.4      1.143      2.103
REMARK  Name = 
REMARK  8 active torsions:
REMARK  status: ('A' for Active; 'I' for Inactive)
REMARK    1  A    between atoms: C_2  and  C_3
REMARK    2  A    between atoms: C_3  and  C_23
REMARK    3  A    between atoms: C_4  and  C_5
REMARK    4  A    between atoms: C_4  and  C_11
REMARK    5  A    between atoms: C_14  and  O_15
REMARK    6  A    between atoms: O_15  and  C_16
REMARK    7  A    between atoms: C_16  and  C_17
REMARK    8  A    between atoms: C_17  and  N_18
REMARK                            x       y       z     vdW  Elec       q    Type
REMARK                         _______ _______ _______ _____ _____    ______ ____
ROOT
ATOM      1  C   UNL     1     -11.321  13.528  68.878  0.00  0.00    -0.022 C 
ATOM      2  C   UNL     1     -11.170  14.658  69.559  0.00  0.00    -0.004 C 
ENDROOT
BRANCH   2   3
ATOM      3  C   UNL     1     -11.991  14.858  70.762  0.00  0.00    -0.000 A 
ATOM      4  C   UNL     1     -11.321  15.445  71.829  0.00  0.00    -0.000 A 
ATOM      5  C   UNL     1     -12.019  15.476  73.029  0.00  0.00    -0.000 A 
ATOM      6  C   UNL     1     -13.398  15.418  73.053  0.00  0.00    -0.000 A 
ATOM      7  C   UNL     1     -14.036  15.244  71.835  0.00  0.00    -0.000 A 
ATOM      8  C   UNL     1     -13.371  14.868  70.687  0.00  0.00    -0.000 A 
ENDBRANCH   2   3
BRANCH   1   9
ATOM      9  C   UNL     1     -11.148  13.588  67.433  0.00  0.00    -0.004 A 
ATOM     10  C   UNL     1     -10.116  12.937  66.772  0.00  0.00    -0.000 A 
ATOM     11  C   UNL     1     -10.283  12.411  65.498  0.00  0.00    -0.000 A 
ATOM     12  C   UNL     1     -11.501  12.519  64.879  0.00  0.00    -0.000 A 
ATOM     13  C   UNL     1     -12.502  13.262  65.441  0.00  0.00    -0.000 A 
ATOM     14  C   UNL     1     -12.250  13.896  66.646  0.00  0.00    -0.000 A 
ENDBRANCH   1   9
BRANCH   2  15
ATOM     15  C   UNL     1     -10.301  15.747  69.090  0.00  0.00    -0.000 A 
ATOM     16  C   UNL     1      -8.992  15.392  68.802  0.00  0.00    +0.003 A 
ATOM     17  C   UNL     1      -8.249  16.089  67.869  0.00  0.00    +0.037 A 
ATOM     18  C   UNL     1      -8.903  16.805  66.881  0.00  0.00    +0.139 A 
ATOM     19  C   UNL     1     -10.186  17.217  67.158  0.00  0.00    +0.037 A 
ATOM     20  C   UNL     1     -10.892  16.636  68.202  0.00  0.00    +0.003 A 
BRANCH  18  21
ATOM     21  O   UNL     1      -8.248  17.358  65.788  0.00  0.00    -0.474 OA
BRANCH  21  22
ATOM     22  C   UNL     1      -7.018  18.034  66.034  0.00  0.00    +0.223 C 
BRANCH  22  23
ATOM     23  C   UNL     1      -7.262  19.495  66.396  0.00  0.00    +0.120 C 
BRANCH  23  24
ATOM     24  N   UNL     1      -6.510  19.759  67.596  0.00  0.00    -0.267 NA
ATOM     25  C   UNL     1      -7.258  19.537  68.809  0.00  0.00    +0.090 C 
ATOM     26  C   UNL     1      -6.005  21.108  67.531  0.00  0.00    +0.090 C 
ENDBRANCH  23  24
ENDBRANCH  22  23
ENDBRANCH  21  22
ENDBRANCH  18  21
ENDBRANCH   2  15
BRANCH   1  28
ATOM     27  C   UNL     1     -12.051  11.146  68.884  0.00  0.00    +0.005 C 
ATOM     28  C   UNL     1     -11.442  12.281  69.653  0.00  0.00    +0.026 C 
ENDBRANCH   1  28
TORSDOF 8
ENDMDL
MODEL 4
REMARK VINA RESULT:      -6.0      2.805      4.264
REMARK  Name = 
REMARK  8 active torsions:
REMARK  status: ('A' for Active; 'I' for Inactive)
REMARK    1  A    between atoms: C_2  and  C_3
REMARK    2  A    between atoms: C_3  and  C_23
REMARK    3  A    between atoms: C_4  and  C_5
REMARK    4  A    between atoms: C_4  and  C_11
REMARK    5  A    between atoms: C_14  and  O_15
REMARK    6  A    between atoms: O_15  and  C_16
REMARK    7  A    between atoms: C_16  and  C_17
REMARK    8  A    between atoms: C_17  and  N_18
REMARK                            x       y       z     vdW  Elec       q    Type
REMARK                         _______ _______ _______ _____ _____    ______ ____
ROOT
ATOM      1  C   UNL     1     -10.622  10.613  66.975  0.00  0.00    -0.022 C 
ATOM      2  C   UNL     1     -10.272  11.080  68.168  0.00  0.00    -0.004 C 
ENDROOT
BRANCH   2   3
ATOM      3  C   UNL     1     -10.791  10.394  69.360  0.00  0.00    -0.000 A 
ATOM      4  C   UNL     1      -9.823   9.760  70.130  0.00  0.00    -0.000 A 
ATOM      5  C   UNL     1     -10.307   8.955  71.154  0.00  0.00    -0.000 A 
ATOM      6  C   UNL     1     -11.562   9.162  71.691  0.00  0.00    -0.000 A 
ATOM      7  C   UNL     1     -12.336  10.150  71.103  0.00  0.00    -0.000 A 
ATOM      8  C   UNL     1     -12.027  10.719  69.885  0.00  0.00    -0.000 A 
ENDBRANCH   2   3
BRANCH   1   9
ATOM      9  C   UNL     1     -10.777  11.579  65.896  0.00  0.00    -0.004 A 
ATOM     10  C   UNL     1     -10.055  11.507  64.713  0.00  0.00    -0.000 A 
ATOM     11  C   UNL     1     -10.600  11.909  63.501  0.00  0.00    -0.000 A 
ATOM     12  C   UNL     1     -11.888  12.375  63.462  0.00  0.00    -0.000 A 
ATOM     13  C   UNL     1     -12.587  12.582  64.620  0.00  0.00    -0.000 A 
ATOM     14  C   UNL     1     -11.958  12.307  65.823  0.00  0.00    -0.000 A 
ENDBRANCH   1   9
BRANCH   2  15
ATOM     15  C   UNL     1      -9.484  12.311  68.329  0.00  0.00    -0.000 A 
ATOM     16  C   UNL     1      -8.284  12.353  67.637  0.00  0.00    +0.003 A 
ATOM     17  C   UNL     1      -7.736  13.552  67.226  0.00  0.00    +0.037 A 
ATOM     18  C   UNL     1      -8.561  14.651  67.056  0.00  0.00    +0.139 A 
ATOM     19  C   UNL     1      -9.736  14.662  67.770  0.00  0.00    +0.037 A 
ATOM     20  C   UNL     1     -10.220  13.489  68.330  0.00  0.00    +0.003 A 
BRANCH  18  21
ATOM     21  O   UNL     1      -8.138  15.828  66.451  0.00  0.00    -0.474 OA
BRANCH  21  22
ATOM     22  C   UNL     1      -8.041  16.989  67.273  0.00  0.00    +0.223 C 
BRANCH  22  23
ATOM     23  C   UNL     1      -8.470  18.236  66.509  0.00  0.00    +0.120 C 
BRANCH  23  24
ATOM     24  N   UNL     1      -9.894  18.364  66.684  0.00  0.00    -0.267 NA
ATOM     25  C   UNL     1     -10.446  19.554  66.085  0.00  0.00    +0.090 C 
ATOM     26  C   UNL     1     -10.190  18.299  68.094  0.00  0.00    +0.090 C 
ENDBRANCH  23  24
ENDBRANCH  22  23
ENDBRANCH  21  22
ENDBRANCH  18  21
ENDBRANCH   2  15
BRANCH   1  28
ATOM     27  C   UNL     1      -9.251   8.568  66.594  0.00  0.00    +0.005 C 
ATOM     28  C   UNL     1     -10.619   9.151  66.792  0.00  0.00    +0.026 C 
ENDBRANCH   1  28
TORSDOF 8
ENDMDL
MODEL 5
REMARK VINA RESULT:      -6.0      3.963      8.224
REMARK  Name = 
REMARK  8 active torsions:
REMARK  status: ('A' for Active; 'I' for Inactive)
REMARK    1  A    between atoms: C_2  and  C_3
REMARK    2  A    between atoms: C_3  and  C_23
REMARK    3  A    between atoms: C_4  and  C_5
REMARK    4  A    between atoms: C_4  and  C_11
REMARK    5  A    between atoms: C_14  and  O_15
REMARK    6  A    between atoms: O_15  and  C_16
REMARK    7  A    between atoms: C_16  and  C_17
REMARK    8  A    between atoms: C_17  and  N_18
REMARK                            x       y       z     vdW  Elec       q    Type
REMARK                         _______ _______ _______ _____ _____    ______ ____
ROOT
ATOM      1  C   UNL     1     -11.613  15.023  69.271  0.00  0.00    -0.022 C 
ATOM      2  C   UNL     1     -11.282  13.937  68.582  0.00  0.00    -0.004 C 
ENDROOT
BRANCH   2   3
ATOM      3  C   UNL     1     -11.453  13.964  67.122  0.00  0.00    -0.000 A 
ATOM      4  C   UNL     1     -10.275  14.135  66.405  0.00  0.00    -0.000 A 
ATOM      5  C   UNL     1     -10.431  14.346  65.040  0.00  0.00    -0.000 A 
ATOM      6  C   UNL     1     -11.564  13.918  64.378  0.00  0.00    -0.000 A 
ATOM      7  C   UNL     1     -12.561  13.347  65.153  0.00  0.00    -0.000 A 
ATOM      8  C   UNL     1     -12.585  13.437  66.529  0.00  0.00    -0.000 A 
ENDBRANCH   2   3
BRANCH   1   9
ATOM      9  C   UNL     1     -12.151  14.829  70.610  0.00  0.00    -0.004 A 
ATOM     10  C   UNL     1     -11.446  15.157  71.759  0.00  0.00    -0.000 A 
ATOM     11  C   UNL     1     -12.086  15.625  72.899  0.00  0.00    -0.000 A 
ATOM     12  C   UNL     1     -13.447  15.784  72.891  0.00  0.00    -0.000 A 
ATOM     13  C   UNL     1     -14.190  15.352  71.827  0.00  0.00    -0.000 A 
ATOM     14  C   UNL     1     -13.530  14.755  70.766  0.00  0.00    -0.000 A 
ENDBRANCH   1   9
BRANCH   2  15
ATOM     15  C   UNL     1     -10.862  12.690  69.236  0.00  0.00    -0.000 A 
ATOM     16  C   UNL     1     -11.886  11.871  69.687  0.00  0.00    +0.003 A 
ATOM     17  C   UNL     1     -11.718  10.504  69.787  0.00  0.00    +0.037 A 
ATOM     18  C   UNL     1     -10.755   9.881  69.012  0.00  0.00    +0.139 A 
ATOM     19  C   UNL     1      -9.698  10.655  68.594  0.00  0.00    +0.037 A 
ATOM     20  C   UNL     1      -9.791  12.039  68.639  0.00  0.00    +0.003 A 
BRANCH  18  21
ATOM     21  O   UNL     1     -10.657   8.500  68.891  0.00  0.00    -0.474 OA
BRANCH  21  22
ATOM     22  C   UNL     1     -10.440   7.752  70.085  0.00  0.00    +0.223 C 
BRANCH  22  23
ATOM     23  C   UNL     1     -11.505   6.675  70.255  0.00  0.00    +0.120 C 
BRANCH  23  24
ATOM     24  N   UNL     1     -12.105   6.881  71.548  0.00  0.00    -0.267 NA
ATOM     25  C   UNL     1     -13.445   7.410  71.487  0.00  0.00    +0.090 C 
ATOM     26  C   UNL     1     -11.239   7.734  72.324  0.00  0.00    +0.090 C 
ENDBRANCH  23  24
ENDBRANCH  22  23
ENDBRANCH  21  22
ENDBRANCH  18  21
ENDBRANCH   2  15
BRANCH   1  28
ATOM     27  C   UNL     1      -9.781  16.683  68.963  0.00  0.00    +0.005 C 
ATOM     28  C   UNL     1     -11.217  16.327  68.712  0.00  0.00    +0.026 C 
ENDBRANCH   1  28
TORSDOF 8
ENDMDL
MODEL 6
REMARK VINA RESULT:      -6.0      3.063      8.154
REMARK  Name = 
REMARK  8 active torsions:
REMARK  status: ('A' for Active; 'I' for Inactive)
REMARK    1  A    between atoms: C_2  and  C_3
REMARK    2  A    between atoms: C_3  and  C_23
REMARK    3  A    between atoms: C_4  and  C_5
REMARK    4  A    between atoms: C_4  and  C_11
REMARK    5  A    between atoms: C_14  and  O_15
REMARK    6  A    between atoms: O_15  and  C_16
REMARK    7  A    between atoms: C_16  and  C_17
REMARK    8  A    between atoms: C_17  and  N_18
REMARK                            x       y       z     vdW  Elec       q    Type
REMARK                         _______ _______ _______ _____ _____    ______ ____
ROOT
ATOM      1  C   UNL     1      -5.850  20.350  66.238  0.00  0.00    -0.022 C 
ATOM      2  C   UNL     1      -6.513  19.657  67.156  0.00  0.00    -0.004 C 
ENDROOT
BRANCH   2   3
ATOM      3  C   UNL     1      -5.878  19.460  68.467  0.00  0.00    -0.000 A 
ATOM      4  C   UNL     1      -6.586  19.992  69.539  0.00  0.00    -0.000 A 
ATOM      5  C   UNL     1      -5.922  19.980  70.759  0.00  0.00    -0.000 A 
ATOM      6  C   UNL     1      -4.904  19.082  71.007  0.00  0.00    -0.000 A 
ATOM      7  C   UNL     1      -4.528  18.259  69.957  0.00  0.00    -0.000 A 
ATOM      8  C   UNL     1      -4.922  18.480  68.654  0.00  0.00    -0.000 A 
ENDBRANCH   2   3
BRANCH   1   9
ATOM      9  C   UNL     1      -6.036  19.966  64.845  0.00  0.00    -0.004 A 
ATOM     10  C   UNL     1      -6.427  20.866  63.863  0.00  0.00    -0.000 A 
ATOM     11  C   UNL     1      -5.977  20.757  62.554  0.00  0.00    -0.000 A 
ATOM     12  C   UNL     1      -5.111  19.749  62.220  0.00  0.00    -0.000 A 
ATOM     13  C   UNL     1      -4.804  18.770  63.125  0.00  0.00    -0.000 A 
ATOM     14  C   UNL     1      -5.388  18.829  64.379  0.00  0.00    -0.000 A 
ENDBRANCH   1   9
BRANCH   2  15
ATOM     15  C   UNL     1      -7.795  18.996  66.868  0.00  0.00    -0.000 A 
ATOM     16  C   UNL     1      -7.835  17.632  67.107  0.00  0.00    +0.003 A 
ATOM     17  C   UNL     1      -9.018  16.996  67.432  0.00  0.00    +0.037 A 
ATOM     18  C   UNL     1     -10.049  17.730  67.992  0.00  0.00    +0.139 A 
ATOM     19  C   UNL     1     -10.065  19.080  67.730  0.00  0.00    +0.037 A 
ATOM     20  C   UNL     1      -8.926  19.707  67.247  0.00  0.00    +0.003 A 
BRANCH  18  21
ATOM     21  O   UNL     1     -11.185  17.145  68.539  0.00  0.00    -0.474 OA
BRANCH  21  22
ATOM     22  C   UNL     1     -11.007  16.310  69.680  0.00  0.00    +0.223 C 
BRANCH  22  23
ATOM     23  C   UNL     1     -12.239  15.446  69.922  0.00  0.00    +0.120 C 
BRANCH  23  24
ATOM     24  N   UNL     1     -12.892  15.967  71.095  0.00  0.00    -0.267 NA
ATOM     25  C   UNL     1     -12.025  16.067  72.243  0.00  0.00    +0.090 C 
ATOM     26  C   UNL     1     -14.045  15.149  71.378  0.00  0.00    +0.090 C 
ENDBRANCH  23  24
ENDBRANCH  22  23
ENDBRANCH  21  22
ENDBRANCH  18  21
ENDBRANCH   2  15
BRANCH   1  28
ATOM     27  C   UNL     1      -3.679  21.562  66.399  0.00  0.00    +0.005 C 
ATOM     28  C   UNL     1      -5.153  21.570  66.681  0.00  0.00    +0.026 C 
ENDBRANCH   1  28
TORSDOF 8
ENDMDL
MODEL 7
REMARK VINA RESULT:      -5.9      3.112      6.427
REMARK  Name = 
REMARK  8 active torsions:
REMARK  status: ('A' for Active; 'I' for Inactive)
REMARK    1  A    between atoms: C_2  and  C_3
REMARK    2  A    between atoms: C_3  and  C_23
REMARK    3  A    between atoms: C_4  and  C_5
REMARK    4  A    between atoms: C_4  and  C_11
REMARK    5  A    between atoms: C_14  and  O_15
REMARK    6  A    between atoms: O_15  and  C_16
REMARK    7  A    between atoms: C_16  and  C_17
REMARK    8  A    between atoms: C_17  and  N_18
REMARK                            x       y       z     vdW  Elec       q    Type
REMARK                         _______ _______ _______ _____ _____    ______ ____
ROOT
ATOM      1  C   UNL     1      -9.493  14.813  66.261  0.00  0.00    -0.022 C 
ATOM      2  C   UNL     1      -9.559  14.276  67.473  0.00  0.00    -0.004 C 
ENDROOT
BRANCH   2   3
ATOM      3  C   UNL     1      -8.329  14.223  68.275  0.00  0.00    -0.000 A 
ATOM      4  C   UNL     1      -7.293  13.496  67.700  0.00  0.00    -0.000 A 
ATOM      5  C   UNL     1      -6.190  13.279  68.517  0.00  0.00    -0.000 A 
ATOM      6  C   UNL     1      -5.913  14.116  69.579  0.00  0.00    -0.000 A 
ATOM      7  C   UNL     1      -6.830  15.124  69.834  0.00  0.00    -0.000 A 
ATOM      8  C   UNL     1      -8.089  15.153  69.270  0.00  0.00    -0.000 A 
ENDBRANCH   2   3
BRANCH   1   9
ATOM      9  C   UNL     1     -10.366  14.261  65.233  0.00  0.00    -0.004 A 
ATOM     10  C   UNL     1     -10.175  13.002  64.682  0.00  0.00    -0.000 A 
ATOM     11  C   UNL     1     -11.244  12.212  64.282  0.00  0.00    -0.000 A 
ATOM     12  C   UNL     1     -12.523  12.674  64.447  0.00  0.00    -0.000 A 
ATOM     13  C   UNL     1     -12.750  13.956  64.866  0.00  0.00    -0.000 A 
ATOM     14  C   UNL     1     -11.654  14.766  65.118  0.00  0.00    -0.000 A 
ENDBRANCH   1   9
BRANCH   2  15
ATOM     15  C   UNL     1     -10.782  13.639  67.984  0.00  0.00    -0.000 A 
ATOM     16  C   UNL     1     -10.631  12.352  68.475  0.00  0.00    +0.003 A 
ATOM     17  C   UNL     1     -11.470  11.856  69.455  0.00  0.00    +0.037 A 
ATOM     18  C   UNL     1     -12.132  12.739  70.290  0.00  0.00    +0.139 A 
ATOM     19  C   UNL     1     -12.343  14.010  69.810  0.00  0.00    +0.037 A 
ATOM     20  C   UNL     1     -11.619  14.469  68.719  0.00  0.00    +0.003 A 
BRANCH  18  21
ATOM     21  O   UNL     1     -12.824  12.333  71.425  0.00  0.00    -0.474 OA
BRANCH  21  22
ATOM     22  C   UNL     1     -13.626  13.308  72.087  0.00  0.00    +0.223 C 
BRANCH  22  23
ATOM     23  C   UNL     1     -12.801  14.099  73.095  0.00  0.00    +0.120 C 
BRANCH  23  24
ATOM     24  N   UNL     1     -13.273  15.459  73.046  0.00  0.00    -0.267 NA
ATOM     25  C   UNL     1     -14.377  15.657  72.140  0.00  0.00    +0.090 C 
ATOM     26  C   UNL     1     -12.162  16.317  72.715  0.00  0.00    +0.090 C 
ENDBRANCH  23  24
ENDBRANCH  22  23
ENDBRANCH  21  22
ENDBRANCH  18  21
ENDBRANCH   2  15
BRANCH   1  28
ATOM     27  C   UNL     1      -9.445  17.292  66.511  0.00  0.00    +0.005 C 
ATOM     28  C   UNL     1      -8.705  16.049  66.110  0.00  0.00    +0.026 C 
ENDBRANCH   1  28
TORSDOF 8
ENDMDL
MODEL 8
REMARK VINA RESULT:      -5.7      2.512      4.613
REMARK  Name = 
REMARK  8 active torsions:
REMARK  status: ('A' for Active; 'I' for Inactive)
REMARK    1  A    between atoms: C_2  and  C_3
REMARK    2  A    between atoms: C_3  and  C_23
REMARK    3  A    between atoms: C_4  and  C_5
REMARK    4  A    between atoms: C_4  and  C_11
REMARK    5  A    between atoms: C_14  and  O_15
REMARK    6  A    between atoms: O_15  and  C_16
REMARK    7  A    between atoms: C_16  and  C_17
REMARK    8  A    between atoms: C_17  and  N_18
REMARK                            x       y       z     vdW  Elec       q    Type
REMARK                         _______ _______ _______ _____ _____    ______ ____
ROOT
ATOM      1  C   UNL     1     -10.617  15.327  68.041  0.00  0.00    -0.022 C 
ATOM      2  C   UNL     1      -9.607  16.175  67.883  0.00  0.00    -0.004 C 
ENDROOT
BRANCH   2   3
ATOM      3  C   UNL     1      -9.920  17.575  67.569  0.00  0.00    -0.000 A 
ATOM      4  C   UNL     1      -9.451  18.496  68.498  0.00  0.00    -0.000 A 
ATOM      5  C   UNL     1      -9.890  19.803  68.320  0.00  0.00    -0.000 A 
ATOM      6  C   UNL     1     -10.309  20.251  67.083  0.00  0.00    -0.000 A 
ATOM      7  C   UNL     1     -10.347  19.316  66.061  0.00  0.00    -0.000 A 
ATOM      8  C   UNL     1     -10.253  17.958  66.283  0.00  0.00    -0.000 A 
ENDBRANCH   2   3
BRANCH   1   9
ATOM      9  C   UNL     1     -10.405  13.947  67.624  0.00  0.00    -0.004 A 
ATOM     10  C   UNL     1     -10.406  12.884  68.516  0.00  0.00    -0.000 A 
ATOM     11  C   UNL     1     -10.880  11.630  68.155  0.00  0.00    -0.000 A 
ATOM     12  C   UNL     1     -11.376  11.434  66.893  0.00  0.00    -0.000 A 
ATOM     13  C   UNL     1     -11.275  12.418  65.947  0.00  0.00    -0.000 A 
ATOM     14  C   UNL     1     -10.662  13.608  66.302  0.00  0.00    -0.000 A 
ENDBRANCH   1   9
BRANCH   2  15
ATOM     15  C   UNL     1      -8.203  15.736  67.902  0.00  0.00    -0.000 A 
ATOM     16  C   UNL     1      -7.404  16.229  66.883  0.00  0.00    +0.003 A 
ATOM     17  C   UNL     1      -6.043  16.392  67.054  0.00  0.00    +0.037 A 
ATOM     18  C   UNL     1      -5.534  16.538  68.333  0.00  0.00    +0.139 A 
ATOM     19  C   UNL     1      -6.280  16.012  69.362  0.00  0.00    +0.037 A 
ATOM     20  C   UNL     1      -7.614  15.691  69.159  0.00  0.00    +0.003 A 
BRANCH  18  21
ATOM     21  O   UNL     1      -4.221  16.912  68.587  0.00  0.00    -0.474 OA
BRANCH  21  22
ATOM     22  C   UNL     1      -3.933  17.464  69.870  0.00  0.00    +0.223 C 
BRANCH  22  23
ATOM     23  C   UNL     1      -4.047  18.983  69.847  0.00  0.00    +0.120 C 
BRANCH  23  24
ATOM     24  N   UNL     1      -5.168  19.331  70.682  0.00  0.00    -0.267 NA
ATOM     25  C   UNL     1      -6.274  19.905  69.955  0.00  0.00    +0.090 C 
ATOM     26  C   UNL     1      -4.707  20.217  71.722  0.00  0.00    +0.090 C 
ENDBRANCH  23  24
ENDBRANCH  22  23
ENDBRANCH  21  22
ENDBRANCH  18  21
ENDBRANCH   2  15
BRANCH   1  28
ATOM     27  C   UNL     1     -11.537  15.886  70.287  0.00  0.00    +0.005 C 
ATOM     28  C   UNL     1     -11.782  15.797  68.809  0.00  0.00    +0.026 C 
ENDBRANCH   1  28
TORSDOF 8
ENDMDL
MODEL 9
REMARK VINA RESULT:      -5.7      3.956      7.502
REMARK  Name = 
REMARK  8 active torsions:
REMARK  status: ('A' for Active; 'I' for Inactive)
REMARK    1  A    between atoms: C_2  and  C_3
REMARK    2  A    between atoms: C_3  and  C_23
REMARK    3  A    between atoms: C_4  and  C_5
REMARK    4  A    between atoms: C_4  and  C_11
REMARK    5  A    between atoms: C_14  and  O_15
REMARK    6  A    between atoms: O_15  and  C_16
REMARK    7  A    between atoms: C_16  and  C_17
REMARK    8  A    between atoms: C_17  and  N_18
REMARK                            x       y       z     vdW  Elec       q    Type
REMARK                         _______ _______ _______ _____ _____    ______ ____
ROOT
ATOM      1  C   UNL     1      -9.674  14.658  66.152  0.00  0.00    -0.022 C 
ATOM      2  C   UNL     1      -9.671  14.036  67.325  0.00  0.00    -0.004 C 
ENDROOT
BRANCH   2   3
ATOM      3  C   UNL     1      -8.420  14.017  68.096  0.00  0.00    -0.000 A 
ATOM      4  C   UNL     1      -7.375  13.331  67.487  0.00  0.00    -0.000 A 
ATOM      5  C   UNL     1      -6.245  13.143  68.273  0.00  0.00    -0.000 A 
ATOM      6  C   UNL     1      -5.969  13.979  69.337  0.00  0.00    -0.000 A 
ATOM      7  C   UNL     1      -6.913  14.953  69.625  0.00  0.00    -0.000 A 
ATOM      8  C   UNL     1      -8.185  14.944  69.093  0.00  0.00    -0.000 A 
ENDBRANCH   2   3
BRANCH   1   9
ATOM      9  C   UNL     1     -10.532  14.116  65.107  0.00  0.00    -0.004 A 
ATOM     10  C   UNL     1     -10.185  13.007  64.349  0.00  0.00    -0.000 A 
ATOM     11  C   UNL     1     -11.138  12.106  63.896  0.00  0.00    -0.000 A 
ATOM     12  C   UNL     1     -12.457  12.301  64.216  0.00  0.00    -0.000 A 
ATOM     13  C   UNL     1     -12.855  13.446  64.850  0.00  0.00    -0.000 A 
ATOM     14  C   UNL     1     -11.893  14.393  65.158  0.00  0.00    -0.000 A 
ENDBRANCH   1   9
BRANCH   2  15
ATOM     15  C   UNL     1     -10.833  13.280  67.816  0.00  0.00    -0.000 A 
ATOM     16  C   UNL     1     -10.683  11.902  67.853  0.00  0.00    +0.003 A 
ATOM     17  C   UNL     1     -11.383  11.130  68.759  0.00  0.00    +0.037 A 
ATOM     18  C   UNL     1     -11.848  11.710  69.927  0.00  0.00    +0.139 A 
ATOM     19  C   UNL     1     -12.056  13.069  69.905  0.00  0.00    +0.037 A 
ATOM     20  C   UNL     1     -11.489  13.842  68.903  0.00  0.00    +0.003 A 
BRANCH  18  21
ATOM     21  O   UNL     1     -12.372  10.973  70.981  0.00  0.00    -0.474 OA
BRANCH  21  22
ATOM     22  C   UNL     1     -11.771   9.712  71.262  0.00  0.00    +0.223 C 
BRANCH  22  23
ATOM     23  C   UNL     1     -12.709   8.829  72.077  0.00  0.00    +0.120 C 
BRANCH  23  24
ATOM     24  N   UNL     1     -12.055   7.556  72.235  0.00  0.00    -0.267 NA
ATOM     25  C   UNL     1     -10.784   7.639  72.911  0.00  0.00    +0.090 C 
ATOM     26  C   UNL     1     -11.920   6.946  70.936  0.00  0.00    +0.090 C 
ENDBRANCH  23  24
ENDBRANCH  22  23
ENDBRANCH  21  22
ENDBRANCH  18  21
ENDBRANCH   2  15
BRANCH   1  28
ATOM     27  C   UNL     1      -9.830  17.124  66.475  0.00  0.00    +0.005 C 
ATOM     28  C   UNL     1      -8.980  15.955  66.072  0.00  0.00    +0.026 C 
ENDBRANCH   1  28
TORSDOF 8
ENDMDL
