MODEL 1
REMARK VINA RESULT:      -6.2      0.000      0.000
REMARK  Name = 
REMARK  5 active torsions:
REMARK  status: ('A' for Active; 'I' for Inactive)
REMARK    1  A    between atoms: N_8  and  C_9
REMARK    2  A    between atoms: C_9  and  O_10
REMARK    3  A    between atoms: O_10  and  C_11
REMARK    4  A    between atoms: C_11  and  C_12
REMARK    5  A    between atoms: C_11  and  C_14
REMARK                            x       y       z     vdW  Elec       q    Type
REMARK                         _______ _______ _______ _____ _____    ______ ____
ROOT
ATOM      1  N   UNL     1     -10.684  19.657  67.039  0.00  0.00    -0.086 NA
ATOM      2  C   UNL     1     -10.484  18.241  67.119  0.00  0.00    +0.261 A 
ATOM      3  N   UNL     1     -10.157  17.508  66.028  0.00  0.00    -0.171 NA
ATOM      4  C   UNL     1     -10.143  16.157  66.139  0.00  0.00    +0.302 A 
ATOM      5  O   UNL     1      -9.373  15.433  65.437  0.00  0.00    -0.263 OA
ATOM      6  C   UNL     1     -10.647  15.549  67.281  0.00  0.00    +0.175 A 
ATOM      7  N   UNL     1     -11.340  14.396  67.379  0.00  0.00    -0.217 NA
ATOM      8  C   UNL     1     -12.000  14.415  68.558  0.00  0.00    +0.182 A 
ATOM      9  N   UNL     1     -11.842  15.593  69.168  0.00  0.00    -0.268 N 
ATOM     10  C   UNL     1     -10.996  16.300  68.381  0.00  0.00    +0.172 A 
ATOM     11  N   UNL     1     -10.807  17.637  68.277  0.00  0.00    -0.192 NA
ENDROOT
BRANCH   9  12
ATOM     12  C   UNL     1     -11.942  15.823  70.597  0.00  0.00    +0.258 C 
BRANCH  12  13
ATOM     13  O   UNL     1     -13.267  15.966  70.970  0.00  0.00    -0.329 OA
BRANCH  13  14
ATOM     14  C   UNL     1     -13.510  15.518  72.277  0.00  0.00    +0.183 C 
BRANCH  14  15
ATOM     15  C   UNL     1     -12.458  16.115  73.207  0.00  0.00    +0.214 C 
ATOM     16  O   UNL     1     -12.259  15.301  74.309  0.00  0.00    -0.218 OA
ENDBRANCH  14  15
BRANCH  14  17
ATOM     17  C   UNL     1     -13.220  14.020  72.257  0.00  0.00    +0.214 C 
ATOM     18  O   UNL     1     -14.341  13.276  72.571  0.00  0.00    -0.218 OA
ENDBRANCH  14  17
ENDBRANCH  13  14
ENDBRANCH  12  13
ENDBRANCH   9  12
TORSDOF 5
ENDMDL
MODEL 2
REMARK VINA RESULT:      -6.0      2.554      6.195
REMARK  Name = 
REMARK  5 active torsions:
REMARK  status: ('A' for Active; 'I' for Inactive)
REMARK    1  A    between atoms: N_8  and  C_9
REMARK    2  A    between atoms: C_9  and  O_10
REMARK    3  A    between atoms: O_10  and  C_11
REMARK    4  A    between atoms: C_11  and  C_12
REMARK    5  A    between atoms: C_11  and  C_14
REMARK                            x       y       z     vdW  Elec       q    Type
REMARK                         _______ _______ _______ _____ _____    ______ ____
ROOT
ATOM      1  N   UNL     1     -12.201  16.768  74.736  0.00  0.00    -0.086 NA
ATOM      2  C   UNL     1     -12.551  16.031  73.558  0.00  0.00    +0.261 A 
ATOM      3  N   UNL     1     -13.216  14.853  73.629  0.00  0.00    -0.171 NA
ATOM      4  C   UNL     1     -13.371  14.130  72.493  0.00  0.00    +0.302 A 
ATOM      5  O   UNL     1     -14.370  13.369  72.312  0.00  0.00    -0.263 OA
ATOM      6  C   UNL     1     -12.689  14.494  71.340  0.00  0.00    +0.175 A 
ATOM      7  N   UNL     1     -12.141  13.693  70.403  0.00  0.00    -0.217 NA
ATOM      8  C   UNL     1     -11.223  14.420  69.731  0.00  0.00    +0.182 A 
ATOM      9  N   UNL     1     -11.083  15.630  70.280  0.00  0.00    -0.268 N 
ATOM     10  C   UNL     1     -11.998  15.684  71.278  0.00  0.00    +0.172 A 
ATOM     11  N   UNL     1     -12.039  16.458  72.389  0.00  0.00    -0.192 NA
ENDROOT
BRANCH   9  12
ATOM     12  C   UNL     1     -10.618  16.820  69.594  0.00  0.00    +0.258 C 
BRANCH  12  13
ATOM     13  O   UNL     1     -11.193  16.909  68.339  0.00  0.00    -0.329 OA
BRANCH  13  14
ATOM     14  C   UNL     1     -10.242  17.070  67.320  0.00  0.00    +0.183 C 
BRANCH  14  15
ATOM     15  C   UNL     1     -10.549  18.355  66.559  0.00  0.00    +0.214 C 
ATOM     16  O   UNL     1     -11.070  19.316  67.409  0.00  0.00    -0.218 OA
ENDBRANCH  14  15
BRANCH  14  17
ATOM     17  C   UNL     1     -10.512  15.944  66.327  0.00  0.00    +0.214 C 
ATOM     18  O   UNL     1     -10.495  16.395  65.021  0.00  0.00    -0.218 OA
ENDBRANCH  14  17
ENDBRANCH  13  14
ENDBRANCH  12  13
ENDBRANCH   9  12
TORSDOF 5
ENDMDL
MODEL 3
REMARK VINA RESULT:      -6.0      2.799      4.072
REMARK  Name = 
REMARK  5 active torsions:
REMARK  status: ('A' for Active; 'I' for Inactive)
REMARK    1  A    between atoms: N_8  and  C_9
REMARK    2  A    between atoms: C_9  and  O_10
REMARK    3  A    between atoms: O_10  and  C_11
REMARK    4  A    between atoms: C_11  and  C_12
REMARK    5  A    between atoms: C_11  and  C_14
REMARK                            x       y       z     vdW  Elec       q    Type
REMARK                         _______ _______ _______ _____ _____    ______ ____
ROOT
ATOM      1  N   UNL     1     -11.604  16.706  64.042  0.00  0.00    -0.086 NA
ATOM      2  C   UNL     1     -11.579  15.348  64.495  0.00  0.00    +0.261 A 
ATOM      3  N   UNL     1     -12.475  14.434  64.049  0.00  0.00    -0.171 NA
ATOM      4  C   UNL     1     -12.500  13.214  64.637  0.00  0.00    +0.302 A 
ATOM      5  O   UNL     1     -12.850  12.170  64.006  0.00  0.00    -0.263 OA
ATOM      6  C   UNL     1     -11.768  12.987  65.795  0.00  0.00    +0.175 A 
ATOM      7  N   UNL     1     -12.102  12.231  66.862  0.00  0.00    -0.217 NA
ATOM      8  C   UNL     1     -11.346  12.640  67.904  0.00  0.00    +0.182 A 
ATOM      9  N   UNL     1     -10.619  13.709  67.570  0.00  0.00    -0.268 N 
ATOM     10  C   UNL     1     -10.872  13.925  66.256  0.00  0.00    +0.172 A 
ATOM     11  N   UNL     1     -10.752  15.052  65.514  0.00  0.00    -0.192 NA
ENDROOT
BRANCH   9  12
ATOM     12  C   UNL     1      -9.370  14.109  68.191  0.00  0.00    +0.258 C 
BRANCH  12  13
ATOM     13  O   UNL     1      -9.616  14.890  69.306  0.00  0.00    -0.329 OA
BRANCH  13  14
ATOM     14  C   UNL     1     -10.646  15.819  69.098  0.00  0.00    +0.183 C 
BRANCH  14  15
ATOM     15  C   UNL     1     -10.029  17.175  68.771  0.00  0.00    +0.214 C 
ATOM     16  O   UNL     1     -10.893  17.933  67.999  0.00  0.00    -0.218 OA
ENDBRANCH  14  15
BRANCH  14  17
ATOM     17  C   UNL     1     -11.312  16.002  70.458  0.00  0.00    +0.214 C 
ATOM     18  O   UNL     1     -12.690  15.945  70.368  0.00  0.00    -0.218 OA
ENDBRANCH  14  17
ENDBRANCH  13  14
ENDBRANCH  12  13
ENDBRANCH   9  12
TORSDOF 5
ENDMDL
MODEL 4
REMARK VINA RESULT:      -6.0      1.519      2.796
REMARK  Name = 
REMARK  5 active torsions:
REMARK  status: ('A' for Active; 'I' for Inactive)
REMARK    1  A    between atoms: N_8  and  C_9
REMARK    2  A    between atoms: C_9  and  O_10
REMARK    3  A    between atoms: O_10  and  C_11
REMARK    4  A    between atoms: C_11  and  C_12
REMARK    5  A    between atoms: C_11  and  C_14
REMARK                            x       y       z     vdW  Elec       q    Type
REMARK                         _______ _______ _______ _____ _____    ______ ____
ROOT
ATOM      1  N   UNL     1     -12.409  12.439  65.546  0.00  0.00    -0.086 NA
ATOM      2  C   UNL     1     -11.977  13.765  65.875  0.00  0.00    +0.261 A 
ATOM      3  N   UNL     1     -11.430  14.584  64.945  0.00  0.00    -0.171 NA
ATOM      4  C   UNL     1     -10.895  15.759  65.356  0.00  0.00    +0.302 A 
ATOM      5  O   UNL     1     -10.870  16.784  64.609  0.00  0.00    -0.263 OA
ATOM      6  C   UNL     1     -10.734  16.013  66.712  0.00  0.00    +0.175 A 
ATOM      7  N   UNL     1      -9.726  16.664  67.328  0.00  0.00    -0.217 NA
ATOM      8  C   UNL     1      -9.736  16.296  68.628  0.00  0.00    +0.182 A 
ATOM      9  N   UNL     1     -10.647  15.343  68.842  0.00  0.00    -0.268 N 
ATOM     10  C   UNL     1     -11.276  15.167  67.654  0.00  0.00    +0.172 A 
ATOM     11  N   UNL     1     -11.967  14.104  67.177  0.00  0.00    -0.192 NA
ENDROOT
BRANCH   9  12
ATOM     12  C   UNL     1     -11.298  15.066  70.108  0.00  0.00    +0.258 C 
BRANCH  12  13
ATOM     13  O   UNL     1     -12.404  15.881  70.269  0.00  0.00    -0.329 OA
BRANCH  13  14
ATOM     14  C   UNL     1     -13.127  15.586  71.435  0.00  0.00    +0.183 C 
BRANCH  14  15
ATOM     15  C   UNL     1     -12.283  15.968  72.647  0.00  0.00    +0.214 C 
ATOM     16  O   UNL     1     -13.091  16.342  73.708  0.00  0.00    -0.218 OA
ENDBRANCH  14  15
BRANCH  14  17
ATOM     17  C   UNL     1     -13.225  14.064  71.480  0.00  0.00    +0.214 C 
ATOM     18  O   UNL     1     -14.125  13.636  72.438  0.00  0.00    -0.218 OA
ENDBRANCH  14  17
ENDBRANCH  13  14
ENDBRANCH  12  13
ENDBRANCH   9  12
TORSDOF 5
ENDMDL
MODEL 5
REMARK VINA RESULT:      -5.9      1.984      3.439
REMARK  Name = 
REMARK  5 active torsions:
REMARK  status: ('A' for Active; 'I' for Inactive)
REMARK    1  A    between atoms: N_8  and  C_9
REMARK    2  A    between atoms: C_9  and  O_10
REMARK    3  A    between atoms: O_10  and  C_11
REMARK    4  A    between atoms: C_11  and  C_12
REMARK    5  A    between atoms: C_11  and  C_14
REMARK                            x       y       z     vdW  Elec       q    Type
REMARK                         _______ _______ _______ _____ _____    ______ ____
ROOT
ATOM      1  N   UNL     1     -13.098  12.497  64.597  0.00  0.00    -0.086 NA
ATOM      2  C   UNL     1     -12.486  13.677  65.131  0.00  0.00    +0.261 A 
ATOM      3  N   UNL     1     -11.976  14.639  64.326  0.00  0.00    -0.171 NA
ATOM      4  C   UNL     1     -11.268  15.647  64.892  0.00  0.00    +0.302 A 
ATOM      5  O   UNL     1     -11.228  16.809  64.383  0.00  0.00    -0.263 OA
ATOM      6  C   UNL     1     -10.910  15.576  66.232  0.00  0.00    +0.175 A 
ATOM      7  N   UNL     1      -9.768  15.991  66.816  0.00  0.00    -0.217 NA
ATOM      8  C   UNL     1      -9.652  15.343  67.995  0.00  0.00    +0.182 A 
ATOM      9  N   UNL     1     -10.626  14.439  68.135  0.00  0.00    -0.268 N 
ATOM     10  C   UNL     1     -11.416  14.585  67.043  0.00  0.00    +0.172 A 
ATOM     11  N   UNL     1     -12.274  13.714  66.459  0.00  0.00    -0.192 NA
ENDROOT
BRANCH   9  12
ATOM     12  C   UNL     1     -11.138  13.937  69.396  0.00  0.00    +0.258 C 
BRANCH  12  13
ATOM     13  O   UNL     1     -12.265  14.643  69.774  0.00  0.00    -0.329 OA
BRANCH  13  14
ATOM     14  C   UNL     1     -12.475  14.621  71.161  0.00  0.00    +0.183 C 
BRANCH  14  15
ATOM     15  C   UNL     1     -13.964  14.433  71.431  0.00  0.00    +0.214 C 
ATOM     16  O   UNL     1     -14.603  15.657  71.533  0.00  0.00    -0.218 OA
ENDBRANCH  14  15
BRANCH  14  17
ATOM     17  C   UNL     1     -12.157  16.033  71.644  0.00  0.00    +0.214 C 
ATOM     18  O   UNL     1     -11.829  16.055  72.986  0.00  0.00    -0.218 OA
ENDBRANCH  14  17
ENDBRANCH  13  14
ENDBRANCH  12  13
ENDBRANCH   9  12
TORSDOF 5
ENDMDL
MODEL 6
REMARK VINA RESULT:      -5.8      3.108      6.569
REMARK  Name = 
REMARK  5 active torsions:
REMARK  status: ('A' for Active; 'I' for Inactive)
REMARK    1  A    between atoms: N_8  and  C_9
REMARK    2  A    between atoms: C_9  and  O_10
REMARK    3  A    between atoms: O_10  and  C_11
REMARK    4  A    between atoms: C_11  and  C_12
REMARK    5  A    between atoms: C_11  and  C_14
REMARK                            x       y       z     vdW  Elec       q    Type
REMARK                         _______ _______ _______ _____ _____    ______ ____
ROOT
ATOM      1  N   UNL     1     -13.164  10.455  71.131  0.00  0.00    -0.086 NA
ATOM      2  C   UNL     1     -12.853  11.842  71.311  0.00  0.00    +0.261 A 
ATOM      3  N   UNL     1     -13.493  12.598  72.235  0.00  0.00    -0.171 NA
ATOM      4  C   UNL     1     -13.269  13.934  72.242  0.00  0.00    +0.302 A 
ATOM      5  O   UNL     1     -13.339  14.622  73.306  0.00  0.00    -0.263 OA
ATOM      6  C   UNL     1     -12.565  14.526  71.201  0.00  0.00    +0.175 A 
ATOM      7  N   UNL     1     -12.772  15.729  70.628  0.00  0.00    -0.217 NA
ATOM      8  C   UNL     1     -12.184  15.709  69.412  0.00  0.00    +0.182 A 
ATOM      9  N   UNL     1     -11.704  14.492  69.140  0.00  0.00    -0.268 N 
ATOM     10  C   UNL     1     -11.932  13.754  70.253  0.00  0.00    +0.172 A 
ATOM     11  N   UNL     1     -12.034  12.412  70.409  0.00  0.00    -0.192 NA
ENDROOT
BRANCH   9  12
ATOM     12  C   UNL     1     -10.614  14.199  68.230  0.00  0.00    +0.258 C 
BRANCH  12  13
ATOM     13  O   UNL     1     -11.050  14.265  66.918  0.00  0.00    -0.329 OA
BRANCH  13  14
ATOM     14  C   UNL     1     -11.953  13.240  66.599  0.00  0.00    +0.183 C 
BRANCH  14  15
ATOM     15  C   UNL     1     -11.214  11.907  66.619  0.00  0.00    +0.214 C 
ATOM     16  O   UNL     1     -11.863  10.998  67.438  0.00  0.00    -0.218 OA
ENDBRANCH  14  15
BRANCH  14  17
ATOM     17  C   UNL     1     -12.327  13.466  65.137  0.00  0.00    +0.214 C 
ATOM     18  O   UNL     1     -13.205  12.504  64.676  0.00  0.00    -0.218 OA
ENDBRANCH  14  17
ENDBRANCH  13  14
ENDBRANCH  12  13
ENDBRANCH   9  12
TORSDOF 5
ENDMDL
MODEL 7
REMARK VINA RESULT:      -5.8      1.844      3.577
REMARK  Name = 
REMARK  5 active torsions:
REMARK  status: ('A' for Active; 'I' for Inactive)
REMARK    1  A    between atoms: N_8  and  C_9
REMARK    2  A    between atoms: C_9  and  O_10
REMARK    3  A    between atoms: O_10  and  C_11
REMARK    4  A    between atoms: C_11  and  C_12
REMARK    5  A    between atoms: C_11  and  C_14
REMARK                            x       y       z     vdW  Elec       q    Type
REMARK                         _______ _______ _______ _____ _____    ______ ____
ROOT
ATOM      1  N   UNL     1     -11.467  10.513  68.642  0.00  0.00    -0.086 NA
ATOM      2  C   UNL     1     -11.765  11.824  68.149  0.00  0.00    +0.261 A 
ATOM      3  N   UNL     1     -11.842  12.082  66.821  0.00  0.00    -0.171 NA
ATOM      4  C   UNL     1     -11.965  13.371  66.421  0.00  0.00    +0.302 A 
ATOM      5  O   UNL     1     -12.569  13.688  65.351  0.00  0.00    -0.263 OA
ATOM      6  C   UNL     1     -11.810  14.401  67.339  0.00  0.00    +0.175 A 
ATOM      7  N   UNL     1     -11.236  15.608  67.155  0.00  0.00    -0.217 NA
ATOM      8  C   UNL     1     -10.904  16.092  68.371  0.00  0.00    +0.182 A 
ATOM      9  N   UNL     1     -11.143  15.185  69.322  0.00  0.00    -0.268 N 
ATOM     10  C   UNL     1     -11.714  14.133  68.686  0.00  0.00    +0.172 A 
ATOM     11  N   UNL     1     -11.789  12.829  69.043  0.00  0.00    -0.192 NA
ENDROOT
BRANCH   9  12
ATOM     12  C   UNL     1     -11.402  15.475  70.719  0.00  0.00    +0.258 C 
BRANCH  12  13
ATOM     13  O   UNL     1     -12.629  16.099  70.862  0.00  0.00    -0.329 OA
BRANCH  13  14
ATOM     14  C   UNL     1     -13.339  15.643  71.983  0.00  0.00    +0.183 C 
BRANCH  14  15
ATOM     15  C   UNL     1     -12.357  15.406  73.126  0.00  0.00    +0.214 C 
ATOM     16  O   UNL     1     -12.775  16.057  74.274  0.00  0.00    -0.218 OA
ENDBRANCH  14  15
BRANCH  14  17
ATOM     17  C   UNL     1     -13.853  14.258  71.605  0.00  0.00    +0.214 C 
ATOM     18  O   UNL     1     -14.245  13.534  72.715  0.00  0.00    -0.218 OA
ENDBRANCH  14  17
ENDBRANCH  13  14
ENDBRANCH  12  13
ENDBRANCH   9  12
TORSDOF 5
ENDMDL
MODEL 8
REMARK VINA RESULT:      -5.8      3.579      5.256
REMARK  Name = 
REMARK  5 active torsions:
REMARK  status: ('A' for Active; 'I' for Inactive)
REMARK    1  A    between atoms: N_8  and  C_9
REMARK    2  A    between atoms: C_9  and  O_10
REMARK    3  A    between atoms: O_10  and  C_11
REMARK    4  A    between atoms: C_11  and  C_12
REMARK    5  A    between atoms: C_11  and  C_14
REMARK                            x       y       z     vdW  Elec       q    Type
REMARK                         _______ _______ _______ _____ _____    ______ ____
ROOT
ATOM      1  N   UNL     1      -6.978  18.431  65.417  0.00  0.00    -0.086 NA
ATOM      2  C   UNL     1      -8.210  18.376  66.146  0.00  0.00    +0.261 A 
ATOM      3  N   UNL     1      -8.449  19.194  67.199  0.00  0.00    -0.171 NA
ATOM      4  C   UNL     1      -9.561  18.980  67.943  0.00  0.00    +0.302 A 
ATOM      5  O   UNL     1     -10.159  19.924  68.545  0.00  0.00    -0.263 OA
ATOM      6  C   UNL     1     -10.316  17.831  67.748  0.00  0.00    +0.175 A 
ATOM      7  N   UNL     1     -10.956  17.084  68.671  0.00  0.00    -0.217 NA
ATOM      8  C   UNL     1     -11.168  15.863  68.132  0.00  0.00    +0.182 A 
ATOM      9  N   UNL     1     -10.584  15.768  66.934  0.00  0.00    -0.268 N 
ATOM     10  C   UNL     1     -10.058  16.992  66.687  0.00  0.00    +0.172 A 
ATOM     11  N   UNL     1      -9.049  17.363  65.863  0.00  0.00    -0.192 NA
ENDROOT
BRANCH   9  12
ATOM     12  C   UNL     1     -10.988  14.872  65.867  0.00  0.00    +0.258 C 
BRANCH  12  13
ATOM     13  O   UNL     1     -12.173  14.238  66.193  0.00  0.00    -0.329 OA
BRANCH  13  14
ATOM     14  C   UNL     1     -12.274  12.959  65.626  0.00  0.00    +0.183 C 
BRANCH  14  15
ATOM     15  C   UNL     1     -11.375  12.003  66.403  0.00  0.00    +0.214 C 
ATOM     16  O   UNL     1     -12.043  11.480  67.497  0.00  0.00    -0.218 OA
ENDBRANCH  14  15
BRANCH  14  17
ATOM     17  C   UNL     1     -11.638  13.072  64.245  0.00  0.00    +0.214 C 
ATOM     18  O   UNL     1     -12.587  13.070  63.240  0.00  0.00    -0.218 OA
ENDBRANCH  14  17
ENDBRANCH  13  14
ENDBRANCH  12  13
ENDBRANCH   9  12
TORSDOF 5
ENDMDL
MODEL 9
REMARK VINA RESULT:      -5.7      3.732      6.035
REMARK  Name = 
REMARK  5 active torsions:
REMARK  status: ('A' for Active; 'I' for Inactive)
REMARK    1  A    between atoms: N_8  and  C_9
REMARK    2  A    between atoms: C_9  and  O_10
REMARK    3  A    between atoms: O_10  and  C_11
REMARK    4  A    between atoms: C_11  and  C_12
REMARK    5  A    between atoms: C_11  and  C_14
REMARK                            x       y       z     vdW  Elec       q    Type
REMARK                         _______ _______ _______ _____ _____    ______ ____
ROOT
ATOM      1  N   UNL     1     -12.553  13.479  63.209  0.00  0.00    -0.086 NA
ATOM      2  C   UNL     1     -12.015  13.455  64.537  0.00  0.00    +0.261 A 
ATOM      3  N   UNL     1     -12.440  12.558  65.459  0.00  0.00    -0.171 NA
ATOM      4  C   UNL     1     -12.011  12.693  66.737  0.00  0.00    +0.302 A 
ATOM      5  O   UNL     1     -11.874  11.696  67.509  0.00  0.00    -0.263 OA
ATOM      6  C   UNL     1     -11.322  13.836  67.120  0.00  0.00    +0.175 A 
ATOM      7  N   UNL     1     -11.391  14.501  68.292  0.00  0.00    -0.217 NA
ATOM      8  C   UNL     1     -10.928  15.752  68.079  0.00  0.00    +0.182 A 
ATOM      9  N   UNL     1     -10.671  15.947  66.783  0.00  0.00    -0.268 N 
ATOM     10  C   UNL     1     -10.908  14.755  66.182  0.00  0.00    +0.172 A 
ATOM     11  N   UNL     1     -11.203  14.467  64.892  0.00  0.00    -0.192 NA
ENDROOT
BRANCH   9  12
ATOM     12  C   UNL     1      -9.728  16.908  66.244  0.00  0.00    +0.258 C 
BRANCH  12  13
ATOM     13  O   UNL     1     -10.400  17.986  65.696  0.00  0.00    -0.329 OA
BRANCH  13  14
ATOM     14  C   UNL     1      -9.894  19.218  66.138  0.00  0.00    +0.183 C 
BRANCH  14  15
ATOM     15  C   UNL     1      -8.427  19.042  66.515  0.00  0.00    +0.214 C 
ATOM     16  O   UNL     1      -7.617  19.832  65.715  0.00  0.00    -0.218 OA
ENDBRANCH  14  15
BRANCH  14  17
ATOM     17  C   UNL     1     -10.612  19.506  67.453  0.00  0.00    +0.214 C 
ATOM     18  O   UNL     1      -9.725  19.632  68.506  0.00  0.00    -0.218 OA
ENDBRANCH  14  17
ENDBRANCH  13  14
ENDBRANCH  12  13
ENDBRANCH   9  12
TORSDOF 5
ENDMDL
