MODEL 1
REMARK VINA RESULT:      -9.0      0.000      0.000
REMARK  Name = 
REMARK  6 active torsions:
REMARK  status: ('A' for Active; 'I' for Inactive)
REMARK    1  A    between atoms: O_2  and  C_3
REMARK    2  A    between atoms: C_4  and  C_5
REMARK    3  A    between atoms: C_10  and  N_11
REMARK    4  A    between atoms: N_11  and  S_12
REMARK    5  A    between atoms: C_21  and  N_22
REMARK    6  A    between atoms: C_31  and  C_32
REMARK                            x       y       z     vdW  Elec       q    Type
REMARK                         _______ _______ _______ _____ _____    ______ ____
ROOT
ATOM      1  C   UNL     1     -10.522  14.662  66.975  0.00  0.00    +0.135 A 
ATOM      2  C   UNL     1     -11.109  13.445  67.298  0.00  0.00    +0.013 A 
ATOM      3  C   UNL     1     -11.673  13.376  68.558  0.00  0.00    +0.016 A 
ATOM      4  C   UNL     1     -11.656  14.462  69.425  0.00  0.00    +0.068 A 
ATOM      5  C   UNL     1     -10.714  15.454  69.179  0.00  0.00    +0.021 A 
ATOM      6  C   UNL     1     -10.114  15.567  67.943  0.00  0.00    +0.035 A 
ENDROOT
BRANCH   6   7
ATOM      7  C   UNL     1      -8.967  16.450  67.699  0.00  0.00    +0.003 A 
ATOM      8  C   UNL     1      -7.730  16.229  68.254  0.00  0.00    +0.000 A 
ATOM      9  C   UNL     1      -6.852  17.290  68.433  0.00  0.00    +0.000 A 
ATOM     10  C   UNL     1      -7.236  18.605  68.199  0.00  0.00    +0.001 A 
ATOM     11  C   UNL     1      -6.834  19.610  69.069  0.00  0.00    +0.018 A 
ATOM     12  C   UNL     1      -5.881  19.345  70.045  0.00  0.00    +0.091 A 
ATOM     13  C   UNL     1      -5.156  18.174  69.860  0.00  0.00    +0.018 A 
ATOM     14  C   UNL     1      -8.335  18.766  67.364  0.00  0.00    +0.000 A 
ATOM     15  C   UNL     1      -5.628  17.136  69.066  0.00  0.00    +0.001 A 
ATOM     16  C   UNL     1      -9.151  17.679  67.076  0.00  0.00    +0.000 A 
BRANCH  12  17
ATOM     17  N   UNL     1      -5.807  20.088  71.251  0.00  0.00    -0.101 NA
BRANCH  17  18
ATOM     18  S   UNL     1      -4.335  20.876  71.661  0.00  0.00    +0.075 S 
ATOM     19  O   UNL     1      -4.665  22.173  72.351  0.00  0.00    -0.153 OA
ATOM     20  O   UNL     1      -3.533  20.064  72.653  0.00  0.00    -0.153 OA
ATOM     21  C   UNL     1      -3.386  21.244  70.220  0.00  0.00    +0.202 C 
ENDBRANCH  17  18
ENDBRANCH  12  17
ENDBRANCH   6   7
BRANCH   4  22
ATOM     22  N   UNL     1     -12.534  14.523  70.548  0.00  0.00    -0.257 N 
ATOM     23  C   UNL     1     -12.678  13.470  71.389  0.00  0.00    +0.357 A 
ATOM     24  O   UNL     1     -12.440  12.327  70.898  0.00  0.00    -0.244 OA
ATOM     25  N   UNL     1     -12.824  13.647  72.725  0.00  0.00    -0.153 NA
ATOM     26  C   UNL     1     -12.878  14.894  73.255  0.00  0.00    +0.285 A 
ATOM     27  O   UNL     1     -12.306  15.137  74.360  0.00  0.00    -0.265 OA
ATOM     28  C   UNL     1     -13.202  15.904  72.358  0.00  0.00    +0.082 A 
ATOM     29  C   UNL     1     -13.022  15.702  71.001  0.00  0.00    +0.089 A 
ENDBRANCH   4  22
BRANCH   2  30
ATOM     30  C   UNL     1     -10.910  12.236  66.441  0.00  0.00    +0.022 C 
ATOM     31  C   UNL     1     -11.922  12.241  65.302  0.00  0.00    +0.004 C 
ATOM     32  C   UNL     1     -11.152  11.015  67.309  0.00  0.00    +0.004 C 
ATOM     33  C   UNL     1      -9.494  12.157  65.939  0.00  0.00    +0.004 C 
ENDBRANCH   2  30
BRANCH   1  35
ATOM     34  C   UNL     1     -11.264  15.654  64.940  0.00  0.00    +0.252 C 
ATOM     35  O   UNL     1     -10.260  14.927  65.645  0.00  0.00    -0.472 OA
ENDBRANCH   1  35
TORSDOF 6
ENDMDL
MODEL 2
REMARK VINA RESULT:      -8.0      1.898      2.199
REMARK  Name = 
REMARK  6 active torsions:
REMARK  status: ('A' for Active; 'I' for Inactive)
REMARK    1  A    between atoms: O_2  and  C_3
REMARK    2  A    between atoms: C_4  and  C_5
REMARK    3  A    between atoms: C_10  and  N_11
REMARK    4  A    between atoms: N_11  and  S_12
REMARK    5  A    between atoms: C_21  and  N_22
REMARK    6  A    between atoms: C_31  and  C_32
REMARK                            x       y       z     vdW  Elec       q    Type
REMARK                         _______ _______ _______ _____ _____    ______ ____
ROOT
ATOM      1  C   UNL     1     -10.678  14.381  66.412  0.00  0.00    +0.135 A 
ATOM      2  C   UNL     1     -10.757  13.153  67.056  0.00  0.00    +0.013 A 
ATOM      3  C   UNL     1     -11.041  13.212  68.408  0.00  0.00    +0.016 A 
ATOM      4  C   UNL     1     -11.241  14.422  69.059  0.00  0.00    +0.068 A 
ATOM      5  C   UNL     1     -10.744  15.563  68.442  0.00  0.00    +0.021 A 
ATOM      6  C   UNL     1     -10.438  15.562  67.097  0.00  0.00    +0.035 A 
ENDROOT
BRANCH   6   7
ATOM      7  C   UNL     1      -9.714  16.664  66.451  0.00  0.00    +0.003 A 
ATOM      8  C   UNL     1      -8.352  16.655  66.277  0.00  0.00    +0.000 A 
ATOM      9  C   UNL     1      -7.662  17.854  66.153  0.00  0.00    +0.000 A 
ATOM     10  C   UNL     1      -8.287  19.080  66.340  0.00  0.00    +0.001 A 
ATOM     11  C   UNL     1      -7.636  20.092  67.033  0.00  0.00    +0.018 A 
ATOM     12  C   UNL     1      -6.290  19.960  67.355  0.00  0.00    +0.091 A 
ATOM     13  C   UNL     1      -5.613  18.965  66.662  0.00  0.00    +0.018 A 
ATOM     14  C   UNL     1      -9.669  19.074  66.196  0.00  0.00    +0.000 A 
ATOM     15  C   UNL     1      -6.279  17.903  66.063  0.00  0.00    +0.001 A 
ATOM     16  C   UNL     1     -10.360  17.868  66.192  0.00  0.00    +0.000 A 
BRANCH  12  17
ATOM     17  N   UNL     1      -5.708  20.632  68.460  0.00  0.00    -0.101 NA
BRANCH  17  18
ATOM     18  S   UNL     1      -5.450  19.769  69.923  0.00  0.00    +0.075 S 
ATOM     19  O   UNL     1      -5.964  20.604  71.067  0.00  0.00    -0.153 OA
ATOM     20  O   UNL     1      -6.244  18.483  69.953  0.00  0.00    -0.153 OA
ATOM     21  C   UNL     1      -3.733  19.465  70.191  0.00  0.00    +0.202 C 
ENDBRANCH  17  18
ENDBRANCH  12  17
ENDBRANCH   6   7
BRANCH   4  22
ATOM     22  N   UNL     1     -11.883  14.477  70.333  0.00  0.00    -0.257 N 
ATOM     23  C   UNL     1     -12.262  15.657  70.882  0.00  0.00    +0.357 A 
ATOM     24  O   UNL     1     -11.609  16.678  70.515  0.00  0.00    -0.244 OA
ATOM     25  N   UNL     1     -13.417  15.771  71.582  0.00  0.00    -0.153 NA
ATOM     26  C   UNL     1     -14.207  14.690  71.795  0.00  0.00    +0.285 A 
ATOM     27  O   UNL     1     -15.468  14.808  71.746  0.00  0.00    -0.265 OA
ATOM     28  C   UNL     1     -13.578  13.460  71.645  0.00  0.00    +0.082 A 
ATOM     29  C   UNL     1     -12.412  13.369  70.905  0.00  0.00    +0.089 A 
ENDBRANCH   4  22
BRANCH   2  30
ATOM     30  C   UNL     1     -10.314  11.894  66.382  0.00  0.00    +0.022 C 
ATOM     31  C   UNL     1     -11.149  11.659  65.130  0.00  0.00    +0.004 C 
ATOM     32  C   UNL     1     -10.549  10.750  67.352  0.00  0.00    +0.004 C 
ATOM     33  C   UNL     1      -8.840  11.933  66.081  0.00  0.00    +0.004 C 
ENDBRANCH   2  30
BRANCH   1  35
ATOM     34  C   UNL     1     -11.991  14.836  64.477  0.00  0.00    +0.252 C 
ATOM     35  O   UNL     1     -10.752  14.400  65.032  0.00  0.00    -0.472 OA
ENDBRANCH   1  35
TORSDOF 6
ENDMDL
MODEL 3
REMARK VINA RESULT:      -8.0      2.627      5.130
REMARK  Name = 
REMARK  6 active torsions:
REMARK  status: ('A' for Active; 'I' for Inactive)
REMARK    1  A    between atoms: O_2  and  C_3
REMARK    2  A    between atoms: C_4  and  C_5
REMARK    3  A    between atoms: C_10  and  N_11
REMARK    4  A    between atoms: N_11  and  S_12
REMARK    5  A    between atoms: C_21  and  N_22
REMARK    6  A    between atoms: C_31  and  C_32
REMARK                            x       y       z     vdW  Elec       q    Type
REMARK                         _______ _______ _______ _____ _____    ______ ____
ROOT
ATOM      1  C   UNL     1     -10.287  15.338  68.472  0.00  0.00    +0.135 A 
ATOM      2  C   UNL     1     -11.193  14.403  68.956  0.00  0.00    +0.013 A 
ATOM      3  C   UNL     1     -11.632  13.472  68.032  0.00  0.00    +0.016 A 
ATOM      4  C   UNL     1     -11.182  13.480  66.718  0.00  0.00    +0.068 A 
ATOM      5  C   UNL     1     -10.625  14.663  66.246  0.00  0.00    +0.021 A 
ATOM      6  C   UNL     1     -10.174  15.629  67.121  0.00  0.00    +0.035 A 
ENDROOT
BRANCH   6   7
ATOM      7  C   UNL     1      -9.782  16.973  66.680  0.00  0.00    +0.003 A 
ATOM      8  C   UNL     1      -8.541  17.249  66.158  0.00  0.00    +0.000 A 
ATOM      9  C   UNL     1      -8.032  18.539  66.232  0.00  0.00    +0.000 A 
ATOM     10  C   UNL     1      -8.677  19.541  66.947  0.00  0.00    +0.001 A 
ATOM     11  C   UNL     1      -7.937  20.426  67.721  0.00  0.00    +0.018 A 
ATOM     12  C   UNL     1      -6.551  20.450  67.618  0.00  0.00    +0.091 A 
ATOM     13  C   UNL     1      -6.032  19.813  66.498  0.00  0.00    +0.018 A 
ATOM     14  C   UNL     1     -10.030  19.332  67.178  0.00  0.00    +0.000 A 
ATOM     15  C   UNL     1      -6.752  18.852  65.799  0.00  0.00    +0.001 A 
ATOM     16  C   UNL     1     -10.579  18.070  66.986  0.00  0.00    +0.000 A 
BRANCH  12  17
ATOM     17  N   UNL     1      -5.722  20.891  68.681  0.00  0.00    -0.101 NA
BRANCH  17  18
ATOM     18  S   UNL     1      -5.527  19.886  70.062  0.00  0.00    +0.075 S 
ATOM     19  O   UNL     1      -6.372  20.441  71.178  0.00  0.00    -0.153 OA
ATOM     20  O   UNL     1      -6.039  18.487  69.803  0.00  0.00    -0.153 OA
ATOM     21  C   UNL     1      -3.848  19.862  70.601  0.00  0.00    +0.202 C 
ENDBRANCH  17  18
ENDBRANCH  12  17
ENDBRANCH   6   7
BRANCH   4  22
ATOM     22  N   UNL     1     -11.337  12.336  65.879  0.00  0.00    -0.257 N 
ATOM     23  C   UNL     1     -12.077  12.388  64.745  0.00  0.00    +0.357 A 
ATOM     24  O   UNL     1     -12.999  13.257  64.720  0.00  0.00    -0.244 OA
ATOM     25  N   UNL     1     -11.700  11.727  63.624  0.00  0.00    -0.153 NA
ATOM     26  C   UNL     1     -10.588  10.951  63.620  0.00  0.00    +0.285 A 
ATOM     27  O   UNL     1      -9.831  10.936  62.603  0.00  0.00    -0.265 OA
ATOM     28  C   UNL     1     -10.142  10.550  64.873  0.00  0.00    +0.082 A 
ATOM     29  C   UNL     1     -10.526  11.258  65.998  0.00  0.00    +0.089 A 
ENDBRANCH   4  22
BRANCH   2  30
ATOM     30  C   UNL     1     -11.827  14.560  70.301  0.00  0.00    +0.022 C 
ATOM     31  C   UNL     1     -12.405  13.226  70.757  0.00  0.00    +0.004 C 
ATOM     32  C   UNL     1     -12.957  15.563  70.158  0.00  0.00    +0.004 C 
ATOM     33  C   UNL     1     -10.849  15.124  71.296  0.00  0.00    +0.004 C 
ENDBRANCH   2  30
BRANCH   1  35
ATOM     34  C   UNL     1      -8.150  15.766  69.433  0.00  0.00    +0.252 C 
ATOM     35  O   UNL     1      -9.544  16.060  69.386  0.00  0.00    -0.472 OA
ENDBRANCH   1  35
TORSDOF 6
ENDMDL
MODEL 4
REMARK VINA RESULT:      -8.0      5.140      7.936
REMARK  Name = 
REMARK  6 active torsions:
REMARK  status: ('A' for Active; 'I' for Inactive)
REMARK    1  A    between atoms: O_2  and  C_3
REMARK    2  A    between atoms: C_4  and  C_5
REMARK    3  A    between atoms: C_10  and  N_11
REMARK    4  A    between atoms: N_11  and  S_12
REMARK    5  A    between atoms: C_21  and  N_22
REMARK    6  A    between atoms: C_31  and  C_32
REMARK                            x       y       z     vdW  Elec       q    Type
REMARK                         _______ _______ _______ _____ _____    ______ ____
ROOT
ATOM      1  C   UNL     1     -10.932  12.221  68.462  0.00  0.00    +0.135 A 
ATOM      2  C   UNL     1     -11.385  13.370  67.829  0.00  0.00    +0.013 A 
ATOM      3  C   UNL     1     -12.076  14.257  68.635  0.00  0.00    +0.016 A 
ATOM      4  C   UNL     1     -12.284  14.005  69.985  0.00  0.00    +0.068 A 
ATOM      5  C   UNL     1     -12.164  12.687  70.409  0.00  0.00    +0.021 A 
ATOM      6  C   UNL     1     -11.491  11.758  69.644  0.00  0.00    +0.035 A 
ENDROOT
BRANCH   6   7
ATOM      7  C   UNL     1     -11.523  10.320  69.939  0.00  0.00    +0.003 A 
ATOM      8  C   UNL     1     -11.715   9.827  71.207  0.00  0.00    +0.000 A 
ATOM      9  C   UNL     1     -11.245   8.563  71.536  0.00  0.00    +0.000 A 
ATOM     10  C   UNL     1     -10.456   7.825  70.662  0.00  0.00    +0.001 A 
ATOM     11  C   UNL     1      -9.368   7.108  71.146  0.00  0.00    +0.018 A 
ATOM     12  C   UNL     1      -9.191   6.954  72.516  0.00  0.00    +0.091 A 
ATOM     13  C   UNL     1     -10.305   7.248  73.292  0.00  0.00    +0.018 A 
ATOM     14  C   UNL     1     -10.547   8.188  69.325  0.00  0.00    +0.000 A 
ATOM     15  C   UNL     1     -11.335   8.054  72.823  0.00  0.00    +0.001 A 
ATOM     16  C   UNL     1     -11.131   9.399  68.974  0.00  0.00    +0.000 A 
BRANCH  12  17
ATOM     17  N   UNL     1      -7.914   6.733  73.093  0.00  0.00    -0.101 NA
BRANCH  17  18
ATOM     18  S   UNL     1      -6.953   8.084  73.542  0.00  0.00    +0.075 S 
ATOM     19  O   UNL     1      -6.883   9.029  72.372  0.00  0.00    -0.153 OA
ATOM     20  O   UNL     1      -7.589   8.862  74.672  0.00  0.00    -0.153 OA
ATOM     21  C   UNL     1      -5.310   7.591  73.952  0.00  0.00    +0.202 C 
ENDBRANCH  17  18
ENDBRANCH  12  17
ENDBRANCH   6   7
BRANCH   4  22
ATOM     22  N   UNL     1     -12.657  15.051  70.881  0.00  0.00    -0.257 N 
ATOM     23  C   UNL     1     -13.823  15.006  71.571  0.00  0.00    +0.357 A 
ATOM     24  O   UNL     1     -14.756  14.328  71.047  0.00  0.00    -0.244 OA
ATOM     25  N   UNL     1     -13.904  15.449  72.849  0.00  0.00    -0.153 NA
ATOM     26  C   UNL     1     -12.825  15.996  73.462  0.00  0.00    +0.285 A 
ATOM     27  O   UNL     1     -12.599  15.750  74.684  0.00  0.00    -0.265 OA
ATOM     28  C   UNL     1     -11.829  16.451  72.608  0.00  0.00    +0.082 A 
ATOM     29  C   UNL     1     -11.757  15.965  71.314  0.00  0.00    +0.089 A 
ENDBRANCH   4  22
BRANCH   2  30
ATOM     30  C   UNL     1     -11.346  13.503  66.340  0.00  0.00    +0.022 C 
ATOM     31  C   UNL     1     -10.066  14.217  65.920  0.00  0.00    +0.004 C 
ATOM     32  C   UNL     1     -12.538  14.345  65.924  0.00  0.00    +0.004 C 
ATOM     33  C   UNL     1     -11.489  12.161  65.675  0.00  0.00    +0.004 C 
ENDBRANCH   2  30
BRANCH   1  35
ATOM     34  C   UNL     1      -8.607  11.782  68.189  0.00  0.00    +0.252 C 
ATOM     35  O   UNL     1      -9.954  11.473  67.837  0.00  0.00    -0.472 OA
ENDBRANCH   1  35
TORSDOF 6
ENDMDL
MODEL 5
REMARK VINA RESULT:      -8.0      3.109      3.630
REMARK  Name = 
REMARK  6 active torsions:
REMARK  status: ('A' for Active; 'I' for Inactive)
REMARK    1  A    between atoms: O_2  and  C_3
REMARK    2  A    between atoms: C_4  and  C_5
REMARK    3  A    between atoms: C_10  and  N_11
REMARK    4  A    between atoms: N_11  and  S_12
REMARK    5  A    between atoms: C_21  and  N_22
REMARK    6  A    between atoms: C_31  and  C_32
REMARK                            x       y       z     vdW  Elec       q    Type
REMARK                         _______ _______ _______ _____ _____    ______ ____
ROOT
ATOM      1  C   UNL     1     -10.428  14.664  67.110  0.00  0.00    +0.135 A 
ATOM      2  C   UNL     1     -11.157  13.494  67.281  0.00  0.00    +0.013 A 
ATOM      3  C   UNL     1     -11.785  13.361  68.506  0.00  0.00    +0.016 A 
ATOM      4  C   UNL     1     -11.691  14.344  69.483  0.00  0.00    +0.068 A 
ATOM      5  C   UNL     1     -10.638  15.244  69.378  0.00  0.00    +0.021 A 
ATOM      6  C   UNL     1      -9.971  15.414  68.183  0.00  0.00    +0.035 A 
ENDROOT
BRANCH   6   7
ATOM      7  C   UNL     1      -8.726  16.184  68.077  0.00  0.00    +0.003 A 
ATOM      8  C   UNL     1      -8.679  17.546  68.247  0.00  0.00    +0.000 A 
ATOM      9  C   UNL     1      -7.658  18.282  67.660  0.00  0.00    +0.000 A 
ATOM     10  C   UNL     1      -6.751  17.703  66.780  0.00  0.00    +0.001 A 
ATOM     11  C   UNL     1      -6.359  18.390  65.638  0.00  0.00    +0.018 A 
ATOM     12  C   UNL     1      -6.700  19.727  65.478  0.00  0.00    +0.091 A 
ATOM     13  C   UNL     1      -7.125  20.370  66.635  0.00  0.00    +0.018 A 
ATOM     14  C   UNL     1      -6.625  16.323  66.876  0.00  0.00    +0.000 A 
ATOM     15  C   UNL     1      -7.612  19.666  67.729  0.00  0.00    +0.001 A 
ATOM     16  C   UNL     1      -7.577  15.587  67.570  0.00  0.00    +0.000 A 
BRANCH  12  17
ATOM     17  N   UNL     1      -6.822  20.329  64.200  0.00  0.00    -0.101 NA
BRANCH  17  18
ATOM     18  S   UNL     1      -5.410  20.573  63.251  0.00  0.00    +0.075 S 
ATOM     19  O   UNL     1      -5.664  21.715  62.303  0.00  0.00    -0.153 OA
ATOM     20  O   UNL     1      -4.236  20.990  64.107  0.00  0.00    -0.153 OA
ATOM     21  C   UNL     1      -5.027  19.139  62.297  0.00  0.00    +0.202 C 
ENDBRANCH  17  18
ENDBRANCH  12  17
ENDBRANCH   6   7
BRANCH   4  22
ATOM     22  N   UNL     1     -12.610  14.388  70.574  0.00  0.00    -0.257 N 
ATOM     23  C   UNL     1     -12.743  13.344  71.428  0.00  0.00    +0.357 A 
ATOM     24  O   UNL     1     -12.445  12.203  70.964  0.00  0.00    -0.244 OA
ATOM     25  N   UNL     1     -12.943  13.536  72.754  0.00  0.00    -0.153 NA
ATOM     26  C   UNL     1     -13.063  14.788  73.261  0.00  0.00    +0.285 A 
ATOM     27  O   UNL     1     -12.540  15.070  74.380  0.00  0.00    -0.265 OA
ATOM     28  C   UNL     1     -13.394  15.771  72.336  0.00  0.00    +0.082 A 
ATOM     29  C   UNL     1     -13.158  15.555  70.990  0.00  0.00    +0.089 A 
ENDBRANCH   4  22
BRANCH   2  30
ATOM     30  C   UNL     1     -11.049  12.364  66.308  0.00  0.00    +0.022 C 
ATOM     31  C   UNL     1     -12.138  12.491  65.249  0.00  0.00    +0.004 C 
ATOM     32  C   UNL     1     -11.260  11.075  67.079  0.00  0.00    +0.004 C 
ATOM     33  C   UNL     1      -9.674  12.304  65.700  0.00  0.00    +0.004 C 
ENDBRANCH   2  30
BRANCH   1  35
ATOM     34  C   UNL     1     -10.927  15.984  65.191  0.00  0.00    +0.252 C 
ATOM     35  O   UNL     1     -10.076  15.032  65.826  0.00  0.00    -0.472 OA
ENDBRANCH   1  35
TORSDOF 6
ENDMDL
MODEL 6
REMARK VINA RESULT:      -8.0      4.372      8.038
REMARK  Name = 
REMARK  6 active torsions:
REMARK  status: ('A' for Active; 'I' for Inactive)
REMARK    1  A    between atoms: O_2  and  C_3
REMARK    2  A    between atoms: C_4  and  C_5
REMARK    3  A    between atoms: C_10  and  N_11
REMARK    4  A    between atoms: N_11  and  S_12
REMARK    5  A    between atoms: C_21  and  N_22
REMARK    6  A    between atoms: C_31  and  C_32
REMARK                            x       y       z     vdW  Elec       q    Type
REMARK                         _______ _______ _______ _____ _____    ______ ____
ROOT
ATOM      1  C   UNL     1     -10.051  14.180  67.536  0.00  0.00    +0.135 A 
ATOM      2  C   UNL     1     -10.190  15.416  68.154  0.00  0.00    +0.013 A 
ATOM      3  C   UNL     1     -11.210  15.502  69.084  0.00  0.00    +0.016 A 
ATOM      4  C   UNL     1     -12.024  14.415  69.376  0.00  0.00    +0.068 A 
ATOM      5  C   UNL     1     -12.074  13.392  68.438  0.00  0.00    +0.021 A 
ATOM      6  C   UNL     1     -11.087  13.260  67.483  0.00  0.00    +0.035 A 
ENDROOT
BRANCH   6   7
ATOM      7  C   UNL     1     -11.205  12.337  66.348  0.00  0.00    +0.003 A 
ATOM      8  C   UNL     1     -10.530  11.142  66.289  0.00  0.00    +0.000 A 
ATOM      9  C   UNL     1     -10.253  10.563  65.058  0.00  0.00    +0.000 A 
ATOM     10  C   UNL     1     -10.513  11.224  63.863  0.00  0.00    +0.001 A 
ATOM     11  C   UNL     1      -9.598  11.157  62.821  0.00  0.00    +0.018 A 
ATOM     12  C   UNL     1      -8.533  10.266  62.886  0.00  0.00    +0.091 A 
ATOM     13  C   UNL     1      -8.654   9.270  63.847  0.00  0.00    +0.018 A 
ATOM     14  C   UNL     1     -11.454  12.243  63.938  0.00  0.00    +0.000 A 
ATOM     15  C   UNL     1      -9.501   9.404  64.940  0.00  0.00    +0.001 A 
ATOM     16  C   UNL     1     -11.833  12.747  65.177  0.00  0.00    +0.000 A 
BRANCH  12  17
ATOM     17  N   UNL     1      -7.319  10.488  62.186  0.00  0.00    -0.101 NA
BRANCH  17  18
ATOM     18  S   UNL     1      -6.848   9.383  60.957  0.00  0.00    +0.075 S 
ATOM     19  O   UNL     1      -6.028  10.127  59.936  0.00  0.00    -0.153 OA
ATOM     20  O   UNL     1      -5.951   8.297  61.506  0.00  0.00    -0.153 OA
ATOM     21  C   UNL     1      -8.254   8.698  60.141  0.00  0.00    +0.202 C 
ENDBRANCH  17  18
ENDBRANCH  12  17
ENDBRANCH   6   7
BRANCH   4  22
ATOM     22  N   UNL     1     -12.813  14.383  70.564  0.00  0.00    -0.257 N 
ATOM     23  C   UNL     1     -12.753  13.337  71.424  0.00  0.00    +0.357 A 
ATOM     24  O   UNL     1     -12.406  12.225  70.926  0.00  0.00    -0.244 OA
ATOM     25  N   UNL     1     -12.817  13.521  72.765  0.00  0.00    -0.153 NA
ATOM     26  C   UNL     1     -12.993  14.760  73.286  0.00  0.00    +0.285 A 
ATOM     27  O   UNL     1     -12.374  15.097  74.340  0.00  0.00    -0.265 OA
ATOM     28  C   UNL     1     -13.515  15.702  72.408  0.00  0.00    +0.082 A 
ATOM     29  C   UNL     1     -13.415  15.499  71.043  0.00  0.00    +0.089 A 
ENDBRANCH   4  22
BRANCH   2  30
ATOM     30  C   UNL     1      -9.454  16.619  67.657  0.00  0.00    +0.022 C 
ATOM     31  C   UNL     1      -8.140  16.769  68.415  0.00  0.00    +0.004 C 
ATOM     32  C   UNL     1     -10.322  17.832  67.932  0.00  0.00    +0.004 C 
ATOM     33  C   UNL     1      -9.243  16.545  66.169  0.00  0.00    +0.004 C 
ENDBRANCH   2  30
BRANCH   1  35
ATOM     34  C   UNL     1      -7.865  13.240  67.641  0.00  0.00    +0.252 C 
ATOM     35  O   UNL     1      -8.868  13.908  66.878  0.00  0.00    -0.472 OA
ENDBRANCH   1  35
TORSDOF 6
ENDMDL
MODEL 7
REMARK VINA RESULT:      -7.9      2.874      3.482
REMARK  Name = 
REMARK  6 active torsions:
REMARK  status: ('A' for Active; 'I' for Inactive)
REMARK    1  A    between atoms: O_2  and  C_3
REMARK    2  A    between atoms: C_4  and  C_5
REMARK    3  A    between atoms: C_10  and  N_11
REMARK    4  A    between atoms: N_11  and  S_12
REMARK    5  A    between atoms: C_21  and  N_22
REMARK    6  A    between atoms: C_31  and  C_32
REMARK                            x       y       z     vdW  Elec       q    Type
REMARK                         _______ _______ _______ _____ _____    ______ ____
ROOT
ATOM      1  C   UNL     1     -10.261  15.663  67.097  0.00  0.00    +0.135 A 
ATOM      2  C   UNL     1     -11.307  14.800  66.797  0.00  0.00    +0.013 A 
ATOM      3  C   UNL     1     -12.001  14.309  67.887  0.00  0.00    +0.016 A 
ATOM      4  C   UNL     1     -11.669  14.672  69.186  0.00  0.00    +0.068 A 
ATOM      5  C   UNL     1     -10.395  15.185  69.395  0.00  0.00    +0.021 A 
ATOM      6  C   UNL     1      -9.654  15.684  68.344  0.00  0.00    +0.035 A 
ENDROOT
BRANCH   6   7
ATOM      7  C   UNL     1      -8.234  16.033  68.475  0.00  0.00    +0.003 A 
ATOM      8  C   UNL     1      -7.811  17.272  68.890  0.00  0.00    +0.000 A 
ATOM      9  C   UNL     1      -6.551  17.731  68.526  0.00  0.00    +0.000 A 
ATOM     10  C   UNL     1      -5.750  17.034  67.630  0.00  0.00    +0.001 A 
ATOM     11  C   UNL     1      -5.029  17.724  66.663  0.00  0.00    +0.018 A 
ATOM     12  C   UNL     1      -4.938  19.110  66.720  0.00  0.00    +0.091 A 
ATOM     13  C   UNL     1      -5.300  19.676  67.936  0.00  0.00    +0.018 A 
ATOM     14  C   UNL     1      -6.049  15.686  67.486  0.00  0.00    +0.000 A 
ATOM     15  C   UNL     1      -6.110  19.006  68.845  0.00  0.00    +0.001 A 
ATOM     16  C   UNL     1      -7.256  15.189  67.961  0.00  0.00    +0.000 A 
BRANCH  12  17
ATOM     17  N   UNL     1      -4.711  19.900  65.564  0.00  0.00    -0.101 NA
BRANCH  17  18
ATOM     18  S   UNL     1      -5.905  19.939  64.328  0.00  0.00    +0.075 S 
ATOM     19  O   UNL     1      -5.767  18.693  63.493  0.00  0.00    -0.153 OA
ATOM     20  O   UNL     1      -7.301  19.903  64.908  0.00  0.00    -0.153 OA
ATOM     21  C   UNL     1      -5.687  21.336  63.274  0.00  0.00    +0.202 C 
ENDBRANCH  17  18
ENDBRANCH  12  17
ENDBRANCH   6   7
BRANCH   4  22
ATOM     22  N   UNL     1     -12.584  14.473  70.264  0.00  0.00    -0.257 N 
ATOM     23  C   UNL     1     -12.581  13.329  70.991  0.00  0.00    +0.357 A 
ATOM     24  O   UNL     1     -12.140  12.297  70.404  0.00  0.00    -0.244 OA
ATOM     25  N   UNL     1     -12.800  13.341  72.328  0.00  0.00    -0.153 NA
ATOM     26  C   UNL     1     -13.077  14.501  72.973  0.00  0.00    +0.285 A 
ATOM     27  O   UNL     1     -12.592  14.717  74.124  0.00  0.00    -0.265 OA
ATOM     28  C   UNL     1     -13.533  15.534  72.162  0.00  0.00    +0.082 A 
ATOM     29  C   UNL     1     -13.275  15.506  70.803  0.00  0.00    +0.089 A 
ENDBRANCH   4  22
BRANCH   2  30
ATOM     30  C   UNL     1     -11.490  14.254  65.417  0.00  0.00    +0.022 C 
ATOM     31  C   UNL     1     -12.087  15.327  64.514  0.00  0.00    +0.004 C 
ATOM     32  C   UNL     1     -12.463  13.093  65.510  0.00  0.00    +0.004 C 
ATOM     33  C   UNL     1     -10.195  13.713  64.874  0.00  0.00    +0.004 C 
ENDBRANCH   2  30
BRANCH   1  35
ATOM     34  C   UNL     1     -10.117  17.836  66.134  0.00  0.00    +0.252 C 
ATOM     35  O   UNL     1      -9.759  16.457  66.085  0.00  0.00    -0.472 OA
ENDBRANCH   1  35
TORSDOF 6
ENDMDL
MODEL 8
REMARK VINA RESULT:      -7.8      2.856      3.524
REMARK  Name = 
REMARK  6 active torsions:
REMARK  status: ('A' for Active; 'I' for Inactive)
REMARK    1  A    between atoms: O_2  and  C_3
REMARK    2  A    between atoms: C_4  and  C_5
REMARK    3  A    between atoms: C_10  and  N_11
REMARK    4  A    between atoms: N_11  and  S_12
REMARK    5  A    between atoms: C_21  and  N_22
REMARK    6  A    between atoms: C_31  and  C_32
REMARK                            x       y       z     vdW  Elec       q    Type
REMARK                         _______ _______ _______ _____ _____    ______ ____
ROOT
ATOM      1  C   UNL     1     -10.280  15.562  66.912  0.00  0.00    +0.135 A 
ATOM      2  C   UNL     1     -11.308  14.657  66.683  0.00  0.00    +0.013 A 
ATOM      3  C   UNL     1     -11.966  14.211  67.815  0.00  0.00    +0.016 A 
ATOM      4  C   UNL     1     -11.617  14.655  69.084  0.00  0.00    +0.068 A 
ATOM      5  C   UNL     1     -10.353  15.212  69.235  0.00  0.00    +0.021 A 
ATOM      6  C   UNL     1      -9.648  15.670  68.142  0.00  0.00    +0.035 A 
ENDROOT
BRANCH   6   7
ATOM      7  C   UNL     1      -8.236  16.063  68.221  0.00  0.00    +0.003 A 
ATOM      8  C   UNL     1      -7.206  15.172  68.037  0.00  0.00    +0.000 A 
ATOM      9  C   UNL     1      -5.963  15.426  68.601  0.00  0.00    +0.000 A 
ATOM     10  C   UNL     1      -5.757  16.489  69.472  0.00  0.00    +0.001 A 
ATOM     11  C   UNL     1      -4.967  16.319  70.601  0.00  0.00    +0.018 A 
ATOM     12  C   UNL     1      -4.213  15.161  70.754  0.00  0.00    +0.091 A 
ATOM     13  C   UNL     1      -4.050  14.406  69.599  0.00  0.00    +0.018 A 
ATOM     14  C   UNL     1      -6.687  17.518  69.386  0.00  0.00    +0.000 A 
ATOM     15  C   UNL     1      -4.917  14.519  68.520  0.00  0.00    +0.001 A 
ATOM     16  C   UNL     1      -7.886  17.315  68.714  0.00  0.00    +0.000 A 
BRANCH  12  17
ATOM     17  N   UNL     1      -3.832  14.671  72.029  0.00  0.00    -0.101 NA
BRANCH  17  18
ATOM     18  S   UNL     1      -4.809  13.484  72.797  0.00  0.00    +0.075 S 
ATOM     19  O   UNL     1      -5.896  14.186  73.567  0.00  0.00    -0.153 OA
ATOM     20  O   UNL     1      -5.511  12.608  71.784  0.00  0.00    -0.153 OA
ATOM     21  C   UNL     1      -3.865  12.517  73.932  0.00  0.00    +0.202 C 
ENDBRANCH  17  18
ENDBRANCH  12  17
ENDBRANCH   6   7
BRANCH   4  22
ATOM     22  N   UNL     1     -12.503  14.493  70.191  0.00  0.00    -0.257 N 
ATOM     23  C   UNL     1     -12.483  13.373  70.953  0.00  0.00    +0.357 A 
ATOM     24  O   UNL     1     -12.060  12.321  70.388  0.00  0.00    -0.244 OA
ATOM     25  N   UNL     1     -12.667  13.428  72.295  0.00  0.00    -0.153 NA
ATOM     26  C   UNL     1     -12.926  14.609  72.909  0.00  0.00    +0.285 A 
ATOM     27  O   UNL     1     -12.410  14.860  74.040  0.00  0.00    -0.265 OA
ATOM     28  C   UNL     1     -13.400  15.616  72.078  0.00  0.00    +0.082 A 
ATOM     29  C   UNL     1     -13.178  15.544  70.715  0.00  0.00    +0.089 A 
ENDBRANCH   4  22
BRANCH   2  30
ATOM     30  C   UNL     1     -11.504  14.030  65.340  0.00  0.00    +0.022 C 
ATOM     31  C   UNL     1     -12.325  14.959  64.454  0.00  0.00    +0.004 C 
ATOM     32  C   UNL     1     -12.275  12.739  65.547  0.00  0.00    +0.004 C 
ATOM     33  C   UNL     1     -10.184  13.670  64.714  0.00  0.00    +0.004 C 
ENDBRANCH   2  30
BRANCH   1  35
ATOM     34  C   UNL     1     -10.264  17.665  65.793  0.00  0.00    +0.252 C 
ATOM     35  O   UNL     1      -9.820  16.311  65.846  0.00  0.00    -0.472 OA
ENDBRANCH   1  35
TORSDOF 6
ENDMDL
MODEL 9
REMARK VINA RESULT:      -7.7      5.622      9.330
REMARK  Name = 
REMARK  6 active torsions:
REMARK  status: ('A' for Active; 'I' for Inactive)
REMARK    1  A    between atoms: O_2  and  C_3
REMARK    2  A    between atoms: C_4  and  C_5
REMARK    3  A    between atoms: C_10  and  N_11
REMARK    4  A    between atoms: N_11  and  S_12
REMARK    5  A    between atoms: C_21  and  N_22
REMARK    6  A    between atoms: C_31  and  C_32
REMARK                            x       y       z     vdW  Elec       q    Type
REMARK                         _______ _______ _______ _____ _____    ______ ____
ROOT
ATOM      1  C   UNL     1     -10.134  12.061  67.683  0.00  0.00    +0.135 A 
ATOM      2  C   UNL     1     -11.079  12.983  67.252  0.00  0.00    +0.013 A 
ATOM      3  C   UNL     1     -11.908  13.486  68.238  0.00  0.00    +0.016 A 
ATOM      4  C   UNL     1     -11.784  13.093  69.564  0.00  0.00    +0.068 A 
ATOM      5  C   UNL     1     -11.116  11.901  69.813  0.00  0.00    +0.021 A 
ATOM      6  C   UNL     1     -10.279  11.350  68.864  0.00  0.00    +0.035 A 
ENDROOT
BRANCH   6   7
ATOM      7  C   UNL     1      -9.725   9.996  68.991  0.00  0.00    +0.003 A 
ATOM      8  C   UNL     1     -10.418   8.872  68.611  0.00  0.00    +0.000 A 
ATOM      9  C   UNL     1     -10.117   7.645  69.188  0.00  0.00    +0.000 A 
ATOM     10  C   UNL     1      -9.227   7.535  70.249  0.00  0.00    +0.001 A 
ATOM     11  C   UNL     1      -9.509   6.677  71.305  0.00  0.00    +0.018 A 
ATOM     12  C   UNL     1     -10.563   5.777  71.207  0.00  0.00    +0.091 A 
ATOM     13  C   UNL     1     -11.049   5.575  69.921  0.00  0.00    +0.018 A 
ATOM     14  C   UNL     1      -8.334   8.589  70.391  0.00  0.00    +0.000 A 
ATOM     15  C   UNL     1     -10.843   6.499  68.904  0.00  0.00    +0.001 A 
ATOM     16  C   UNL     1      -8.558   9.784  69.717  0.00  0.00    +0.000 A 
BRANCH  12  17
ATOM     17  N   UNL     1     -11.239   5.277  72.350  0.00  0.00    -0.101 NA
BRANCH  17  18
ATOM     18  S   UNL     1     -10.464   4.097  73.330  0.00  0.00    +0.075 S 
ATOM     19  O   UNL     1     -11.422   2.956  73.549  0.00  0.00    -0.153 OA
ATOM     20  O   UNL     1      -9.259   3.507  72.634  0.00  0.00    -0.153 OA
ATOM     21  C   UNL     1     -10.030   4.762  74.905  0.00  0.00    +0.202 C 
ENDBRANCH  17  18
ENDBRANCH  12  17
ENDBRANCH   6   7
BRANCH   4  22
ATOM     22  N   UNL     1     -12.369  13.859  70.617  0.00  0.00    -0.257 N 
ATOM     23  C   UNL     1     -12.418  15.212  70.562  0.00  0.00    +0.357 A 
ATOM     24  O   UNL     1     -11.526  15.775  69.860  0.00  0.00    -0.244 OA
ATOM     25  N   UNL     1     -13.491  15.900  71.023  0.00  0.00    -0.153 NA
ATOM     26  C   UNL     1     -14.532  15.251  71.599  0.00  0.00    +0.285 A 
ATOM     27  O   UNL     1     -15.719  15.635  71.376  0.00  0.00    -0.265 OA
ATOM     28  C   UNL     1     -14.250  13.970  72.059  0.00  0.00    +0.082 A 
ATOM     29  C   UNL     1     -13.160  13.284  71.554  0.00  0.00    +0.089 A 
ENDBRANCH   4  22
BRANCH   2  30
ATOM     30  C   UNL     1     -11.334  13.208  65.796  0.00  0.00    +0.022 C 
ATOM     31  C   UNL     1     -10.336  14.221  65.249  0.00  0.00    +0.004 C 
ATOM     32  C   UNL     1     -12.735  13.776  65.661  0.00  0.00    +0.004 C 
ATOM     33  C   UNL     1     -11.299  11.911  65.035  0.00  0.00    +0.004 C 
ENDBRANCH   2  30
BRANCH   1  35
ATOM     34  C   UNL     1      -7.839  12.445  67.173  0.00  0.00    +0.252 C 
ATOM     35  O   UNL     1      -9.063  11.787  66.854  0.00  0.00    -0.472 OA
ENDBRANCH   1  35
TORSDOF 6
ENDMDL
