MODEL 1
REMARK VINA RESULT:      -6.8      0.000      0.000
REMARK  Name = 
REMARK  8 active torsions:
REMARK  status: ('A' for Active; 'I' for Inactive)
REMARK    1  A    between atoms: O_2  and  N_3
REMARK    2  A    between atoms: C_4  and  C_5
REMARK    3  A    between atoms: C_4  and  C_25
REMARK    4  A    between atoms: N_7  and  CA_8
REMARK    5  A    between atoms: CA_12  and  C_13
REMARK    6  A    between atoms: C_16  and  C_17
REMARK    7  A    between atoms: C_17  and  O_18
REMARK    8  A    between atoms: O_18  and  C_19
REMARK                            x       y       z     vdW  Elec       q    Type
REMARK                         _______ _______ _______ _____ _____    ______ ____
ROOT
ATOM      1  CA  UNL     1     -11.005  15.307  66.693  0.00  0.00    +0.201 C 
ATOM      2  C   UNL     1      -9.877  15.950  67.753  0.00  0.00    +0.157 C 
ATOM      3  N   UNL     1     -10.005  17.079  66.741  0.00  0.00    -0.242 N 
ATOM      4  CA  UNL     1      -9.219  18.212  67.126  0.00  0.00    +0.131 C 
ATOM      5  C   UNL     1      -8.010  18.137  67.666  0.00  0.00    +0.030 C 
ATOM      6  C   UNL     1      -7.183  16.922  67.379  0.00  0.00    +0.086 C 
ATOM      7  S   UNL     1      -8.195  15.457  66.996  0.00  0.00    -0.114 S 
ATOM      8  C   UNL     1     -10.228  16.203  65.609  0.00  0.00    +0.253 C 
ATOM      9  O   UNL     1     -10.857  16.567  64.565  0.00  0.00    -0.273 OA
ENDROOT
BRANCH   4  10
ATOM     10  C   UNL     1     -10.006  19.434  67.039  0.00  0.00    +0.401 C 
ATOM     11  OXT UNL     1     -10.580  19.864  68.243  0.00  0.00    -0.239 OA
ATOM     12  O   UNL     1     -10.500  19.874  65.986  0.00  0.00    -0.239 OA
ENDBRANCH   4  10
BRANCH   1  14
ATOM     13  C   UNL     1     -11.213  13.023  65.976  0.00  0.00    +0.288 C 
ATOM     14  N   UNL     1     -10.239  13.942  66.489  0.00  0.00    -0.190 NA
ATOM     15  O   UNL     1     -12.386  13.377  65.641  0.00  0.00    -0.267 OA
BRANCH  13  17
ATOM     16  N   UNL     1     -10.853  11.050  67.104  0.00  0.00    -0.077 NA
ATOM     17  C   UNL     1     -11.031  11.566  65.920  0.00  0.00    +0.192 C 
BRANCH  17  18
ATOM     18  C   UNL     1     -10.243  10.973  64.816  0.00  0.00    +0.115 A 
ATOM     19  N   UNL     1      -9.080  10.288  64.959  0.00  0.00    -0.220 NA
ATOM     20  C   UNL     1      -8.915   9.413  63.948  0.00  0.00    +0.201 A 
ATOM     21  N   UNL     1      -8.179   8.184  63.928  0.00  0.00    -0.100 NA
ATOM     22  S   UNL     1      -9.428  10.381  62.631  0.00  0.00    -0.048 S 
ATOM     23  C   UNL     1     -10.270  11.564  63.550  0.00  0.00    +0.059 A 
ENDBRANCH  17  18
BRANCH  16  25
ATOM     24  C   UNL     1     -11.978  11.159  68.899  0.00  0.00    +0.288 C 
ATOM     25  O   UNL     1     -11.868  11.258  68.002  0.00  0.00    -0.373 OA
ENDBRANCH  16  25
ENDBRANCH  13  17
ENDBRANCH   1  14
BRANCH   5  26
ATOM     26  C   UNL     1      -7.235  19.419  67.754  0.00  0.00    +0.233 C 
BRANCH  26  27
ATOM     27  O   UNL     1      -7.207  19.835  69.093  0.00  0.00    -0.444 OA
BRANCH  27  28
ATOM     28  C   UNL     1      -6.085  20.153  69.820  0.00  0.00    +0.318 C 
ATOM     29  O   UNL     1      -6.257  20.453  71.040  0.00  0.00    -0.250 OA
ATOM     30  C   UNL     1      -4.888  20.796  69.188  0.00  0.00    +0.121 C 
ENDBRANCH  27  28
ENDBRANCH  26  27
ENDBRANCH   5  26
TORSDOF 8
ENDMDL
MODEL 2
REMARK VINA RESULT:      -6.8      3.743      8.061
REMARK  Name = 
REMARK  8 active torsions:
REMARK  status: ('A' for Active; 'I' for Inactive)
REMARK    1  A    between atoms: O_2  and  N_3
REMARK    2  A    between atoms: C_4  and  C_5
REMARK    3  A    between atoms: C_4  and  C_25
REMARK    4  A    between atoms: N_7  and  CA_8
REMARK    5  A    between atoms: CA_12  and  C_13
REMARK    6  A    between atoms: C_16  and  C_17
REMARK    7  A    between atoms: C_17  and  O_18
REMARK    8  A    between atoms: O_18  and  C_19
REMARK                            x       y       z     vdW  Elec       q    Type
REMARK                         _______ _______ _______ _____ _____    ______ ____
ROOT
ATOM      1  CA  UNL     1      -8.818  15.831  66.130  0.00  0.00    +0.201 C 
ATOM      2  C   UNL     1      -9.023  15.620  67.779  0.00  0.00    +0.157 C 
ATOM      3  N   UNL     1     -10.237  14.879  67.235  0.00  0.00    -0.242 N 
ATOM      4  CA  UNL     1     -10.980  14.258  68.288  0.00  0.00    +0.131 C 
ATOM      5  C   UNL     1     -11.200  14.807  69.476  0.00  0.00    +0.030 C 
ATOM      6  C   UNL     1     -11.179  16.300  69.577  0.00  0.00    +0.086 C 
ATOM      7  S   UNL     1     -10.142  17.078  68.298  0.00  0.00    -0.114 S 
ATOM      8  C   UNL     1     -10.422  15.766  66.104  0.00  0.00    +0.253 C 
ATOM      9  O   UNL     1     -10.994  15.403  65.027  0.00  0.00    -0.273 OA
ENDROOT
BRANCH   4  10
ATOM     10  C   UNL     1     -11.278  12.872  67.955  0.00  0.00    +0.401 C 
ATOM     11  OXT UNL     1     -10.310  11.939  68.354  0.00  0.00    -0.239 OA
ATOM     12  O   UNL     1     -12.070  12.521  67.063  0.00  0.00    -0.239 OA
ENDBRANCH   4  10
BRANCH   1  14
ATOM     13  C   UNL     1      -7.215  17.614  66.307  0.00  0.00    +0.288 C 
ATOM     14  N   UNL     1      -8.630  17.397  66.214  0.00  0.00    -0.190 NA
ATOM     15  O   UNL     1      -6.364  16.680  66.181  0.00  0.00    -0.267 OA
BRANCH  13  17
ATOM     16  N   UNL     1      -5.707  19.288  65.838  0.00  0.00    -0.077 NA
ATOM     17  C   UNL     1      -6.595  18.886  66.705  0.00  0.00    +0.192 C 
BRANCH  17  18
ATOM     18  C   UNL     1      -6.283  19.128  68.131  0.00  0.00    +0.115 A 
ATOM     19  N   UNL     1      -6.462  18.236  69.139  0.00  0.00    -0.220 NA
ATOM     20  C   UNL     1      -5.601  18.477  70.146  0.00  0.00    +0.201 A 
ATOM     21  N   UNL     1      -5.071  17.568  71.118  0.00  0.00    -0.100 NA
ATOM     22  S   UNL     1      -5.686  20.187  70.207  0.00  0.00    -0.048 S 
ATOM     23  C   UNL     1      -6.370  20.423  68.649  0.00  0.00    +0.059 A 
ENDBRANCH  17  18
BRANCH  16  25
ATOM     24  C   UNL     1      -5.960  20.041  63.872  0.00  0.00    +0.288 C 
ATOM     25  O   UNL     1      -6.169  19.489  64.563  0.00  0.00    -0.373 OA
ENDBRANCH  16  25
ENDBRANCH  13  17
ENDBRANCH   1  14
BRANCH   5  26
ATOM     26  C   UNL     1     -12.218  14.131  70.347  0.00  0.00    +0.233 C 
BRANCH  26  27
ATOM     27  O   UNL     1     -13.285  15.017  70.560  0.00  0.00    -0.444 OA
BRANCH  27  28
ATOM     28  C   UNL     1     -13.948  15.216  71.747  0.00  0.00    +0.318 C 
ATOM     29  O   UNL     1     -15.143  15.635  71.675  0.00  0.00    -0.250 OA
ATOM     30  C   UNL     1     -13.228  15.615  73.000  0.00  0.00    +0.121 C 
ENDBRANCH  27  28
ENDBRANCH  26  27
ENDBRANCH   5  26
TORSDOF 8
ENDMDL
MODEL 3
REMARK VINA RESULT:      -6.7      1.033      1.467
REMARK  Name = 
REMARK  8 active torsions:
REMARK  status: ('A' for Active; 'I' for Inactive)
REMARK    1  A    between atoms: O_2  and  N_3
REMARK    2  A    between atoms: C_4  and  C_5
REMARK    3  A    between atoms: C_4  and  C_25
REMARK    4  A    between atoms: N_7  and  CA_8
REMARK    5  A    between atoms: CA_12  and  C_13
REMARK    6  A    between atoms: C_16  and  C_17
REMARK    7  A    between atoms: C_17  and  O_18
REMARK    8  A    between atoms: O_18  and  C_19
REMARK                            x       y       z     vdW  Elec       q    Type
REMARK                         _______ _______ _______ _____ _____    ______ ____
ROOT
ATOM      1  CA  UNL     1     -11.132  15.316  66.770  0.00  0.00    +0.201 C 
ATOM      2  C   UNL     1     -10.126  15.871  67.990  0.00  0.00    +0.157 C 
ATOM      3  N   UNL     1     -10.172  17.084  67.072  0.00  0.00    -0.242 N 
ATOM      4  CA  UNL     1      -9.447  18.185  67.631  0.00  0.00    +0.131 C 
ATOM      5  C   UNL     1      -8.296  18.072  68.282  0.00  0.00    +0.030 C 
ATOM      6  C   UNL     1      -7.425  16.894  67.974  0.00  0.00    +0.086 C 
ATOM      7  S   UNL     1      -8.369  15.460  67.365  0.00  0.00    -0.114 S 
ATOM      8  C   UNL     1     -10.267  16.309  65.852  0.00  0.00    +0.253 C 
ATOM      9  O   UNL     1     -10.795  16.760  64.785  0.00  0.00    -0.273 OA
ENDROOT
BRANCH   4  10
ATOM     10  C   UNL     1     -10.242  19.403  67.573  0.00  0.00    +0.401 C 
ATOM     11  OXT UNL     1     -10.241  20.060  66.335  0.00  0.00    -0.239 OA
ATOM     12  O   UNL     1     -10.577  20.068  68.568  0.00  0.00    -0.239 OA
ENDBRANCH   4  10
BRANCH   1  14
ATOM     13  C   UNL     1     -11.273  13.049  65.982  0.00  0.00    +0.288 C 
ATOM     14  N   UNL     1     -10.327  13.980  66.525  0.00  0.00    -0.190 NA
ATOM     15  O   UNL     1     -12.456  13.379  65.656  0.00  0.00    -0.267 OA
BRANCH  13  17
ATOM     16  N   UNL     1     -10.861  11.053  67.050  0.00  0.00    -0.077 NA
ATOM     17  C   UNL     1     -11.050  11.601  65.881  0.00  0.00    +0.192 C 
BRANCH  17  18
ATOM     18  C   UNL     1     -10.240  11.066  64.764  0.00  0.00    +0.115 A 
ATOM     19  N   UNL     1      -9.108  10.327  64.894  0.00  0.00    -0.220 NA
ATOM     20  C   UNL     1      -8.936   9.527  63.824  0.00  0.00    +0.201 A 
ATOM     21  N   UNL     1      -8.244   8.276  63.733  0.00  0.00    -0.100 NA
ATOM     22  S   UNL     1      -9.362  10.614  62.570  0.00  0.00    -0.048 S 
ATOM     23  C   UNL     1     -10.197  11.753  63.548  0.00  0.00    +0.059 A 
ENDBRANCH  17  18
BRANCH  16  25
ATOM     24  C   UNL     1     -11.991  11.091  68.845  0.00  0.00    +0.288 C 
ATOM     25  O   UNL     1     -11.886  11.203  67.949  0.00  0.00    -0.373 OA
ENDBRANCH  16  25
ENDBRANCH  13  17
ENDBRANCH   1  14
BRANCH   5  26
ATOM     26  C   UNL     1      -7.556  19.347  68.558  0.00  0.00    +0.233 C 
BRANCH  26  27
ATOM     27  O   UNL     1      -6.485  19.448  67.658  0.00  0.00    -0.444 OA
BRANCH  27  28
ATOM     28  C   UNL     1      -6.368  20.361  66.636  0.00  0.00    +0.318 C 
ATOM     29  O   UNL     1      -6.442  21.587  66.949  0.00  0.00    -0.250 OA
ATOM     30  C   UNL     1      -6.820  20.050  65.242  0.00  0.00    +0.121 C 
ENDBRANCH  27  28
ENDBRANCH  26  27
ENDBRANCH   5  26
TORSDOF 8
ENDMDL
MODEL 4
REMARK VINA RESULT:      -6.7      2.484      4.056
REMARK  Name = 
REMARK  8 active torsions:
REMARK  status: ('A' for Active; 'I' for Inactive)
REMARK    1  A    between atoms: O_2  and  N_3
REMARK    2  A    between atoms: C_4  and  C_5
REMARK    3  A    between atoms: C_4  and  C_25
REMARK    4  A    between atoms: N_7  and  CA_8
REMARK    5  A    between atoms: CA_12  and  C_13
REMARK    6  A    between atoms: C_16  and  C_17
REMARK    7  A    between atoms: C_17  and  O_18
REMARK    8  A    between atoms: O_18  and  C_19
REMARK                            x       y       z     vdW  Elec       q    Type
REMARK                         _______ _______ _______ _____ _____    ______ ____
ROOT
ATOM      1  CA  UNL     1     -10.749  15.717  67.746  0.00  0.00    +0.201 C 
ATOM      2  C   UNL     1      -9.798  16.535  68.856  0.00  0.00    +0.157 C 
ATOM      3  N   UNL     1      -9.480  17.299  67.578  0.00  0.00    -0.242 N 
ATOM      4  CA  UNL     1      -8.609  18.405  67.837  0.00  0.00    +0.131 C 
ATOM      5  C   UNL     1      -7.591  18.375  68.688  0.00  0.00    +0.030 C 
ATOM      6  C   UNL     1      -6.958  17.051  68.984  0.00  0.00    +0.086 C 
ATOM      7  S   UNL     1      -8.106  15.655  68.755  0.00  0.00    -0.114 S 
ATOM      8  C   UNL     1      -9.593  16.141  66.715  0.00  0.00    +0.253 C 
ATOM      9  O   UNL     1      -9.887  16.225  65.479  0.00  0.00    -0.273 OA
ENDROOT
BRANCH   4  10
ATOM     10  C   UNL     1      -9.117  19.614  67.206  0.00  0.00    +0.401 C 
ATOM     11  OXT UNL     1     -10.129  20.279  67.912  0.00  0.00    -0.239 OA
ATOM     12  O   UNL     1      -9.012  19.867  65.993  0.00  0.00    -0.239 OA
ENDBRANCH   4  10
BRANCH   1  14
ATOM     13  C   UNL     1     -11.310  13.385  67.894  0.00  0.00    +0.288 C 
ATOM     14  N   UNL     1     -10.220  14.283  68.143  0.00  0.00    -0.190 NA
ATOM     15  O   UNL     1     -12.385  13.746  67.322  0.00  0.00    -0.267 OA
BRANCH  13  17
ATOM     16  N   UNL     1     -11.659  11.154  67.446  0.00  0.00    -0.077 NA
ATOM     17  C   UNL     1     -11.380  12.005  68.395  0.00  0.00    +0.192 C 
BRANCH  17  18
ATOM     18  C   UNL     1     -11.988  11.742  69.718  0.00  0.00    +0.115 A 
ATOM     19  N   UNL     1     -12.079  12.637  70.735  0.00  0.00    -0.220 NA
ATOM     20  C   UNL     1     -13.131  12.351  71.528  0.00  0.00    +0.201 A 
ATOM     21  N   UNL     1     -13.905  13.230  72.353  0.00  0.00    -0.100 NA
ATOM     22  S   UNL     1     -12.981  10.647  71.617  0.00  0.00    -0.048 S 
ATOM     23  C   UNL     1     -11.958  10.450  70.250  0.00  0.00    +0.059 A 
ENDBRANCH  17  18
BRANCH  16  25
ATOM     24  C   UNL     1     -10.261  10.485  65.998  0.00  0.00    +0.288 C 
ATOM     25  O   UNL     1     -10.774  11.119  66.400  0.00  0.00    -0.373 OA
ENDBRANCH  16  25
ENDBRANCH  13  17
ENDBRANCH   1  14
BRANCH   5  26
ATOM     26  C   UNL     1      -6.636  19.531  68.629  0.00  0.00    +0.233 C 
BRANCH  26  27
ATOM     27  O   UNL     1      -6.464  20.036  69.926  0.00  0.00    -0.444 OA
BRANCH  27  28
ATOM     28  C   UNL     1      -5.263  20.310  70.537  0.00  0.00    +0.318 C 
ATOM     29  O   UNL     1      -4.920  21.529  70.610  0.00  0.00    -0.250 OA
ATOM     30  C   UNL     1      -4.117  19.346  70.498  0.00  0.00    +0.121 C 
ENDBRANCH  27  28
ENDBRANCH  26  27
ENDBRANCH   5  26
TORSDOF 8
ENDMDL
MODEL 5
REMARK VINA RESULT:      -6.5      2.461      3.737
REMARK  Name = 
REMARK  8 active torsions:
REMARK  status: ('A' for Active; 'I' for Inactive)
REMARK    1  A    between atoms: O_2  and  N_3
REMARK    2  A    between atoms: C_4  and  C_5
REMARK    3  A    between atoms: C_4  and  C_25
REMARK    4  A    between atoms: N_7  and  CA_8
REMARK    5  A    between atoms: CA_12  and  C_13
REMARK    6  A    between atoms: C_16  and  C_17
REMARK    7  A    between atoms: C_17  and  O_18
REMARK    8  A    between atoms: O_18  and  C_19
REMARK                            x       y       z     vdW  Elec       q    Type
REMARK                         _______ _______ _______ _____ _____    ______ ____
ROOT
ATOM      1  CA  UNL     1     -10.895  14.275  67.259  0.00  0.00    +0.201 C 
ATOM      2  C   UNL     1      -9.799  15.337  67.949  0.00  0.00    +0.157 C 
ATOM      3  N   UNL     1     -10.119  16.053  66.645  0.00  0.00    -0.242 N 
ATOM      4  CA  UNL     1      -9.458  17.321  66.573  0.00  0.00    +0.131 C 
ATOM      5  C   UNL     1      -8.221  17.546  66.995  0.00  0.00    +0.030 C 
ATOM      6  C   UNL     1      -7.268  16.392  67.038  0.00  0.00    +0.086 C 
ATOM      7  S   UNL     1      -8.112  14.790  67.239  0.00  0.00    -0.114 S 
ATOM      8  C   UNL     1     -10.295  14.836  65.879  0.00  0.00    +0.253 C 
ATOM      9  O   UNL     1     -11.020  14.773  64.835  0.00  0.00    -0.273 OA
ENDROOT
BRANCH   4  10
ATOM     10  C   UNL     1     -10.392  18.363  66.172  0.00  0.00    +0.401 C 
ATOM     11  OXT UNL     1     -11.029  19.034  67.225  0.00  0.00    -0.239 OA
ATOM     12  O   UNL     1     -10.926  18.430  65.051  0.00  0.00    -0.239 OA
ENDBRANCH   4  10
BRANCH   1  14
ATOM     13  C   UNL     1     -10.861  11.873  67.331  0.00  0.00    +0.288 C 
ATOM     14  N   UNL     1      -9.980  13.001  67.433  0.00  0.00    -0.190 NA
ATOM     15  O   UNL     1     -12.084  11.981  67.008  0.00  0.00    -0.267 OA
BRANCH  13  17
ATOM     16  N   UNL     1     -10.640   9.659  66.741  0.00  0.00    -0.077 NA
ATOM     17  C   UNL     1     -10.506  10.504  67.727  0.00  0.00    +0.192 C 
BRANCH  17  18
ATOM     18  C   UNL     1     -10.883  10.014  69.071  0.00  0.00    +0.115 A 
ATOM     19  N   UNL     1     -11.278  10.794  70.111  0.00  0.00    -0.220 NA
ATOM     20  C   UNL     1     -12.078  10.103  70.947  0.00  0.00    +0.201 A 
ATOM     21  N   UNL     1     -13.099  10.588  71.826  0.00  0.00    -0.100 NA
ATOM     22  S   UNL     1     -11.241   8.609  70.991  0.00  0.00    -0.048 S 
ATOM     23  C   UNL     1     -10.301   8.848  69.573  0.00  0.00    +0.059 A 
ENDBRANCH  17  18
BRANCH  16  25
ATOM     24  C   UNL     1      -9.350   9.445  65.072  0.00  0.00    +0.288 C 
ATOM     25  O   UNL     1      -9.889   9.924  65.625  0.00  0.00    -0.373 OA
ENDBRANCH  16  25
ENDBRANCH  13  17
ENDBRANCH   1  14
BRANCH   5  26
ATOM     26  C   UNL     1      -7.605  18.855  66.596  0.00  0.00    +0.233 C 
BRANCH  26  27
ATOM     27  O   UNL     1      -7.521  19.676  67.731  0.00  0.00    -0.444 OA
BRANCH  27  28
ATOM     28  C   UNL     1      -6.638  20.713  67.918  0.00  0.00    +0.318 C 
ATOM     29  O   UNL     1      -6.534  21.556  66.976  0.00  0.00    -0.250 OA
ATOM     30  C   UNL     1      -5.402  20.560  68.750  0.00  0.00    +0.121 C 
ENDBRANCH  27  28
ENDBRANCH  26  27
ENDBRANCH   5  26
TORSDOF 8
ENDMDL
MODEL 6
REMARK VINA RESULT:      -6.5      2.070      2.254
REMARK  Name = 
REMARK  8 active torsions:
REMARK  status: ('A' for Active; 'I' for Inactive)
REMARK    1  A    between atoms: O_2  and  N_3
REMARK    2  A    between atoms: C_4  and  C_5
REMARK    3  A    between atoms: C_4  and  C_25
REMARK    4  A    between atoms: N_7  and  CA_8
REMARK    5  A    between atoms: CA_12  and  C_13
REMARK    6  A    between atoms: C_16  and  C_17
REMARK    7  A    between atoms: C_17  and  O_18
REMARK    8  A    between atoms: O_18  and  C_19
REMARK                            x       y       z     vdW  Elec       q    Type
REMARK                         _______ _______ _______ _____ _____    ______ ____
ROOT
ATOM      1  CA  UNL     1     -11.361  14.491  67.857  0.00  0.00    +0.201 C 
ATOM      2  C   UNL     1     -10.501  15.574  68.802  0.00  0.00    +0.157 C 
ATOM      3  N   UNL     1     -10.309  16.176  67.417  0.00  0.00    -0.242 N 
ATOM      4  CA  UNL     1      -9.583  17.408  67.483  0.00  0.00    +0.131 C 
ATOM      5  C   UNL     1      -8.554  17.630  68.290  0.00  0.00    +0.030 C 
ATOM      6  C   UNL     1      -7.750  16.452  68.747  0.00  0.00    +0.086 C 
ATOM      7  S   UNL     1      -8.713  14.906  68.763  0.00  0.00    -0.114 S 
ATOM      8  C   UNL     1     -10.290  14.900  66.732  0.00  0.00    +0.253 C 
ATOM      9  O   UNL     1     -10.617  14.765  65.510  0.00  0.00    -0.273 OA
ENDROOT
BRANCH   4  10
ATOM     10  C   UNL     1     -10.256  18.440  66.706  0.00  0.00    +0.401 C 
ATOM     11  OXT UNL     1     -11.020  19.349  67.450  0.00  0.00    -0.239 OA
ATOM     12  O   UNL     1     -10.507  18.348  65.491  0.00  0.00    -0.239 OA
ENDBRANCH   4  10
BRANCH   1  14
ATOM     13  C   UNL     1     -11.413  12.090  67.965  0.00  0.00    +0.288 C 
ATOM     14  N   UNL     1     -10.645  13.207  68.433  0.00  0.00    -0.190 NA
ATOM     15  O   UNL     1     -12.365  12.208  67.132  0.00  0.00    -0.267 OA
BRANCH  13  17
ATOM     16  N   UNL     1     -11.086  10.714  69.780  0.00  0.00    -0.077 NA
ATOM     17  C   UNL     1     -11.298  10.724  68.493  0.00  0.00    +0.192 C 
BRANCH  17  18
ATOM     18  C   UNL     1     -10.592   9.694  67.700  0.00  0.00    +0.115 A 
ATOM     19  N   UNL     1     -10.468   8.385  68.040  0.00  0.00    -0.220 NA
ATOM     20  C   UNL     1     -10.323   7.619  66.941  0.00  0.00    +0.201 A 
ATOM     21  N   UNL     1     -10.663   6.241  66.750  0.00  0.00    -0.100 NA
ATOM     22  S   UNL     1      -9.240   8.594  66.041  0.00  0.00    -0.048 S 
ATOM     23  C   UNL     1      -9.508  10.060  66.897  0.00  0.00    +0.059 A 
ENDBRANCH  17  18
BRANCH  16  25
ATOM     24  C   UNL     1     -12.636  11.061  71.186  0.00  0.00    +0.288 C 
ATOM     25  O   UNL     1     -12.046  11.324  70.546  0.00  0.00    -0.373 OA
ENDBRANCH  16  25
ENDBRANCH  13  17
ENDBRANCH   1  14
BRANCH   5  26
ATOM     26  C   UNL     1      -7.756  18.874  68.031  0.00  0.00    +0.233 C 
BRANCH  26  27
ATOM     27  O   UNL     1      -7.566  19.546  69.248  0.00  0.00    -0.444 OA
BRANCH  27  28
ATOM     28  C   UNL     1      -6.373  20.036  69.725  0.00  0.00    +0.318 C 
ATOM     29  O   UNL     1      -6.336  20.367  70.948  0.00  0.00    -0.250 OA
ATOM     30  C   UNL     1      -5.422  20.794  68.850  0.00  0.00    +0.121 C 
ENDBRANCH  27  28
ENDBRANCH  26  27
ENDBRANCH   5  26
TORSDOF 8
ENDMDL
MODEL 7
REMARK VINA RESULT:      -6.4      2.686      3.726
REMARK  Name = 
REMARK  8 active torsions:
REMARK  status: ('A' for Active; 'I' for Inactive)
REMARK    1  A    between atoms: O_2  and  N_3
REMARK    2  A    between atoms: C_4  and  C_5
REMARK    3  A    between atoms: C_4  and  C_25
REMARK    4  A    between atoms: N_7  and  CA_8
REMARK    5  A    between atoms: CA_12  and  C_13
REMARK    6  A    between atoms: C_16  and  C_17
REMARK    7  A    between atoms: C_17  and  O_18
REMARK    8  A    between atoms: O_18  and  C_19
REMARK                            x       y       z     vdW  Elec       q    Type
REMARK                         _______ _______ _______ _____ _____    ______ ____
ROOT
ATOM      1  CA  UNL     1      -8.992  17.871  67.073  0.00  0.00    +0.201 C 
ATOM      2  C   UNL     1      -8.256  18.436  68.468  0.00  0.00    +0.157 C 
ATOM      3  N   UNL     1      -7.210  18.790  67.421  0.00  0.00    -0.242 N 
ATOM      4  CA  UNL     1      -6.115  19.504  68.003  0.00  0.00    +0.131 C 
ATOM      5  C   UNL     1      -5.586  19.229  69.189  0.00  0.00    +0.030 C 
ATOM      6  C   UNL     1      -5.721  17.835  69.716  0.00  0.00    +0.086 C 
ATOM      7  S   UNL     1      -7.180  16.970  69.052  0.00  0.00    -0.114 S 
ATOM      8  C   UNL     1      -7.480  17.637  66.587  0.00  0.00    +0.253 C 
ATOM      9  O   UNL     1      -7.244  17.617  65.336  0.00  0.00    -0.273 OA
ENDROOT
BRANCH   4  10
ATOM     10  C   UNL     1      -5.803  20.690  67.219  0.00  0.00    +0.401 C 
ATOM     11  OXT UNL     1      -6.766  21.707  67.262  0.00  0.00    -0.239 OA
ATOM     12  O   UNL     1      -4.999  20.710  66.270  0.00  0.00    -0.239 OA
ENDBRANCH   4  10
BRANCH   1  14
ATOM     13  C   UNL     1     -10.378  15.918  66.862  0.00  0.00    +0.288 C 
ATOM     14  N   UNL     1      -9.297  16.433  67.651  0.00  0.00    -0.190 NA
ATOM     15  O   UNL     1     -10.823  16.512  65.831  0.00  0.00    -0.267 OA
BRANCH  13  17
ATOM     16  N   UNL     1     -11.137  14.497  68.505  0.00  0.00    -0.077 NA
ATOM     17  C   UNL     1     -11.187  14.747  67.226  0.00  0.00    +0.192 C 
BRANCH  17  18
ATOM     18  C   UNL     1     -11.215  13.574  66.324  0.00  0.00    +0.115 A 
ATOM     19  N   UNL     1     -12.337  12.976  65.845  0.00  0.00    -0.220 NA
ATOM     20  C   UNL     1     -12.087  12.372  64.667  0.00  0.00    +0.201 A 
ATOM     21  N   UNL     1     -12.987  12.087  63.589  0.00  0.00    -0.100 NA
ATOM     22  S   UNL     1     -10.565  11.664  65.012  0.00  0.00    -0.048 S 
ATOM     23  C   UNL     1     -10.186  12.630  66.382  0.00  0.00    +0.059 A 
ENDBRANCH  17  18
BRANCH  16  25
ATOM     24  C   UNL     1     -12.237  15.620  69.928  0.00  0.00    +0.288 C 
ATOM     25  O   UNL     1     -11.566  15.508  69.326  0.00  0.00    -0.373 OA
ENDBRANCH  16  25
ENDBRANCH  13  17
ENDBRANCH   1  14
BRANCH   5  26
ATOM     26  C   UNL     1      -4.284  19.902  69.513  0.00  0.00    +0.233 C 
BRANCH  26  27
ATOM     27  O   UNL     1      -4.538  20.980  70.373  0.00  0.00    -0.444 OA
BRANCH  27  28
ATOM     28  C   UNL     1      -3.963  21.189  71.604  0.00  0.00    +0.318 C 
ATOM     29  O   UNL     1      -4.378  22.183  72.271  0.00  0.00    -0.250 OA
ATOM     30  C   UNL     1      -2.544  20.800  71.891  0.00  0.00    +0.121 C 
ENDBRANCH  27  28
ENDBRANCH  26  27
ENDBRANCH   5  26
TORSDOF 8
ENDMDL
MODEL 8
REMARK VINA RESULT:      -6.4      3.806      7.874
REMARK  Name = 
REMARK  8 active torsions:
REMARK  status: ('A' for Active; 'I' for Inactive)
REMARK    1  A    between atoms: O_2  and  N_3
REMARK    2  A    between atoms: C_4  and  C_5
REMARK    3  A    between atoms: C_4  and  C_25
REMARK    4  A    between atoms: N_7  and  CA_8
REMARK    5  A    between atoms: CA_12  and  C_13
REMARK    6  A    between atoms: C_16  and  C_17
REMARK    7  A    between atoms: C_17  and  O_18
REMARK    8  A    between atoms: O_18  and  C_19
REMARK                            x       y       z     vdW  Elec       q    Type
REMARK                         _______ _______ _______ _____ _____    ______ ____
ROOT
ATOM      1  CA  UNL     1      -8.460  15.859  66.219  0.00  0.00    +0.201 C 
ATOM      2  C   UNL     1      -8.789  15.827  67.861  0.00  0.00    +0.157 C 
ATOM      3  N   UNL     1      -9.952  15.012  67.313  0.00  0.00    -0.242 N 
ATOM      4  CA  UNL     1     -10.770  14.500  68.370  0.00  0.00    +0.131 C 
ATOM      5  C   UNL     1     -11.084  15.173  69.470  0.00  0.00    +0.030 C 
ATOM      6  C   UNL     1     -11.081  16.669  69.406  0.00  0.00    +0.086 C 
ATOM      7  S   UNL     1      -9.954  17.317  68.129  0.00  0.00    -0.114 S 
ATOM      8  C   UNL     1     -10.057  15.766  66.080  0.00  0.00    +0.253 C 
ATOM      9  O   UNL     1     -10.543  15.278  65.010  0.00  0.00    -0.273 OA
ENDROOT
BRANCH   4  10
ATOM     10  C   UNL     1     -11.032  13.082  68.172  0.00  0.00    +0.401 C 
ATOM     11  OXT UNL     1     -10.004  12.220  68.580  0.00  0.00    -0.239 OA
ATOM     12  O   UNL     1     -11.865  12.630  67.367  0.00  0.00    -0.239 OA
ENDBRANCH   4  10
BRANCH   1  14
ATOM     13  C   UNL     1      -6.877  17.668  66.203  0.00  0.00    +0.288 C 
ATOM     14  N   UNL     1      -8.290  17.426  66.143  0.00  0.00    -0.190 NA
ATOM     15  O   UNL     1      -6.016  16.735  66.165  0.00  0.00    -0.267 OA
BRANCH  13  17
ATOM     16  N   UNL     1      -6.918  19.645  67.381  0.00  0.00    -0.077 NA
ATOM     17  C   UNL     1      -6.269  18.979  66.465  0.00  0.00    +0.192 C 
BRANCH  17  18
ATOM     18  C   UNL     1      -5.727  19.768  65.336  0.00  0.00    +0.115 A 
ATOM     19  N   UNL     1      -6.229  19.785  64.074  0.00  0.00    -0.220 NA
ATOM     20  C   UNL     1      -5.943  20.952  63.464  0.00  0.00    +0.201 A 
ATOM     21  N   UNL     1      -6.650  21.617  62.410  0.00  0.00    -0.100 NA
ATOM     22  S   UNL     1      -4.320  21.161  63.969  0.00  0.00    -0.048 S 
ATOM     23  C   UNL     1      -4.361  20.058  65.285  0.00  0.00    +0.059 A 
ENDBRANCH  17  18
BRANCH  16  25
ATOM     24  C   UNL     1      -6.441  18.848  69.287  0.00  0.00    +0.288 C 
ATOM     25  O   UNL     1      -7.012  19.034  68.604  0.00  0.00    -0.373 OA
ENDBRANCH  16  25
ENDBRANCH  13  17
ENDBRANCH   1  14
BRANCH   5  26
ATOM     26  C   UNL     1     -12.160  14.582  70.332  0.00  0.00    +0.233 C 
BRANCH  26  27
ATOM     27  O   UNL     1     -12.800  15.620  71.025  0.00  0.00    -0.444 OA
BRANCH  27  28
ATOM     28  C   UNL     1     -13.492  15.501  72.207  0.00  0.00    +0.318 C 
ATOM     29  O   UNL     1     -14.708  15.859  72.200  0.00  0.00    -0.250 OA
ATOM     30  C   UNL     1     -12.815  15.635  73.537  0.00  0.00    +0.121 C 
ENDBRANCH  27  28
ENDBRANCH  26  27
ENDBRANCH   5  26
TORSDOF 8
ENDMDL
MODEL 9
REMARK VINA RESULT:      -6.4      3.638      8.777
REMARK  Name = 
REMARK  8 active torsions:
REMARK  status: ('A' for Active; 'I' for Inactive)
REMARK    1  A    between atoms: O_2  and  N_3
REMARK    2  A    between atoms: C_4  and  C_5
REMARK    3  A    between atoms: C_4  and  C_25
REMARK    4  A    between atoms: N_7  and  CA_8
REMARK    5  A    between atoms: CA_12  and  C_13
REMARK    6  A    between atoms: C_16  and  C_17
REMARK    7  A    between atoms: C_17  and  O_18
REMARK    8  A    between atoms: O_18  and  C_19
REMARK                            x       y       z     vdW  Elec       q    Type
REMARK                         _______ _______ _______ _____ _____    ______ ____
ROOT
ATOM      1  CA  UNL     1      -8.276  15.240  69.067  0.00  0.00    +0.201 C 
ATOM      2  C   UNL     1      -9.550  15.835  68.155  0.00  0.00    +0.157 C 
ATOM      3  N   UNL     1      -9.796  14.336  68.060  0.00  0.00    -0.242 N 
ATOM      4  CA  UNL     1     -11.001  14.053  67.341  0.00  0.00    +0.131 C 
ATOM      5  C   UNL     1     -11.403  14.712  66.262  0.00  0.00    +0.030 C 
ATOM      6  C   UNL     1     -10.366  15.387  65.420  0.00  0.00    +0.086 C 
ATOM      7  S   UNL     1      -8.878  15.842  66.368  0.00  0.00    -0.114 S 
ATOM      8  C   UNL     1      -8.391  13.982  68.076  0.00  0.00    +0.253 C 
ATOM      9  O   UNL     1      -7.967  12.852  68.481  0.00  0.00    -0.273 OA
ENDROOT
BRANCH   4  10
ATOM     10  C   UNL     1     -11.818  13.094  68.071  0.00  0.00    +0.401 C 
ATOM     11  OXT UNL     1     -12.106  13.440  69.398  0.00  0.00    -0.239 OA
ATOM     12  O   UNL     1     -11.941  11.897  67.757  0.00  0.00    -0.239 OA
ENDBRANCH   4  10
BRANCH   1  14
ATOM     13  C   UNL     1      -6.045  16.124  69.198  0.00  0.00    +0.288 C 
ATOM     14  N   UNL     1      -7.165  16.062  68.304  0.00  0.00    -0.190 NA
ATOM     15  O   UNL     1      -6.000  15.482  70.293  0.00  0.00    -0.267 OA
BRANCH  13  17
ATOM     16  N   UNL     1      -3.764  16.404  69.080  0.00  0.00    -0.077 NA
ATOM     17  C   UNL     1      -4.905  17.036  69.037  0.00  0.00    +0.192 C 
BRANCH  17  18
ATOM     18  C   UNL     1      -4.945  18.371  69.676  0.00  0.00    +0.115 A 
ATOM     19  N   UNL     1      -4.856  18.608  71.010  0.00  0.00    -0.220 NA
ATOM     20  C   UNL     1      -4.348  19.834  71.243  0.00  0.00    +0.201 A 
ATOM     21  N   UNL     1      -3.619  20.308  72.382  0.00  0.00    -0.100 NA
ATOM     22  S   UNL     1      -5.187  20.735  70.052  0.00  0.00    -0.048 S 
ATOM     23  C   UNL     1      -5.669  19.405  69.077  0.00  0.00    +0.059 A 
ENDBRANCH  17  18
BRANCH  16  25
ATOM     24  C   UNL     1      -3.124  15.349  67.356  0.00  0.00    +0.288 C 
ATOM     25  O   UNL     1      -3.589  15.429  68.133  0.00  0.00    -0.373 OA
ENDBRANCH  16  25
ENDBRANCH  13  17
ENDBRANCH   1  14
BRANCH   5  26
ATOM     26  C   UNL     1     -12.541  14.107  65.493  0.00  0.00    +0.233 C 
BRANCH  26  27
ATOM     27  O   UNL     1     -12.142  13.940  64.159  0.00  0.00    -0.444 OA
BRANCH  27  28
ATOM     28  C   UNL     1     -12.008  12.743  63.496  0.00  0.00    +0.318 C 
ATOM     29  O   UNL     1     -13.043  12.017  63.405  0.00  0.00    -0.250 OA
ATOM     30  C   UNL     1     -10.717  11.982  63.490  0.00  0.00    +0.121 C 
ENDBRANCH  27  28
ENDBRANCH  26  27
ENDBRANCH   5  26
TORSDOF 8
ENDMDL
