MODEL 1
REMARK VINA RESULT:      -7.5      0.000      0.000
REMARK  Name = 
REMARK  3 active torsions:
REMARK  status: ('A' for Active; 'I' for Inactive)
REMARK    1  A    between atoms: C_5  and  C_6
REMARK    2  A    between atoms: C_15  and  C_16
REMARK    3  A    between atoms: C_16  and  C_17
REMARK                            x       y       z     vdW  Elec       q    Type
REMARK                         _______ _______ _______ _____ _____    ______ ____
ROOT
ATOM      1  C   UNL     1     -11.828  14.163  67.330  0.00  0.00    +0.095 A 
ATOM      2  C   UNL     1     -10.930  14.586  66.356  0.00  0.00    +0.069 A 
ATOM      3  N   UNL     1     -10.970  13.624  65.403  0.00  0.00    -0.292 N 
ATOM      4  C   UNL     1     -12.244  13.166  65.440  0.00  0.00    +0.148 A 
ATOM      5  C   UNL     1     -12.762  12.529  64.322  0.00  0.00    +0.037 A 
ATOM      6  C   UNL     1     -11.852  11.872  63.503  0.00  0.00    +0.000 A 
ATOM      7  C   UNL     1     -10.505  12.145  63.631  0.00  0.00    -0.004 A 
ATOM      8  C   UNL     1      -9.533  11.176  63.095  0.00  0.00    +0.033 C 
ATOM      9  C   UNL     1     -10.157  13.251  64.388  0.00  0.00    +0.077 A 
ATOM     10  N   UNL     1     -12.683  13.320  66.711  0.00  0.00    -0.227 NA
ENDROOT
BRANCH   1  15
ATOM     11  C   UNL     1     -14.203  14.279  72.182  0.00  0.00    +0.031 C 
ATOM     12  C   UNL     1     -13.004  14.347  71.296  0.00  0.00    -0.022 A 
ATOM     13  C   UNL     1     -12.648  15.535  70.669  0.00  0.00    -0.004 A 
ATOM     14  C   UNL     1     -12.180  15.529  69.360  0.00  0.00    +0.001 A 
ATOM     15  C   UNL     1     -11.755  14.359  68.782  0.00  0.00    +0.019 A 
ATOM     16  C   UNL     1     -11.698  13.245  69.608  0.00  0.00    +0.001 A 
ATOM     17  C   UNL     1     -12.367  13.211  70.825  0.00  0.00    -0.004 A 
ENDBRANCH   1  15
BRANCH   2  18
ATOM     18  C   UNL     1      -9.689  15.288  66.770  0.00  0.00    +0.131 C 
BRANCH  18  19
ATOM     19  C   UNL     1      -9.603  16.674  66.264  0.00  0.00    +0.232 C 
ATOM     20  N   UNL     1     -10.249  17.769  66.927  0.00  0.00    -0.276 N 
ATOM     21  C   UNL     1      -9.921  17.928  68.342  0.00  0.00    +0.115 C 
ATOM     22  C   UNL     1     -10.315  19.017  66.170  0.00  0.00    +0.115 C 
ATOM     23  O   UNL     1      -8.498  16.963  65.708  0.00  0.00    -0.274 OA
ENDBRANCH  18  19
ENDBRANCH   2  18
TORSDOF 3
ENDMDL
MODEL 2
REMARK VINA RESULT:      -7.4      3.392      5.539
REMARK  Name = 
REMARK  3 active torsions:
REMARK  status: ('A' for Active; 'I' for Inactive)
REMARK    1  A    between atoms: C_5  and  C_6
REMARK    2  A    between atoms: C_15  and  C_16
REMARK    3  A    between atoms: C_16  and  C_17
REMARK                            x       y       z     vdW  Elec       q    Type
REMARK                         _______ _______ _______ _____ _____    ______ ____
ROOT
ATOM      1  C   UNL     1     -12.745  12.357  71.023  0.00  0.00    +0.095 A 
ATOM      2  C   UNL     1     -12.014  11.751  70.005  0.00  0.00    +0.069 A 
ATOM      3  N   UNL     1     -11.532  10.609  70.554  0.00  0.00    -0.292 N 
ATOM      4  C   UNL     1     -12.483  10.237  71.445  0.00  0.00    +0.148 A 
ATOM      5  C   UNL     1     -12.552   8.909  71.838  0.00  0.00    +0.037 A 
ATOM      6  C   UNL     1     -11.364   8.188  71.805  0.00  0.00    +0.000 A 
ATOM      7  C   UNL     1     -10.288   8.687  71.101  0.00  0.00    -0.004 A 
ATOM      8  C   UNL     1      -8.942   8.171  71.406  0.00  0.00    +0.033 C 
ATOM      9  C   UNL     1     -10.533   9.751  70.248  0.00  0.00    +0.077 A 
ATOM     10  N   UNL     1     -13.082  11.369  71.880  0.00  0.00    -0.227 NA
ENDROOT
BRANCH   1  15
ATOM     11  C   UNL     1     -12.476  16.585  74.377  0.00  0.00    +0.031 C 
ATOM     12  C   UNL     1     -12.709  15.976  73.034  0.00  0.00    -0.022 A 
ATOM     13  C   UNL     1     -13.944  15.430  72.703  0.00  0.00    -0.004 A 
ATOM     14  C   UNL     1     -14.019  14.252  71.968  0.00  0.00    +0.001 A 
ATOM     15  C   UNL     1     -12.921  13.788  71.287  0.00  0.00    +0.019 A 
ATOM     16  C   UNL     1     -11.808  14.618  71.269  0.00  0.00    +0.001 A 
ATOM     17  C   UNL     1     -11.669  15.663  72.174  0.00  0.00    -0.004 A 
ENDBRANCH   1  15
BRANCH   2  18
ATOM     18  C   UNL     1     -11.248  12.600  69.059  0.00  0.00    +0.131 C 
BRANCH  18  19
ATOM     19  C   UNL     1     -11.827  12.634  67.700  0.00  0.00    +0.232 C 
ATOM     20  N   UNL     1     -11.586  13.721  66.796  0.00  0.00    -0.276 N 
ATOM     21  C   UNL     1     -10.180  14.030  66.547  0.00  0.00    +0.115 C 
ATOM     22  C   UNL     1     -12.440  13.758  65.611  0.00  0.00    +0.115 C 
ATOM     23  O   UNL     1     -11.942  11.496  67.149  0.00  0.00    -0.274 OA
ENDBRANCH  18  19
ENDBRANCH   2  18
TORSDOF 3
ENDMDL
MODEL 3
REMARK VINA RESULT:      -7.3      3.085      4.913
REMARK  Name = 
REMARK  3 active torsions:
REMARK  status: ('A' for Active; 'I' for Inactive)
REMARK    1  A    between atoms: C_5  and  C_6
REMARK    2  A    between atoms: C_15  and  C_16
REMARK    3  A    between atoms: C_16  and  C_17
REMARK                            x       y       z     vdW  Elec       q    Type
REMARK                         _______ _______ _______ _____ _____    ______ ____
ROOT
ATOM      1  C   UNL     1     -11.834  11.779  68.976  0.00  0.00    +0.095 A 
ATOM      2  C   UNL     1     -11.976  13.163  68.981  0.00  0.00    +0.069 A 
ATOM      3  N   UNL     1     -11.449  13.572  67.802  0.00  0.00    -0.292 N 
ATOM      4  C   UNL     1     -11.710  12.555  66.946  0.00  0.00    +0.148 A 
ATOM      5  C   UNL     1     -11.736  12.814  65.583  0.00  0.00    +0.037 A 
ATOM      6  C   UNL     1     -10.944  13.864  65.134  0.00  0.00    +0.000 A 
ATOM      7  C   UNL     1     -10.452  14.778  66.043  0.00  0.00    -0.004 A 
ATOM      8  C   UNL     1      -9.299  15.611  65.656  0.00  0.00    +0.033 C 
ATOM      9  C   UNL     1     -10.991  14.749  67.319  0.00  0.00    +0.077 A 
ATOM     10  N   UNL     1     -11.734  11.418  67.678  0.00  0.00    -0.227 NA
ENDROOT
BRANCH   1  15
ATOM     11  C   UNL     1     -12.234   6.922  71.309  0.00  0.00    +0.031 C 
ATOM     12  C   UNL     1     -11.751   8.334  71.271  0.00  0.00    -0.022 A 
ATOM     13  C   UNL     1     -12.564   9.377  71.696  0.00  0.00    -0.004 A 
ATOM     14  C   UNL     1     -12.582  10.584  71.005  0.00  0.00    +0.001 A 
ATOM     15  C   UNL     1     -11.586  10.885  70.112  0.00  0.00    +0.019 A 
ATOM     16  C   UNL     1     -10.522   9.996  70.047  0.00  0.00    +0.001 A 
ATOM     17  C   UNL     1     -10.621   8.710  70.563  0.00  0.00    -0.004 A 
ENDBRANCH   1  15
BRANCH   2  18
ATOM     18  C   UNL     1     -11.817  13.902  70.258  0.00  0.00    +0.131 C 
BRANCH  18  19
ATOM     19  C   UNL     1     -12.958  14.790  70.568  0.00  0.00    +0.232 C 
ATOM     20  N   UNL     1     -13.849  14.532  71.662  0.00  0.00    -0.276 N 
ATOM     21  C   UNL     1     -13.211  14.371  72.966  0.00  0.00    +0.115 C 
ATOM     22  C   UNL     1     -15.078  15.322  71.675  0.00  0.00    +0.115 C 
ATOM     23  O   UNL     1     -12.748  16.019  70.328  0.00  0.00    -0.274 OA
ENDBRANCH  18  19
ENDBRANCH   2  18
TORSDOF 3
ENDMDL
MODEL 4
REMARK VINA RESULT:      -7.2      2.043      6.228
REMARK  Name = 
REMARK  3 active torsions:
REMARK  status: ('A' for Active; 'I' for Inactive)
REMARK    1  A    between atoms: C_5  and  C_6
REMARK    2  A    between atoms: C_15  and  C_16
REMARK    3  A    between atoms: C_16  and  C_17
REMARK                            x       y       z     vdW  Elec       q    Type
REMARK                         _______ _______ _______ _____ _____    ______ ____
ROOT
ATOM      1  C   UNL     1     -10.735  16.097  66.809  0.00  0.00    +0.095 A 
ATOM      2  C   UNL     1     -10.570  16.660  68.071  0.00  0.00    +0.069 A 
ATOM      3  N   UNL     1      -9.794  17.752  67.868  0.00  0.00    -0.292 N 
ATOM      4  C   UNL     1     -10.139  18.184  66.631  0.00  0.00    +0.148 A 
ATOM      5  C   UNL     1      -9.901  19.507  66.291  0.00  0.00    +0.037 A 
ATOM      6  C   UNL     1      -8.839  20.134  66.934  0.00  0.00    +0.000 A 
ATOM      7  C   UNL     1      -8.302  19.562  68.069  0.00  0.00    -0.004 A 
ATOM      8  C   UNL     1      -6.951  19.967  68.493  0.00  0.00    +0.033 C 
ATOM      9  C   UNL     1      -9.021  18.533  68.656  0.00  0.00    +0.077 A 
ATOM     10  N   UNL     1     -10.521  17.095  65.924  0.00  0.00    -0.227 NA
ENDROOT
BRANCH   1  15
ATOM     11  C   UNL     1     -12.329  12.237  63.381  0.00  0.00    +0.031 C 
ATOM     12  C   UNL     1     -11.643  12.701  64.623  0.00  0.00    -0.022 A 
ATOM     13  C   UNL     1     -12.362  12.932  65.790  0.00  0.00    -0.004 A 
ATOM     14  C   UNL     1     -12.056  14.019  66.602  0.00  0.00    +0.001 A 
ATOM     15  C   UNL     1     -10.863  14.680  66.454  0.00  0.00    +0.019 A 
ATOM     16  C   UNL     1      -9.954  14.126  65.563  0.00  0.00    +0.001 A 
ATOM     17  C   UNL     1     -10.349  13.193  64.613  0.00  0.00    -0.004 A 
ENDBRANCH   1  15
BRANCH   2  18
ATOM     18  C   UNL     1     -10.448  15.767  69.251  0.00  0.00    +0.131 C 
BRANCH  18  19
ATOM     19  C   UNL     1     -11.603  15.848  70.169  0.00  0.00    +0.232 C 
ATOM     20  N   UNL     1     -12.613  14.830  70.215  0.00  0.00    -0.276 N 
ATOM     21  C   UNL     1     -12.125  13.472  70.439  0.00  0.00    +0.115 C 
ATOM     22  C   UNL     1     -13.825  15.176  70.953  0.00  0.00    +0.115 C 
ATOM     23  O   UNL     1     -11.351  16.400  71.285  0.00  0.00    -0.274 OA
ENDBRANCH  18  19
ENDBRANCH   2  18
TORSDOF 3
ENDMDL
MODEL 5
REMARK VINA RESULT:      -6.9      2.174      5.965
REMARK  Name = 
REMARK  3 active torsions:
REMARK  status: ('A' for Active; 'I' for Inactive)
REMARK    1  A    between atoms: C_5  and  C_6
REMARK    2  A    between atoms: C_15  and  C_16
REMARK    3  A    between atoms: C_16  and  C_17
REMARK                            x       y       z     vdW  Elec       q    Type
REMARK                         _______ _______ _______ _____ _____    ______ ____
ROOT
ATOM      1  C   UNL     1     -10.729  16.056  66.399  0.00  0.00    +0.095 A 
ATOM      2  C   UNL     1     -10.668  16.478  67.723  0.00  0.00    +0.069 A 
ATOM      3  N   UNL     1      -9.885  17.584  67.701  0.00  0.00    -0.292 N 
ATOM      4  C   UNL     1     -10.133  18.147  66.495  0.00  0.00    +0.148 A 
ATOM      5  C   UNL     1      -9.877  19.499  66.319  0.00  0.00    +0.037 A 
ATOM      6  C   UNL     1      -8.874  20.050  67.108  0.00  0.00    +0.000 A 
ATOM      7  C   UNL     1      -8.425  19.358  68.215  0.00  0.00    -0.004 A 
ATOM      8  C   UNL     1      -7.114  19.711  68.787  0.00  0.00    +0.033 C 
ATOM      9  C   UNL     1      -9.183  18.274  68.628  0.00  0.00    +0.077 A 
ATOM     10  N   UNL     1     -10.451  17.143  65.647  0.00  0.00    -0.227 NA
ENDROOT
BRANCH   1  15
ATOM     11  C   UNL     1     -11.029  10.728  67.247  0.00  0.00    +0.031 C 
ATOM     12  C   UNL     1     -11.040  11.928  66.358  0.00  0.00    -0.022 A 
ATOM     13  C   UNL     1      -9.853  12.493  65.909  0.00  0.00    -0.004 A 
ATOM     14  C   UNL     1      -9.714  13.874  65.835  0.00  0.00    +0.001 A 
ATOM     15  C   UNL     1     -10.819  14.686  65.884  0.00  0.00    +0.019 A 
ATOM     16  C   UNL     1     -12.054  14.051  65.877  0.00  0.00    +0.001 A 
ATOM     17  C   UNL     1     -12.175  12.699  66.173  0.00  0.00    -0.004 A 
ENDBRANCH   1  15
BRANCH   2  18
ATOM     18  C   UNL     1     -10.635  15.464  68.806  0.00  0.00    +0.131 C 
BRANCH  18  19
ATOM     19  C   UNL     1     -11.657  15.687  69.850  0.00  0.00    +0.232 C 
ATOM     20  N   UNL     1     -12.649  14.701  70.169  0.00  0.00    -0.276 N 
ATOM     21  C   UNL     1     -12.131  13.379  70.512  0.00  0.00    +0.115 C 
ATOM     22  C   UNL     1     -13.752  15.162  71.008  0.00  0.00    +0.115 C 
ATOM     23  O   UNL     1     -11.260  16.383  70.835  0.00  0.00    -0.274 OA
ENDBRANCH  18  19
ENDBRANCH   2  18
TORSDOF 3
ENDMDL
MODEL 6
REMARK VINA RESULT:      -6.8      2.435      5.646
REMARK  Name = 
REMARK  3 active torsions:
REMARK  status: ('A' for Active; 'I' for Inactive)
REMARK    1  A    between atoms: C_5  and  C_6
REMARK    2  A    between atoms: C_15  and  C_16
REMARK    3  A    between atoms: C_16  and  C_17
REMARK                            x       y       z     vdW  Elec       q    Type
REMARK                         _______ _______ _______ _____ _____    ______ ____
ROOT
ATOM      1  C   UNL     1     -11.248  14.736  69.688  0.00  0.00    +0.095 A 
ATOM      2  C   UNL     1     -11.619  13.615  68.952  0.00  0.00    +0.069 A 
ATOM      3  N   UNL     1     -11.960  12.686  69.878  0.00  0.00    -0.292 N 
ATOM      4  C   UNL     1     -12.470  13.408  70.905  0.00  0.00    +0.148 A 
ATOM      5  C   UNL     1     -13.327  12.786  71.802  0.00  0.00    +0.037 A 
ATOM      6  C   UNL     1     -13.156  11.419  71.981  0.00  0.00    +0.000 A 
ATOM      7  C   UNL     1     -12.413  10.703  71.064  0.00  0.00    -0.004 A 
ATOM      8  C   UNL     1     -11.878   9.388  71.458  0.00  0.00    +0.033 C 
ATOM      9  C   UNL     1     -12.097  11.341  69.875  0.00  0.00    +0.077 A 
ATOM     10  N   UNL     1     -11.851  14.610  70.890  0.00  0.00    -0.227 NA
ENDROOT
BRANCH   1  15
ATOM     11  C   UNL     1      -7.719  16.904  66.219  0.00  0.00    +0.031 C 
ATOM     12  C   UNL     1      -8.448  16.882  67.522  0.00  0.00    -0.022 A 
ATOM     13  C   UNL     1      -7.992  16.105  68.580  0.00  0.00    -0.004 A 
ATOM     14  C   UNL     1      -8.891  15.416  69.386  0.00  0.00    +0.001 A 
ATOM     15  C   UNL     1     -10.225  15.737  69.368  0.00  0.00    +0.019 A 
ATOM     16  C   UNL     1     -10.584  16.848  68.618  0.00  0.00    +0.001 A 
ATOM     17  C   UNL     1      -9.733  17.380  67.658  0.00  0.00    -0.004 A 
ENDBRANCH   1  15
BRANCH   2  18
ATOM     18  C   UNL     1     -10.894  13.301  67.696  0.00  0.00    +0.131 C 
BRANCH  18  19
ATOM     19  C   UNL     1     -11.732  13.436  66.486  0.00  0.00    +0.232 C 
ATOM     20  N   UNL     1     -11.459  14.415  65.474  0.00  0.00    -0.276 N 
ATOM     21  C   UNL     1     -10.107  14.385  64.921  0.00  0.00    +0.115 C 
ATOM     22  C   UNL     1     -12.519  14.620  64.490  0.00  0.00    +0.115 C 
ATOM     23  O   UNL     1     -12.212  12.342  66.054  0.00  0.00    -0.274 OA
ENDBRANCH  18  19
ENDBRANCH   2  18
TORSDOF 3
ENDMDL
MODEL 7
REMARK VINA RESULT:      -6.7      3.797      6.877
REMARK  Name = 
REMARK  3 active torsions:
REMARK  status: ('A' for Active; 'I' for Inactive)
REMARK    1  A    between atoms: C_5  and  C_6
REMARK    2  A    between atoms: C_15  and  C_16
REMARK    3  A    between atoms: C_16  and  C_17
REMARK                            x       y       z     vdW  Elec       q    Type
REMARK                         _______ _______ _______ _____ _____    ______ ____
ROOT
ATOM      1  C   UNL     1     -11.179  11.720  69.545  0.00  0.00    +0.095 A 
ATOM      2  C   UNL     1     -12.013  11.917  70.642  0.00  0.00    +0.069 A 
ATOM      3  N   UNL     1     -12.393  10.672  71.020  0.00  0.00    -0.292 N 
ATOM      4  C   UNL     1     -11.331   9.889  70.714  0.00  0.00    +0.148 A 
ATOM      5  C   UNL     1     -11.179   8.677  71.371  0.00  0.00    +0.037 A 
ATOM      6  C   UNL     1     -12.342   8.061  71.818  0.00  0.00    +0.000 A 
ATOM      7  C   UNL     1     -13.510   8.793  71.894  0.00  0.00    -0.004 A 
ATOM      8  C   UNL     1     -14.794   8.073  71.946  0.00  0.00    +0.033 C 
ATOM      9  C   UNL     1     -13.399  10.169  71.769  0.00  0.00    +0.077 A 
ATOM     10  N   UNL     1     -10.714  10.456  69.652  0.00  0.00    -0.227 NA
ENDROOT
BRANCH   1  15
ATOM     11  C   UNL     1     -10.233  12.299  64.257  0.00  0.00    +0.031 C 
ATOM     12  C   UNL     1     -10.580  12.840  65.605  0.00  0.00    -0.022 A 
ATOM     13  C   UNL     1      -9.587  13.151  66.526  0.00  0.00    -0.004 A 
ATOM     14  C   UNL     1      -9.761  12.861  67.874  0.00  0.00    +0.001 A 
ATOM     15  C   UNL     1     -11.009  12.575  68.366  0.00  0.00    +0.019 A 
ATOM     16  C   UNL     1     -12.071  12.722  67.484  0.00  0.00    +0.001 A 
ATOM     17  C   UNL     1     -11.868  12.790  66.112  0.00  0.00    -0.004 A 
ENDBRANCH   1  15
BRANCH   2  18
ATOM     18  C   UNL     1     -12.912  13.098  70.665  0.00  0.00    +0.131 C 
BRANCH  18  19
ATOM     19  C   UNL     1     -13.065  13.691  72.010  0.00  0.00    +0.232 C 
ATOM     20  N   UNL     1     -12.290  14.820  72.438  0.00  0.00    -0.276 N 
ATOM     21  C   UNL     1     -12.352  15.990  71.567  0.00  0.00    +0.115 C 
ATOM     22  C   UNL     1     -12.342  15.116  73.868  0.00  0.00    +0.115 C 
ATOM     23  O   UNL     1     -14.248  13.650  72.471  0.00  0.00    -0.274 OA
ENDBRANCH  18  19
ENDBRANCH   2  18
TORSDOF 3
ENDMDL
MODEL 8
REMARK VINA RESULT:      -6.6      1.728      5.788
REMARK  Name = 
REMARK  3 active torsions:
REMARK  status: ('A' for Active; 'I' for Inactive)
REMARK    1  A    between atoms: C_5  and  C_6
REMARK    2  A    between atoms: C_15  and  C_16
REMARK    3  A    between atoms: C_16  and  C_17
REMARK                            x       y       z     vdW  Elec       q    Type
REMARK                         _______ _______ _______ _____ _____    ______ ____
ROOT
ATOM      1  C   UNL     1     -11.144  13.876  67.956  0.00  0.00    +0.095 A 
ATOM      2  C   UNL     1     -11.131  15.002  68.773  0.00  0.00    +0.069 A 
ATOM      3  N   UNL     1     -12.041  14.741  69.743  0.00  0.00    -0.292 N 
ATOM      4  C   UNL     1     -11.977  13.398  69.910  0.00  0.00    +0.148 A 
ATOM      5  C   UNL     1     -12.410  12.850  71.108  0.00  0.00    +0.037 A 
ATOM      6  C   UNL     1     -13.394  13.551  71.795  0.00  0.00    +0.000 A 
ATOM      7  C   UNL     1     -13.649  14.865  71.457  0.00  0.00    -0.004 A 
ATOM      8  C   UNL     1     -14.934  15.462  71.862  0.00  0.00    +0.033 C 
ATOM      9  C   UNL     1     -12.731  15.492  70.630  0.00  0.00    +0.077 A 
ATOM     10  N   UNL     1     -11.620  12.867  68.718  0.00  0.00    -0.227 NA
ENDROOT
BRANCH   1  15
ATOM     11  C   UNL     1     -12.447  11.842  63.123  0.00  0.00    +0.031 C 
ATOM     12  C   UNL     1     -11.681  12.775  64.002  0.00  0.00    -0.022 A 
ATOM     13  C   UNL     1     -10.517  12.360  64.638  0.00  0.00    -0.004 A 
ATOM     14  C   UNL     1     -10.249  12.756  65.943  0.00  0.00    +0.001 A 
ATOM     15  C   UNL     1     -10.937  13.800  66.507  0.00  0.00    +0.019 A 
ATOM     16  C   UNL     1     -11.795  14.500  65.668  0.00  0.00    +0.001 A 
ATOM     17  C   UNL     1     -12.216  13.968  64.456  0.00  0.00    -0.004 A 
ENDBRANCH   1  15
BRANCH   2  18
ATOM     18  C   UNL     1     -10.939  16.340  68.158  0.00  0.00    +0.131 C 
BRANCH  18  19
ATOM     19  C   UNL     1      -9.660  16.979  68.532  0.00  0.00    +0.232 C 
ATOM     20  N   UNL     1      -8.401  16.524  68.015  0.00  0.00    -0.276 N 
ATOM     21  C   UNL     1      -8.309  16.459  66.558  0.00  0.00    +0.115 C 
ATOM     22  C   UNL     1      -7.215  17.057  68.681  0.00  0.00    +0.115 C 
ATOM     23  O   UNL     1      -9.735  18.231  68.730  0.00  0.00    -0.274 OA
ENDBRANCH  18  19
ENDBRANCH   2  18
TORSDOF 3
ENDMDL
MODEL 9
REMARK VINA RESULT:      -6.5      2.045      5.571
REMARK  Name = 
REMARK  3 active torsions:
REMARK  status: ('A' for Active; 'I' for Inactive)
REMARK    1  A    between atoms: C_5  and  C_6
REMARK    2  A    between atoms: C_15  and  C_16
REMARK    3  A    between atoms: C_16  and  C_17
REMARK                            x       y       z     vdW  Elec       q    Type
REMARK                         _______ _______ _______ _____ _____    ______ ____
ROOT
ATOM      1  C   UNL     1     -10.885  15.979  68.206  0.00  0.00    +0.095 A 
ATOM      2  C   UNL     1     -11.306  14.834  67.537  0.00  0.00    +0.069 A 
ATOM      3  N   UNL     1     -11.533  13.923  68.514  0.00  0.00    -0.292 N 
ATOM      4  C   UNL     1     -11.952  14.660  69.570  0.00  0.00    +0.148 A 
ATOM      5  C   UNL     1     -12.702  14.046  70.562  0.00  0.00    +0.037 A 
ATOM      6  C   UNL     1     -12.487  12.686  70.754  0.00  0.00    +0.000 A 
ATOM      7  C   UNL     1     -11.825  11.962  69.784  0.00  0.00    -0.004 A 
ATOM      8  C   UNL     1     -11.228  10.666  70.152  0.00  0.00    +0.033 C 
ATOM      9  C   UNL     1     -11.643  12.576  68.555  0.00  0.00    +0.077 A 
ATOM     10  N   UNL     1     -11.362  15.873  69.466  0.00  0.00    -0.227 NA
ENDROOT
BRANCH   1  15
ATOM     11  C   UNL     1      -7.156  19.726  69.322  0.00  0.00    +0.031 C 
ATOM     12  C   UNL     1      -7.940  18.884  68.371  0.00  0.00    -0.022 A 
ATOM     13  C   UNL     1      -9.209  19.270  67.957  0.00  0.00    -0.004 A 
ATOM     14  C   UNL     1     -10.221  18.327  67.816  0.00  0.00    +0.001 A 
ATOM     15  C   UNL     1      -9.920  16.990  67.762  0.00  0.00    +0.019 A 
ATOM     16  C   UNL     1      -8.572  16.660  67.722  0.00  0.00    +0.001 A 
ATOM     17  C   UNL     1      -7.592  17.574  68.083  0.00  0.00    -0.004 A 
ENDBRANCH   1  15
BRANCH   2  18
ATOM     18  C   UNL     1     -10.704  14.502  66.221  0.00  0.00    +0.131 C 
BRANCH  18  19
ATOM     19  C   UNL     1     -11.675  13.946  65.256  0.00  0.00    +0.232 C 
ATOM     20  N   UNL     1     -11.375  12.800  64.448  0.00  0.00    -0.276 N 
ATOM     21  C   UNL     1     -10.941  11.612  65.179  0.00  0.00    +0.115 C 
ATOM     22  C   UNL     1     -12.305  12.538  63.352  0.00  0.00    +0.115 C 
ATOM     23  O   UNL     1     -12.889  14.042  65.616  0.00  0.00    -0.274 OA
ENDBRANCH  18  19
ENDBRANCH   2  18
TORSDOF 3
ENDMDL
