MODEL 1
REMARK VINA RESULT:      -6.8      0.000      0.000
REMARK  Name = 
REMARK  4 active torsions:
REMARK  status: ('A' for Active; 'I' for Inactive)
REMARK    1  A    between atoms: C_2  and  O_3
REMARK    2  A    between atoms: O_3  and  C_4
REMARK    3  A    between atoms: C_4  and  C_5
REMARK    4  A    between atoms: C_5  and  N_6
REMARK                            x       y       z     vdW  Elec       q    Type
REMARK                         _______ _______ _______ _____ _____    ______ ____
ROOT
ATOM      1  N   UNL     1     -11.026  14.829  69.471  0.00  0.00    -0.297 N 
ATOM      2  C   UNL     1     -11.320  13.658  68.869  0.00  0.00    +0.201 A 
ATOM      3  N   UNL     1     -11.234  13.375  67.467  0.00  0.00    -0.278 N 
ATOM      4  C   UNL     1     -10.337  12.289  67.175  0.00  0.00    +0.111 C 
ATOM      5  C   UNL     1     -10.540  11.688  65.814  0.00  0.00    +0.094 C 
ATOM      6  N   UNL     1     -10.218  12.576  64.732  0.00  0.00    -0.270 NA
ATOM      7  C   UNL     1     -10.219  11.844  63.491  0.00  0.00    +0.090 C 
ATOM      8  C   UNL     1     -11.092  13.725  64.658  0.00  0.00    +0.074 C 
ATOM      9  C   UNL     1     -12.410  13.456  65.330  0.00  0.00    +0.039 C 
ATOM     10  C   UNL     1     -12.337  13.980  66.735  0.00  0.00    +0.095 C 
ATOM     11  N   UNL     1     -12.226  13.066  69.677  0.00  0.00    -0.214 NA
ATOM     12  C   UNL     1     -12.283  13.706  70.847  0.00  0.00    +0.100 A 
ATOM     13  C   UNL     1     -13.199  13.594  71.883  0.00  0.00    +0.021 A 
ATOM     14  C   UNL     1     -13.133  14.538  72.881  0.00  0.00    +0.002 A 
ATOM     15  C   UNL     1     -12.716  15.811  72.545  0.00  0.00    +0.002 A 
ATOM     16  C   UNL     1     -11.911  16.007  71.430  0.00  0.00    +0.019 A 
ATOM     17  C   UNL     1     -11.544  14.874  70.711  0.00  0.00    +0.080 A 
ENDROOT
BRANCH   1  18
ATOM     18  C   UNL     1      -9.944  15.681  69.002  0.00  0.00    +0.141 C 
BRANCH  18  19
ATOM     19  C   UNL     1     -10.516  16.795  68.170  0.00  0.00    +0.167 C 
BRANCH  19  20
ATOM     20  O   UNL     1     -10.474  17.998  68.859  0.00  0.00    -0.352 OA
BRANCH  20  22
ATOM     21  C   UNL     1     -10.525  19.598  67.047  0.00  0.00    +0.035 C 
ATOM     22  C   UNL     1      -9.760  18.979  68.181  0.00  0.00    +0.142 C 
ENDBRANCH  20  22
ENDBRANCH  19  20
ENDBRANCH  18  19
ENDBRANCH   1  18
TORSDOF 4
ENDMDL
MODEL 2
REMARK VINA RESULT:      -6.6      2.477      5.001
REMARK  Name = 
REMARK  4 active torsions:
REMARK  status: ('A' for Active; 'I' for Inactive)
REMARK    1  A    between atoms: C_2  and  O_3
REMARK    2  A    between atoms: O_3  and  C_4
REMARK    3  A    between atoms: C_4  and  C_5
REMARK    4  A    between atoms: C_5  and  N_6
REMARK                            x       y       z     vdW  Elec       q    Type
REMARK                         _______ _______ _______ _____ _____    ______ ____
ROOT
ATOM      1  N   UNL     1     -11.165  14.699  68.518  0.00  0.00    -0.297 N 
ATOM      2  C   UNL     1     -10.947  16.027  68.615  0.00  0.00    +0.201 A 
ATOM      3  N   UNL     1      -9.870  16.761  68.018  0.00  0.00    -0.278 N 
ATOM      4  C   UNL     1     -10.331  17.793  67.128  0.00  0.00    +0.111 C 
ATOM      5  C   UNL     1      -9.295  18.837  66.828  0.00  0.00    +0.094 C 
ATOM      6  N   UNL     1      -8.172  18.344  66.080  0.00  0.00    -0.270 NA
ATOM      7  C   UNL     1      -7.360  19.452  65.644  0.00  0.00    +0.090 C 
ATOM      8  C   UNL     1      -7.384  17.375  66.806  0.00  0.00    +0.074 C 
ATOM      9  C   UNL     1      -7.568  17.521  68.292  0.00  0.00    +0.039 C 
ATOM     10  C   UNL     1      -8.621  16.546  68.733  0.00  0.00    +0.095 C 
ATOM     11  N   UNL     1     -11.514  16.390  69.787  0.00  0.00    -0.214 NA
ATOM     12  C   UNL     1     -12.276  15.399  70.253  0.00  0.00    +0.100 A 
ATOM     13  C   UNL     1     -12.868  15.236  71.497  0.00  0.00    +0.021 A 
ATOM     14  C   UNL     1     -13.422  14.008  71.771  0.00  0.00    +0.002 A 
ATOM     15  C   UNL     1     -12.841  12.892  71.199  0.00  0.00    +0.002 A 
ATOM     16  C   UNL     1     -12.111  13.013  70.024  0.00  0.00    +0.019 A 
ATOM     17  C   UNL     1     -12.024  14.283  69.465  0.00  0.00    +0.080 A 
ENDROOT
BRANCH   1  18
ATOM     18  C   UNL     1     -10.863  13.960  67.302  0.00  0.00    +0.141 C 
BRANCH  18  19
ATOM     19  C   UNL     1     -12.061  13.985  66.396  0.00  0.00    +0.167 C 
BRANCH  19  20
ATOM     20  O   UNL     1     -12.415  12.701  66.008  0.00  0.00    -0.352 OA
BRANCH  20  22
ATOM     21  C   UNL     1     -12.257  12.245  63.639  0.00  0.00    +0.035 C 
ATOM     22  C   UNL     1     -11.606  12.206  64.992  0.00  0.00    +0.142 C 
ENDBRANCH  20  22
ENDBRANCH  19  20
ENDBRANCH  18  19
ENDBRANCH   1  18
TORSDOF 4
ENDMDL
MODEL 3
REMARK VINA RESULT:      -6.3      2.051      4.788
REMARK  Name = 
REMARK  4 active torsions:
REMARK  status: ('A' for Active; 'I' for Inactive)
REMARK    1  A    between atoms: C_2  and  O_3
REMARK    2  A    between atoms: O_3  and  C_4
REMARK    3  A    between atoms: C_4  and  C_5
REMARK    4  A    between atoms: C_5  and  N_6
REMARK                            x       y       z     vdW  Elec       q    Type
REMARK                         _______ _______ _______ _____ _____    ______ ____
ROOT
ATOM      1  N   UNL     1     -10.485  16.373  68.572  0.00  0.00    -0.297 N 
ATOM      2  C   UNL     1     -10.698  15.541  67.532  0.00  0.00    +0.201 A 
ATOM      3  N   UNL     1     -10.442  14.131  67.500  0.00  0.00    -0.278 N 
ATOM      4  C   UNL     1     -11.625  13.360  67.221  0.00  0.00    +0.111 C 
ATOM      5  C   UNL     1     -11.337  11.960  66.760  0.00  0.00    +0.094 C 
ATOM      6  N   UNL     1     -10.728  11.132  67.763  0.00  0.00    -0.270 NA
ATOM      7  C   UNL     1     -10.708   9.764  67.310  0.00  0.00    +0.090 C 
ATOM      8  C   UNL     1      -9.406  11.573  68.143  0.00  0.00    +0.074 C 
ATOM      9  C   UNL     1      -8.774  12.406  67.061  0.00  0.00    +0.039 C 
ATOM     10  C   UNL     1      -9.019  13.852  67.378  0.00  0.00    +0.095 C 
ATOM     11  N   UNL     1     -10.604  16.322  66.433  0.00  0.00    -0.214 NA
ATOM     12  C   UNL     1     -10.607  17.609  66.786  0.00  0.00    +0.100 A 
ATOM     13  C   UNL     1     -10.320  18.742  66.036  0.00  0.00    +0.021 A 
ATOM     14  C   UNL     1     -10.192  19.928  66.719  0.00  0.00    +0.002 A 
ATOM     15  C   UNL     1      -9.699  19.885  68.009  0.00  0.00    +0.002 A 
ATOM     16  C   UNL     1      -9.828  18.726  68.765  0.00  0.00    +0.019 A 
ATOM     17  C   UNL     1     -10.485  17.656  68.168  0.00  0.00    +0.080 A 
ENDROOT
BRANCH   1  18
ATOM     18  C   UNL     1     -10.684  15.945  69.948  0.00  0.00    +0.141 C 
BRANCH  18  19
ATOM     19  C   UNL     1     -12.154  15.773  70.205  0.00  0.00    +0.167 C 
BRANCH  19  20
ATOM     20  O   UNL     1     -12.374  15.170  71.435  0.00  0.00    -0.352 OA
BRANCH  20  22
ATOM     21  C   UNL     1     -12.568  15.508  73.821  0.00  0.00    +0.035 C 
ATOM     22  C   UNL     1     -12.035  15.992  72.503  0.00  0.00    +0.142 C 
ENDBRANCH  20  22
ENDBRANCH  19  20
ENDBRANCH  18  19
ENDBRANCH   1  18
TORSDOF 4
ENDMDL
MODEL 4
REMARK VINA RESULT:      -6.2      2.747      7.011
REMARK  Name = 
REMARK  4 active torsions:
REMARK  status: ('A' for Active; 'I' for Inactive)
REMARK    1  A    between atoms: C_2  and  O_3
REMARK    2  A    between atoms: O_3  and  C_4
REMARK    3  A    between atoms: C_4  and  C_5
REMARK    4  A    between atoms: C_5  and  N_6
REMARK                            x       y       z     vdW  Elec       q    Type
REMARK                         _______ _______ _______ _____ _____    ______ ____
ROOT
ATOM      1  N   UNL     1     -11.404  12.954  68.436  0.00  0.00    -0.297 N 
ATOM      2  C   UNL     1     -11.632  14.185  68.940  0.00  0.00    +0.201 A 
ATOM      3  N   UNL     1     -12.085  14.496  70.263  0.00  0.00    -0.278 N 
ATOM      4  C   UNL     1     -11.163  15.334  70.982  0.00  0.00    +0.111 C 
ATOM      5  C   UNL     1     -11.773  16.022  72.170  0.00  0.00    +0.094 C 
ATOM      6  N   UNL     1     -12.168  15.126  73.220  0.00  0.00    -0.270 NA
ATOM      7  C   UNL     1     -12.519  15.886  74.394  0.00  0.00    +0.090 C 
ATOM      8  C   UNL     1     -13.241  14.236  72.838  0.00  0.00    +0.074 C 
ATOM      9  C   UNL     1     -14.039  14.799  71.693  0.00  0.00    +0.039 C 
ATOM     10  C   UNL     1     -13.505  14.216  70.417  0.00  0.00    +0.095 C 
ATOM     11  N   UNL     1     -11.934  14.951  67.869  0.00  0.00    -0.214 NA
ATOM     12  C   UNL     1     -11.641  14.299  66.742  0.00  0.00    +0.100 A 
ATOM     13  C   UNL     1     -11.972  14.594  65.427  0.00  0.00    +0.021 A 
ATOM     14  C   UNL     1     -11.719  13.623  64.486  0.00  0.00    +0.002 A 
ATOM     15  C   UNL     1     -11.808  12.301  64.876  0.00  0.00    +0.002 A 
ATOM     16  C   UNL     1     -11.629  11.956  66.210  0.00  0.00    +0.019 A 
ATOM     17  C   UNL     1     -11.339  12.990  67.094  0.00  0.00    +0.080 A 
ENDROOT
BRANCH   1  18
ATOM     18  C   UNL     1     -10.869  11.879  69.257  0.00  0.00    +0.141 C 
BRANCH  18  19
ATOM     19  C   UNL     1     -11.967  10.904  69.575  0.00  0.00    +0.167 C 
BRANCH  19  20
ATOM     20  O   UNL     1     -11.819  10.392  70.855  0.00  0.00    -0.352 OA
BRANCH  20  22
ATOM     21  C   UNL     1     -13.520   9.280  72.165  0.00  0.00    +0.035 C 
ATOM     22  C   UNL     1     -12.954  10.568  71.638  0.00  0.00    +0.142 C 
ENDBRANCH  20  22
ENDBRANCH  19  20
ENDBRANCH  18  19
ENDBRANCH   1  18
TORSDOF 4
ENDMDL
MODEL 5
REMARK VINA RESULT:      -6.1      2.636      5.676
REMARK  Name = 
REMARK  4 active torsions:
REMARK  status: ('A' for Active; 'I' for Inactive)
REMARK    1  A    between atoms: C_2  and  O_3
REMARK    2  A    between atoms: O_3  and  C_4
REMARK    3  A    between atoms: C_4  and  C_5
REMARK    4  A    between atoms: C_5  and  N_6
REMARK                            x       y       z     vdW  Elec       q    Type
REMARK                         _______ _______ _______ _____ _____    ______ ____
ROOT
ATOM      1  N   UNL     1     -10.640  14.045  66.748  0.00  0.00    -0.297 N 
ATOM      2  C   UNL     1     -10.575  15.047  67.650  0.00  0.00    +0.201 A 
ATOM      3  N   UNL     1      -9.772  16.230  67.554  0.00  0.00    -0.278 N 
ATOM      4  C   UNL     1     -10.557  17.436  67.584  0.00  0.00    +0.111 C 
ATOM      5  C   UNL     1      -9.761  18.665  67.917  0.00  0.00    +0.094 C 
ATOM      6  N   UNL     1      -8.796  19.020  66.915  0.00  0.00    -0.270 NA
ATOM      7  C   UNL     1      -8.256  20.324  67.208  0.00  0.00    +0.090 C 
ATOM      8  C   UNL     1      -7.741  18.043  66.766  0.00  0.00    +0.074 C 
ATOM      9  C   UNL     1      -7.585  17.211  68.010  0.00  0.00    +0.039 C 
ATOM     10  C   UNL     1      -8.372  15.946  67.830  0.00  0.00    +0.095 C 
ATOM     11  N   UNL     1     -10.889  14.475  68.833  0.00  0.00    -0.214 NA
ATOM     12  C   UNL     1     -11.388  13.254  68.632  0.00  0.00    +0.100 A 
ATOM     13  C   UNL     1     -11.642  12.232  69.537  0.00  0.00    +0.021 A 
ATOM     14  C   UNL     1     -11.956  10.999  69.016  0.00  0.00    +0.002 A 
ATOM     15  C   UNL     1     -11.392  10.642  67.807  0.00  0.00    +0.002 A 
ATOM     16  C   UNL     1     -10.982  11.624  66.913  0.00  0.00    +0.019 A 
ATOM     17  C   UNL     1     -11.191  12.946  67.292  0.00  0.00    +0.080 A 
ENDROOT
BRANCH   1  18
ATOM     18  C   UNL     1     -10.545  14.294  65.318  0.00  0.00    +0.141 C 
BRANCH  18  19
ATOM     19  C   UNL     1     -11.795  14.985  64.851  0.00  0.00    +0.167 C 
BRANCH  19  20
ATOM     20  O   UNL     1     -12.480  14.202  63.935  0.00  0.00    -0.352 OA
BRANCH  20  22
ATOM     21  C   UNL     1     -12.630  11.843  63.427  0.00  0.00    +0.035 C 
ATOM     22  C   UNL     1     -11.770  13.067  63.562  0.00  0.00    +0.142 C 
ENDBRANCH  20  22
ENDBRANCH  19  20
ENDBRANCH  18  19
ENDBRANCH   1  18
TORSDOF 4
ENDMDL
MODEL 6
REMARK VINA RESULT:      -6.1      2.418      6.135
REMARK  Name = 
REMARK  4 active torsions:
REMARK  status: ('A' for Active; 'I' for Inactive)
REMARK    1  A    between atoms: C_2  and  O_3
REMARK    2  A    between atoms: O_3  and  C_4
REMARK    3  A    between atoms: C_4  and  C_5
REMARK    4  A    between atoms: C_5  and  N_6
REMARK                            x       y       z     vdW  Elec       q    Type
REMARK                         _______ _______ _______ _____ _____    ______ ____
ROOT
ATOM      1  N   UNL     1     -10.827  15.482  67.457  0.00  0.00    -0.297 N 
ATOM      2  C   UNL     1      -9.495  15.686  67.383  0.00  0.00    +0.201 A 
ATOM      3  N   UNL     1      -8.804  16.916  67.636  0.00  0.00    -0.278 N 
ATOM      4  C   UNL     1      -7.839  16.801  68.696  0.00  0.00    +0.111 C 
ATOM      5  C   UNL     1      -6.818  17.902  68.704  0.00  0.00    +0.094 C 
ATOM      6  N   UNL     1      -7.362  19.197  69.001  0.00  0.00    -0.270 NA
ATOM      7  C   UNL     1      -6.287  20.133  69.216  0.00  0.00    +0.090 C 
ATOM      8  C   UNL     1      -8.276  19.677  67.990  0.00  0.00    +0.074 C 
ATOM      9  C   UNL     1      -8.025  19.013  66.664  0.00  0.00    +0.039 C 
ATOM     10  C   UNL     1      -8.967  17.852  66.534  0.00  0.00    +0.095 C 
ATOM     11  N   UNL     1      -9.050  14.771  66.494  0.00  0.00    -0.214 NA
ATOM     12  C   UNL     1     -10.006  13.875  66.243  0.00  0.00    +0.100 A 
ATOM     13  C   UNL     1     -10.080  12.899  65.258  0.00  0.00    +0.021 A 
ATOM     14  C   UNL     1     -11.286  12.259  65.101  0.00  0.00    +0.002 A 
ATOM     15  C   UNL     1     -12.440  12.970  65.371  0.00  0.00    +0.002 A 
ATOM     16  C   UNL     1     -12.402  14.052  66.242  0.00  0.00    +0.019 A 
ATOM     17  C   UNL     1     -11.175  14.348  66.825  0.00  0.00    +0.080 A 
ENDROOT
BRANCH   1  18
ATOM     18  C   UNL     1     -11.650  16.154  68.451  0.00  0.00    +0.141 C 
BRANCH  18  19
ATOM     19  C   UNL     1     -11.440  15.504  69.790  0.00  0.00    +0.167 C 
BRANCH  19  20
ATOM     20  O   UNL     1     -12.532  15.715  70.618  0.00  0.00    -0.352 OA
BRANCH  20  22
ATOM     21  C   UNL     1     -13.307  15.798  72.907  0.00  0.00    +0.035 C 
ATOM     22  C   UNL     1     -12.166  15.937  71.941  0.00  0.00    +0.142 C 
ENDBRANCH  20  22
ENDBRANCH  19  20
ENDBRANCH  18  19
ENDBRANCH   1  18
TORSDOF 4
ENDMDL
MODEL 7
REMARK VINA RESULT:      -6.0      2.553      5.410
REMARK  Name = 
REMARK  4 active torsions:
REMARK  status: ('A' for Active; 'I' for Inactive)
REMARK    1  A    between atoms: C_2  and  O_3
REMARK    2  A    between atoms: O_3  and  C_4
REMARK    3  A    between atoms: C_4  and  C_5
REMARK    4  A    between atoms: C_5  and  N_6
REMARK                            x       y       z     vdW  Elec       q    Type
REMARK                         _______ _______ _______ _____ _____    ______ ____
ROOT
ATOM      1  N   UNL     1      -9.334  17.598  67.496  0.00  0.00    -0.297 N 
ATOM      2  C   UNL     1      -9.276  16.844  66.378  0.00  0.00    +0.201 A 
ATOM      3  N   UNL     1      -9.965  15.609  66.145  0.00  0.00    -0.278 N 
ATOM      4  C   UNL     1     -10.834  15.668  65.000  0.00  0.00    +0.111 C 
ATOM      5  C   UNL     1     -11.230  14.318  64.474  0.00  0.00    +0.094 C 
ATOM      6  N   UNL     1     -12.053  13.561  65.375  0.00  0.00    -0.270 NA
ATOM      7  C   UNL     1     -12.568  12.399  64.695  0.00  0.00    +0.090 C 
ATOM      8  C   UNL     1     -11.373  13.191  66.595  0.00  0.00    +0.074 C 
ATOM      9  C   UNL     1      -9.880  13.185  66.410  0.00  0.00    +0.039 C 
ATOM     10  C   UNL     1      -9.344  14.510  66.870  0.00  0.00    +0.095 C 
ATOM     11  N   UNL     1      -8.071  17.118  65.833  0.00  0.00    -0.214 NA
ATOM     12  C   UNL     1      -7.532  18.185  66.427  0.00  0.00    +0.100 A 
ATOM     13  C   UNL     1      -6.243  18.694  66.351  0.00  0.00    +0.021 A 
ATOM     14  C   UNL     1      -5.908  19.683  67.245  0.00  0.00    +0.002 A 
ATOM     15  C   UNL     1      -6.504  19.662  68.491  0.00  0.00    +0.002 A 
ATOM     16  C   UNL     1      -7.733  19.039  68.664  0.00  0.00    +0.019 A 
ATOM     17  C   UNL     1      -8.318  18.478  67.534  0.00  0.00    +0.080 A 
ENDROOT
BRANCH   1  18
ATOM     18  C   UNL     1     -10.558  17.722  68.272  0.00  0.00    +0.141 C 
BRANCH  18  19
ATOM     19  C   UNL     1     -10.555  16.696  69.370  0.00  0.00    +0.167 C 
BRANCH  19  20
ATOM     20  O   UNL     1     -11.837  16.228  69.614  0.00  0.00    -0.352 OA
BRANCH  20  22
ATOM     21  C   UNL     1     -13.410  15.344  71.223  0.00  0.00    +0.035 C 
ATOM     22  C   UNL     1     -12.050  15.921  70.953  0.00  0.00    +0.142 C 
ENDBRANCH  20  22
ENDBRANCH  19  20
ENDBRANCH  18  19
ENDBRANCH   1  18
TORSDOF 4
ENDMDL
MODEL 8
REMARK VINA RESULT:      -5.9      2.313      4.761
REMARK  Name = 
REMARK  4 active torsions:
REMARK  status: ('A' for Active; 'I' for Inactive)
REMARK    1  A    between atoms: C_2  and  O_3
REMARK    2  A    between atoms: O_3  and  C_4
REMARK    3  A    between atoms: C_4  and  C_5
REMARK    4  A    between atoms: C_5  and  N_6
REMARK                            x       y       z     vdW  Elec       q    Type
REMARK                         _______ _______ _______ _____ _____    ______ ____
ROOT
ATOM      1  N   UNL     1     -11.523  15.072  68.892  0.00  0.00    -0.297 N 
ATOM      2  C   UNL     1     -11.030  16.321  69.028  0.00  0.00    +0.201 A 
ATOM      3  N   UNL     1      -9.937  16.891  68.296  0.00  0.00    -0.278 N 
ATOM      4  C   UNL     1     -10.317  18.069  67.563  0.00  0.00    +0.111 C 
ATOM      5  C   UNL     1      -9.153  18.923  67.148  0.00  0.00    +0.094 C 
ATOM      6  N   UNL     1      -8.288  18.298  66.187  0.00  0.00    -0.270 NA
ATOM      7  C   UNL     1      -7.349  19.268  65.682  0.00  0.00    +0.090 C 
ATOM      8  C   UNL     1      -7.605  17.135  66.706  0.00  0.00    +0.074 C 
ATOM      9  C   UNL     1      -7.516  17.174  68.207  0.00  0.00    +0.039 C 
ATOM     10  C   UNL     1      -8.658  16.379  68.767  0.00  0.00    +0.095 C 
ATOM     11  N   UNL     1     -11.317  16.675  70.300  0.00  0.00    -0.214 NA
ATOM     12  C   UNL     1     -12.178  15.806  70.833  0.00  0.00    +0.100 A 
ATOM     13  C   UNL     1     -12.584  15.644  72.150  0.00  0.00    +0.021 A 
ATOM     14  C   UNL     1     -13.322  14.522  72.444  0.00  0.00    +0.002 A 
ATOM     15  C   UNL     1     -13.078  13.374  71.714  0.00  0.00    +0.002 A 
ATOM     16  C   UNL     1     -12.536  13.463  70.438  0.00  0.00    +0.019 A 
ATOM     17  C   UNL     1     -12.286  14.741  69.949  0.00  0.00    +0.080 A 
ENDROOT
BRANCH   1  18
ATOM     18  C   UNL     1     -11.575  14.406  67.600  0.00  0.00    +0.141 C 
BRANCH  18  19
ATOM     19  C   UNL     1     -10.539  13.319  67.561  0.00  0.00    +0.167 C 
BRANCH  19  20
ATOM     20  O   UNL     1      -9.455  13.696  66.782  0.00  0.00    -0.352 OA
BRANCH  20  22
ATOM     21  C   UNL     1      -8.451  12.013  68.198  0.00  0.00    +0.035 C 
ATOM     22  C   UNL     1      -8.261  13.135  67.218  0.00  0.00    +0.142 C 
ENDBRANCH  20  22
ENDBRANCH  19  20
ENDBRANCH  18  19
ENDBRANCH   1  18
TORSDOF 4
ENDMDL
MODEL 9
REMARK VINA RESULT:      -5.7      2.813      5.610
REMARK  Name = 
REMARK  4 active torsions:
REMARK  status: ('A' for Active; 'I' for Inactive)
REMARK    1  A    between atoms: C_2  and  O_3
REMARK    2  A    between atoms: O_3  and  C_4
REMARK    3  A    between atoms: C_4  and  C_5
REMARK    4  A    between atoms: C_5  and  N_6
REMARK                            x       y       z     vdW  Elec       q    Type
REMARK                         _______ _______ _______ _____ _____    ______ ____
ROOT
ATOM      1  N   UNL     1     -10.791  13.351  67.990  0.00  0.00    -0.297 N 
ATOM      2  C   UNL     1     -11.362  12.138  68.141  0.00  0.00    +0.201 A 
ATOM      3  N   UNL     1     -10.903  11.079  68.991  0.00  0.00    -0.278 N 
ATOM      4  C   UNL     1     -11.884  10.687  69.967  0.00  0.00    +0.111 C 
ATOM      5  C   UNL     1     -11.628   9.337  70.572  0.00  0.00    +0.094 C 
ATOM      6  N   UNL     1     -10.439   9.277  71.375  0.00  0.00    -0.270 NA
ATOM      7  C   UNL     1     -10.405   8.027  72.092  0.00  0.00    +0.090 C 
ATOM      8  C   UNL     1      -9.225   9.472  70.614  0.00  0.00    +0.074 C 
ATOM      9  C   UNL     1      -9.430   9.141  69.161  0.00  0.00    +0.039 C 
ATOM     10  C   UNL     1      -9.737  10.414  68.428  0.00  0.00    +0.095 C 
ATOM     11  N   UNL     1     -12.011  11.908  66.979  0.00  0.00    -0.214 NA
ATOM     12  C   UNL     1     -12.069  13.030  66.258  0.00  0.00    +0.100 A 
ATOM     13  C   UNL     1     -12.439  13.224  64.934  0.00  0.00    +0.021 A 
ATOM     14  C   UNL     1     -12.194  14.462  64.391  0.00  0.00    +0.002 A 
ATOM     15  C   UNL     1     -11.096  15.166  64.846  0.00  0.00    +0.002 A 
ATOM     16  C   UNL     1     -10.586  14.915  66.114  0.00  0.00    +0.019 A 
ATOM     17  C   UNL     1     -11.245  13.959  66.879  0.00  0.00    +0.080 A 
ENDROOT
BRANCH   1  18
ATOM     18  C   UNL     1     -10.149  14.039  69.099  0.00  0.00    +0.141 C 
BRANCH  18  19
ATOM     19  C   UNL     1     -11.061  15.119  69.608  0.00  0.00    +0.167 C 
BRANCH  19  20
ATOM     20  O   UNL     1     -12.097  14.579  70.355  0.00  0.00    -0.352 OA
BRANCH  20  22
ATOM     21  C   UNL     1     -14.090  14.998  71.658  0.00  0.00    +0.035 C 
ATOM     22  C   UNL     1     -12.867  15.550  70.985  0.00  0.00    +0.142 C 
ENDBRANCH  20  22
ENDBRANCH  19  20
ENDBRANCH  18  19
ENDBRANCH   1  18
TORSDOF 4
ENDMDL
