MODEL 1
REMARK VINA RESULT:      -6.9      0.000      0.000
REMARK  Name = 
REMARK  12 active torsions:
REMARK  status: ('A' for Active; 'I' for Inactive)
REMARK    1  A    between atoms: C_2  and  C_3
REMARK    2  A    between atoms: C_3  and  C_4
REMARK    3  A    between atoms: C_4  and  C_5
REMARK    4  A    between atoms: C_5  and  C_6
REMARK    5  A    between atoms: C_6  and  N_7
REMARK    6  A    between atoms: C_6  and  C_20
REMARK    7  A    between atoms: N_7  and  C_8
REMARK    8  A    between atoms: C_8  and  C_9
REMARK    9  A    between atoms: C_8  and  C_17
REMARK   10  A    between atoms: C_9  and  C_10
REMARK   11  A    between atoms: C_10  and  C_11
REMARK   12  A    between atoms: CA_26  and  C_27
REMARK                            x       y       z     vdW  Elec       q    Type
REMARK                         _______ _______ _______ _____ _____    ______ ____
ROOT
ATOM      1  CA  UNL     1     -11.311  15.891  68.516  0.00  0.00    +0.149 C 
ENDROOT
BRANCH   1   2
ATOM      2  C   UNL     1     -10.459  14.977  67.448  0.00  0.00    +0.242 C 
ATOM      3  N   UNL     1     -11.395  14.585  66.423  0.00  0.00    -0.270 N 
ATOM      4  CA  UNL     1     -10.610  14.202  65.077  0.00  0.00    +0.179 C 
ATOM      5  CB  UNL     1     -10.259  12.677  65.677  0.00  0.00    +0.033 C 
ATOM      6  CG  UNL     1     -11.613  12.241  66.108  0.00  0.00    +0.024 C 
ATOM      7  CD  UNL     1     -12.278  13.473  66.629  0.00  0.00    +0.094 C 
ATOM      8  O   UNL     1      -9.796  14.062  67.959  0.00  0.00    -0.273 OA
BRANCH   4   9
ATOM      9  C   UNL     1     -11.979  13.693  64.315  0.00  0.00    +0.382 C 
ATOM     10  OXT UNL     1     -12.670  14.859  63.956  0.00  0.00    -0.244 OA
ATOM     11  O   UNL     1     -11.700  12.972  63.307  0.00  0.00    -0.244 OA
ENDBRANCH   4   9
ENDBRANCH   1   2
BRANCH   1  12
ATOM     12  N   UNL     1     -11.155  14.790  69.676  0.00  0.00    -0.200 NA
BRANCH  12  13
ATOM     13  CA  UNL     1     -12.705  14.674  70.069  0.00  0.00    +0.176 C 
BRANCH  13  14
ATOM     14  C   UNL     1     -12.506  15.690  71.347  0.00  0.00    +0.380 C 
ATOM     15  OXT UNL     1     -11.603  15.209  72.290  0.00  0.00    -0.244 OA
ATOM     16  O   UNL     1     -13.685  15.863  71.787  0.00  0.00    -0.244 OA
ENDBRANCH  13  14
BRANCH  13  17
ATOM     17  C   UNL     1     -12.413  13.324  71.017  0.00  0.00    +0.034 C 
BRANCH  17  18
ATOM     18  C   UNL     1     -11.867  12.416  69.917  0.00  0.00    +0.028 C 
BRANCH  18  19
ATOM     19  C   UNL     1     -12.130  10.999  70.320  0.00  0.00    -0.022 A 
ATOM     20  C   UNL     1     -13.036  10.813  71.354  0.00  0.00    -0.004 A 
ATOM     21  C   UNL     1     -13.071   9.647  72.103  0.00  0.00    -0.000 A 
ATOM     22  C   UNL     1     -12.013   8.764  71.966  0.00  0.00    -0.000 A 
ATOM     23  C   UNL     1     -11.104   8.933  70.947  0.00  0.00    -0.000 A 
ATOM     24  C   UNL     1     -11.035  10.157  70.319  0.00  0.00    -0.004 A 
ENDBRANCH  18  19
ENDBRANCH  17  18
ENDBRANCH  13  17
ENDBRANCH  12  13
ENDBRANCH   1  12
BRANCH   1  25
ATOM     25  CB  UNL     1      -9.955  16.735  69.023  0.00  0.00    +0.027 C 
BRANCH  25  26
ATOM     26  CG  UNL     1      -9.552  17.572  67.860  0.00  0.00    +0.003 C 
BRANCH  26  27
ATOM     27  CD  UNL     1     -10.203  18.907  67.767  0.00  0.00    +0.021 C 
BRANCH  27  29
ATOM     28  NZ  UNL     1     -10.643  18.315  65.438  0.00  0.00    -0.131 NA
ATOM     29  CE  UNL     1     -10.516  19.361  66.374  0.00  0.00    +0.109 C 
ENDBRANCH  27  29
ENDBRANCH  26  27
ENDBRANCH  25  26
ENDBRANCH   1  25
TORSDOF 12
ENDMDL
MODEL 2
REMARK VINA RESULT:      -6.8      2.650      5.667
REMARK  Name = 
REMARK  12 active torsions:
REMARK  status: ('A' for Active; 'I' for Inactive)
REMARK    1  A    between atoms: C_2  and  C_3
REMARK    2  A    between atoms: C_3  and  C_4
REMARK    3  A    between atoms: C_4  and  C_5
REMARK    4  A    between atoms: C_5  and  C_6
REMARK    5  A    between atoms: C_6  and  N_7
REMARK    6  A    between atoms: C_6  and  C_20
REMARK    7  A    between atoms: N_7  and  C_8
REMARK    8  A    between atoms: C_8  and  C_9
REMARK    9  A    between atoms: C_8  and  C_17
REMARK   10  A    between atoms: C_9  and  C_10
REMARK   11  A    between atoms: C_10  and  C_11
REMARK   12  A    between atoms: CA_26  and  C_27
REMARK                            x       y       z     vdW  Elec       q    Type
REMARK                         _______ _______ _______ _____ _____    ______ ____
ROOT
ATOM      1  CA  UNL     1     -11.770  15.751  69.402  0.00  0.00    +0.149 C 
ENDROOT
BRANCH   1   2
ATOM      2  C   UNL     1     -10.330  16.536  69.282  0.00  0.00    +0.242 C 
ATOM      3  N   UNL     1     -10.401  17.317  68.072  0.00  0.00    -0.270 N 
ATOM      4  CA  UNL     1      -9.349  18.526  68.134  0.00  0.00    +0.179 C 
ATOM      5  CB  UNL     1      -8.099  17.504  67.687  0.00  0.00    +0.033 C 
ATOM      6  CG  UNL     1      -8.694  16.864  66.485  0.00  0.00    +0.024 C 
ATOM      7  CD  UNL     1     -10.147  16.711  66.797  0.00  0.00    +0.094 C 
ATOM      8  O   UNL     1      -9.331  15.811  69.405  0.00  0.00    -0.273 OA
BRANCH   4   9
ATOM      9  C   UNL     1      -9.653  18.992  66.583  0.00  0.00    +0.382 C 
ATOM     10  OXT UNL     1     -10.884  19.662  66.623  0.00  0.00    -0.244 OA
ATOM     11  O   UNL     1      -8.720  19.728  66.136  0.00  0.00    -0.244 OA
ENDBRANCH   4   9
ENDBRANCH   1   2
BRANCH   1  12
ATOM     12  N   UNL     1     -11.050  14.318  69.508  0.00  0.00    -0.200 NA
BRANCH  12  13
ATOM     13  CA  UNL     1     -12.069  13.499  68.581  0.00  0.00    +0.176 C 
BRANCH  13  14
ATOM     14  C   UNL     1     -11.752  12.101  69.387  0.00  0.00    +0.380 C 
ATOM     15  OXT UNL     1     -12.340  10.986  68.798  0.00  0.00    -0.244 OA
ATOM     16  O   UNL     1     -12.143  12.337  70.574  0.00  0.00    -0.244 OA
ENDBRANCH  13  14
BRANCH  13  17
ATOM     17  C   UNL     1     -10.870  13.192  67.452  0.00  0.00    +0.034 C 
BRANCH  17  18
ATOM     18  C   UNL     1     -11.736  13.303  66.199  0.00  0.00    +0.028 C 
BRANCH  18  19
ATOM     19  C   UNL     1     -11.413  12.140  65.314  0.00  0.00    -0.022 A 
ATOM     20  C   UNL     1     -10.643  11.134  65.880  0.00  0.00    -0.004 A 
ATOM     21  C   UNL     1      -9.927  10.232  65.108  0.00  0.00    -0.000 A 
ATOM     22  C   UNL     1      -9.792  10.507  63.757  0.00  0.00    -0.000 A 
ATOM     23  C   UNL     1     -10.547  11.501  63.180  0.00  0.00    -0.000 A 
ATOM     24  C   UNL     1     -11.137  12.442  63.996  0.00  0.00    -0.004 A 
ENDBRANCH  18  19
ENDBRANCH  17  18
ENDBRANCH  13  17
ENDBRANCH  12  13
ENDBRANCH   1  12
BRANCH   1  25
ATOM     25  CB  UNL     1     -11.839  15.930  71.067  0.00  0.00    +0.027 C 
BRANCH  25  26
ATOM     26  CG  UNL     1     -13.219  15.527  71.451  0.00  0.00    +0.003 C 
BRANCH  26  27
ATOM     27  CD  UNL     1     -13.590  15.759  72.874  0.00  0.00    +0.021 C 
BRANCH  27  29
ATOM     28  NZ  UNL     1     -12.467  16.376  74.954  0.00  0.00    -0.131 NA
ATOM     29  CE  UNL     1     -12.499  15.485  73.863  0.00  0.00    +0.109 C 
ENDBRANCH  27  29
ENDBRANCH  26  27
ENDBRANCH  25  26
ENDBRANCH   1  25
TORSDOF 12
ENDMDL
MODEL 3
REMARK VINA RESULT:      -6.4      2.681      5.352
REMARK  Name = 
REMARK  12 active torsions:
REMARK  status: ('A' for Active; 'I' for Inactive)
REMARK    1  A    between atoms: C_2  and  C_3
REMARK    2  A    between atoms: C_3  and  C_4
REMARK    3  A    between atoms: C_4  and  C_5
REMARK    4  A    between atoms: C_5  and  C_6
REMARK    5  A    between atoms: C_6  and  N_7
REMARK    6  A    between atoms: C_6  and  C_20
REMARK    7  A    between atoms: N_7  and  C_8
REMARK    8  A    between atoms: C_8  and  C_9
REMARK    9  A    between atoms: C_8  and  C_17
REMARK   10  A    between atoms: C_9  and  C_10
REMARK   11  A    between atoms: C_10  and  C_11
REMARK   12  A    between atoms: CA_26  and  C_27
REMARK                            x       y       z     vdW  Elec       q    Type
REMARK                         _______ _______ _______ _____ _____    ______ ____
ROOT
ATOM      1  CA  UNL     1      -9.509  14.657  66.932  0.00  0.00    +0.149 C 
ENDROOT
BRANCH   1   2
ATOM      2  C   UNL     1      -9.682  15.969  67.907  0.00  0.00    +0.242 C 
ATOM      3  N   UNL     1      -9.589  17.121  67.045  0.00  0.00    -0.270 N 
ATOM      4  CA  UNL     1     -10.293  18.386  67.737  0.00  0.00    +0.179 C 
ATOM      5  CB  UNL     1      -8.931  18.674  68.671  0.00  0.00    +0.033 C 
ATOM      6  CG  UNL     1      -7.880  18.667  67.620  0.00  0.00    +0.024 C 
ATOM      7  CD  UNL     1      -8.309  17.626  66.638  0.00  0.00    +0.094 C 
ATOM      8  O   UNL     1      -8.948  15.975  68.906  0.00  0.00    -0.273 OA
BRANCH   4   9
ATOM      9  C   UNL     1      -9.815  19.420  66.547  0.00  0.00    +0.382 C 
ATOM     10  OXT UNL     1     -10.614  19.115  65.436  0.00  0.00    -0.244 OA
ATOM     11  O   UNL     1      -9.944  20.629  66.913  0.00  0.00    -0.244 OA
ENDBRANCH   4   9
ENDBRANCH   1   2
BRANCH   1  12
ATOM     12  N   UNL     1     -10.856  13.984  67.495  0.00  0.00    -0.200 NA
BRANCH  12  13
ATOM     13  CA  UNL     1     -10.169  12.796  68.324  0.00  0.00    +0.176 C 
BRANCH  13  14
ATOM     14  C   UNL     1     -10.537  11.703  67.151  0.00  0.00    +0.380 C 
ATOM     15  OXT UNL     1     -11.730  11.026  67.391  0.00  0.00    -0.244 OA
ATOM     16  O   UNL     1      -9.510  10.956  67.095  0.00  0.00    -0.244 OA
ENDBRANCH  13  14
BRANCH  13  17
ATOM     17  C   UNL     1     -11.594  12.483  69.149  0.00  0.00    +0.034 C 
BRANCH  17  18
ATOM     18  C   UNL     1     -12.069  13.928  69.288  0.00  0.00    +0.028 C 
BRANCH  18  19
ATOM     19  C   UNL     1     -12.054  14.277  70.743  0.00  0.00    -0.022 A 
ATOM     20  C   UNL     1     -13.017  13.665  71.531  0.00  0.00    -0.004 A 
ATOM     21  C   UNL     1     -13.397  14.178  72.762  0.00  0.00    -0.000 A 
ATOM     22  C   UNL     1     -12.979  15.459  73.081  0.00  0.00    -0.000 A 
ATOM     23  C   UNL     1     -12.025  16.083  72.309  0.00  0.00    -0.000 A 
ATOM     24  C   UNL     1     -11.777  15.596  71.044  0.00  0.00    -0.004 A 
ENDBRANCH  18  19
ENDBRANCH  17  18
ENDBRANCH  13  17
ENDBRANCH  12  13
ENDBRANCH   1  12
BRANCH   1  25
ATOM     25  CB  UNL     1     -10.311  15.382  65.651  0.00  0.00    +0.027 C 
BRANCH  25  26
ATOM     26  CG  UNL     1     -11.647  14.727  65.600  0.00  0.00    +0.003 C 
BRANCH  26  27
ATOM     27  CD  UNL     1     -12.162  14.411  64.239  0.00  0.00    +0.021 C 
BRANCH  27  29
ATOM     28  NZ  UNL     1     -13.165  12.185  64.269  0.00  0.00    -0.131 NA
ATOM     29  CE  UNL     1     -12.072  12.969  63.850  0.00  0.00    +0.109 C 
ENDBRANCH  27  29
ENDBRANCH  26  27
ENDBRANCH  25  26
ENDBRANCH   1  25
TORSDOF 12
ENDMDL
MODEL 4
REMARK VINA RESULT:      -6.3      3.021      5.732
REMARK  Name = 
REMARK  12 active torsions:
REMARK  status: ('A' for Active; 'I' for Inactive)
REMARK    1  A    between atoms: C_2  and  C_3
REMARK    2  A    between atoms: C_3  and  C_4
REMARK    3  A    between atoms: C_4  and  C_5
REMARK    4  A    between atoms: C_5  and  C_6
REMARK    5  A    between atoms: C_6  and  N_7
REMARK    6  A    between atoms: C_6  and  C_20
REMARK    7  A    between atoms: N_7  and  C_8
REMARK    8  A    between atoms: C_8  and  C_9
REMARK    9  A    between atoms: C_8  and  C_17
REMARK   10  A    between atoms: C_9  and  C_10
REMARK   11  A    between atoms: C_10  and  C_11
REMARK   12  A    between atoms: CA_26  and  C_27
REMARK                            x       y       z     vdW  Elec       q    Type
REMARK                         _______ _______ _______ _____ _____    ______ ____
ROOT
ATOM      1  CA  UNL     1      -9.772  15.818  67.590  0.00  0.00    +0.149 C 
ENDROOT
BRANCH   1   2
ATOM      2  C   UNL     1      -9.405  17.059  66.577  0.00  0.00    +0.242 C 
ATOM      3  N   UNL     1      -8.838  18.096  67.404  0.00  0.00    -0.270 N 
ATOM      4  CA  UNL     1      -7.939  19.082  66.515  0.00  0.00    +0.179 C 
ATOM      5  CB  UNL     1      -9.302  19.908  65.995  0.00  0.00    +0.033 C 
ATOM      6  CG  UNL     1      -9.959  20.187  67.298  0.00  0.00    +0.024 C 
ATOM      7  CD  UNL     1      -9.689  18.985  68.143  0.00  0.00    +0.094 C 
ATOM      8  O   UNL     1     -10.327  17.407  65.824  0.00  0.00    -0.273 OA
BRANCH   4   9
ATOM      9  C   UNL     1      -7.671  20.117  67.768  0.00  0.00    +0.382 C 
ATOM     10  OXT UNL     1      -6.814  19.437  68.645  0.00  0.00    -0.244 OA
ATOM     11  O   UNL     1      -7.170  21.210  67.359  0.00  0.00    -0.244 OA
ENDBRANCH   4   9
ENDBRANCH   1   2
BRANCH   1  12
ATOM     12  N   UNL     1     -10.558  15.025  66.433  0.00  0.00    -0.200 NA
BRANCH  12  13
ATOM     13  CA  UNL     1     -10.709  13.626  67.200  0.00  0.00    +0.176 C 
BRANCH  13  14
ATOM     14  C   UNL     1     -11.723  13.048  66.041  0.00  0.00    +0.380 C 
ATOM     15  OXT UNL     1     -12.754  13.929  65.729  0.00  0.00    -0.244 OA
ATOM     16  O   UNL     1     -12.108  11.928  66.502  0.00  0.00    -0.244 OA
ENDBRANCH  13  14
BRANCH  13  17
ATOM     17  C   UNL     1     -11.987  14.210  68.113  0.00  0.00    +0.034 C 
BRANCH  17  18
ATOM     18  C   UNL     1     -11.614  13.542  69.435  0.00  0.00    +0.028 C 
BRANCH  18  19
ATOM     19  C   UNL     1     -12.313  14.280  70.534  0.00  0.00    -0.022 A 
ATOM     20  C   UNL     1     -11.643  15.374  71.062  0.00  0.00    -0.004 A 
ATOM     21  C   UNL     1     -11.943  15.887  72.315  0.00  0.00    -0.000 A 
ATOM     22  C   UNL     1     -12.754  15.129  73.143  0.00  0.00    -0.000 A 
ATOM     23  C   UNL     1     -13.425  14.040  72.636  0.00  0.00    -0.000 A 
ATOM     24  C   UNL     1     -13.003  13.500  71.441  0.00  0.00    -0.004 A 
ENDBRANCH  18  19
ENDBRANCH  17  18
ENDBRANCH  13  17
ENDBRANCH  12  13
ENDBRANCH   1  12
BRANCH   1  25
ATOM     25  CB  UNL     1      -8.336  15.011  67.278  0.00  0.00    +0.027 C 
BRANCH  25  26
ATOM     26  CG  UNL     1      -7.674  14.857  68.602  0.00  0.00    +0.003 C 
BRANCH  26  27
ATOM     27  CD  UNL     1      -6.538  15.782  68.869  0.00  0.00    +0.021 C 
BRANCH  27  29
ATOM     28  NZ  UNL     1      -4.744  14.981  67.418  0.00  0.00    -0.131 NA
ATOM     29  CE  UNL     1      -5.639  16.033  67.698  0.00  0.00    +0.109 C 
ENDBRANCH  27  29
ENDBRANCH  26  27
ENDBRANCH  25  26
ENDBRANCH   1  25
TORSDOF 12
ENDMDL
MODEL 5
REMARK VINA RESULT:      -6.2      2.551      5.558
REMARK  Name = 
REMARK  12 active torsions:
REMARK  status: ('A' for Active; 'I' for Inactive)
REMARK    1  A    between atoms: C_2  and  C_3
REMARK    2  A    between atoms: C_3  and  C_4
REMARK    3  A    between atoms: C_4  and  C_5
REMARK    4  A    between atoms: C_5  and  C_6
REMARK    5  A    between atoms: C_6  and  N_7
REMARK    6  A    between atoms: C_6  and  C_20
REMARK    7  A    between atoms: N_7  and  C_8
REMARK    8  A    between atoms: C_8  and  C_9
REMARK    9  A    between atoms: C_8  and  C_17
REMARK   10  A    between atoms: C_9  and  C_10
REMARK   11  A    between atoms: C_10  and  C_11
REMARK   12  A    between atoms: CA_26  and  C_27
REMARK                            x       y       z     vdW  Elec       q    Type
REMARK                         _______ _______ _______ _____ _____    ______ ____
ROOT
ATOM      1  CA  UNL     1     -10.292  15.402  66.945  0.00  0.00    +0.149 C 
ENDROOT
BRANCH   1   2
ATOM      2  C   UNL     1      -9.861  16.781  66.161  0.00  0.00    +0.242 C 
ATOM      3  N   UNL     1      -9.325  17.662  67.170  0.00  0.00    -0.270 N 
ATOM      4  CA  UNL     1      -8.372  18.760  66.493  0.00  0.00    +0.179 C 
ATOM      5  CB  UNL     1      -9.697  19.683  66.047  0.00  0.00    +0.033 C 
ATOM      6  CG  UNL     1     -10.416  19.764  67.345  0.00  0.00    +0.024 C 
ATOM      7  CD  UNL     1     -10.201  18.438  67.999  0.00  0.00    +0.094 C 
ATOM      8  O   UNL     1     -10.741  17.261  65.430  0.00  0.00    -0.273 OA
BRANCH   4   9
ATOM      9  C   UNL     1      -8.155  19.577  67.907  0.00  0.00    +0.382 C 
ATOM     10  OXT UNL     1      -7.380  18.735  68.716  0.00  0.00    -0.244 OA
ATOM     11  O   UNL     1      -7.594  20.698  67.705  0.00  0.00    -0.244 OA
ENDBRANCH   4   9
ENDBRANCH   1   2
BRANCH   1  12
ATOM     12  N   UNL     1     -11.361  15.017  65.808  0.00  0.00    -0.200 NA
BRANCH  12  13
ATOM     13  CA  UNL     1     -11.249  13.423  65.941  0.00  0.00    +0.176 C 
BRANCH  13  14
ATOM     14  C   UNL     1     -12.584  13.205  65.005  0.00  0.00    +0.380 C 
ATOM     15  OXT UNL     1     -12.344  13.423  63.652  0.00  0.00    -0.244 OA
ATOM     16  O   UNL     1     -13.449  13.983  65.519  0.00  0.00    -0.244 OA
ENDBRANCH  13  14
BRANCH  13  17
ATOM     17  C   UNL     1     -12.160  13.429  67.347  0.00  0.00    +0.034 C 
BRANCH  17  18
ATOM     18  C   UNL     1     -11.578  12.162  67.971  0.00  0.00    +0.028 C 
BRANCH  18  19
ATOM     19  C   UNL     1     -11.738  12.268  69.456  0.00  0.00    -0.022 A 
ATOM     20  C   UNL     1     -12.260  11.155  70.098  0.00  0.00    -0.004 A 
ATOM     21  C   UNL     1     -12.846  11.235  71.352  0.00  0.00    -0.000 A 
ATOM     22  C   UNL     1     -13.130  12.495  71.850  0.00  0.00    -0.000 A 
ATOM     23  C   UNL     1     -12.621  13.611  71.225  0.00  0.00    -0.000 A 
ATOM     24  C   UNL     1     -12.163  13.493  69.931  0.00  0.00    -0.004 A 
ENDBRANCH  18  19
ENDBRANCH  17  18
ENDBRANCH  13  17
ENDBRANCH  12  13
ENDBRANCH   1  12
BRANCH   1  25
ATOM     25  CB  UNL     1      -9.079  14.497  66.222  0.00  0.00    +0.027 C 
BRANCH  25  26
ATOM     26  CG  UNL     1      -7.976  14.447  67.221  0.00  0.00    +0.003 C 
BRANCH  26  27
ATOM     27  CD  UNL     1      -8.240  13.626  68.435  0.00  0.00    +0.021 C 
BRANCH  27  29
ATOM     28  NZ  UNL     1      -6.498  12.063  67.737  0.00  0.00    -0.131 NA
ATOM     29  CE  UNL     1      -7.753  12.213  68.359  0.00  0.00    +0.109 C 
ENDBRANCH  27  29
ENDBRANCH  26  27
ENDBRANCH  25  26
ENDBRANCH   1  25
TORSDOF 12
ENDMDL
MODEL 6
REMARK VINA RESULT:      -6.1      1.832      6.439
REMARK  Name = 
REMARK  12 active torsions:
REMARK  status: ('A' for Active; 'I' for Inactive)
REMARK    1  A    between atoms: C_2  and  C_3
REMARK    2  A    between atoms: C_3  and  C_4
REMARK    3  A    between atoms: C_4  and  C_5
REMARK    4  A    between atoms: C_5  and  C_6
REMARK    5  A    between atoms: C_6  and  N_7
REMARK    6  A    between atoms: C_6  and  C_20
REMARK    7  A    between atoms: N_7  and  C_8
REMARK    8  A    between atoms: C_8  and  C_9
REMARK    9  A    between atoms: C_8  and  C_17
REMARK   10  A    between atoms: C_9  and  C_10
REMARK   11  A    between atoms: C_10  and  C_11
REMARK   12  A    between atoms: CA_26  and  C_27
REMARK                            x       y       z     vdW  Elec       q    Type
REMARK                         _______ _______ _______ _____ _____    ______ ____
ROOT
ATOM      1  CA  UNL     1     -11.041  13.331  69.085  0.00  0.00    +0.149 C 
ENDROOT
BRANCH   1   2
ATOM      2  C   UNL     1     -11.819  13.330  67.637  0.00  0.00    +0.242 C 
ATOM      3  N   UNL     1     -10.851  12.886  66.664  0.00  0.00    -0.270 N 
ATOM      4  CA  UNL     1     -11.598  12.303  65.370  0.00  0.00    +0.179 C 
ATOM      5  CB  UNL     1     -11.845  13.850  64.775  0.00  0.00    +0.033 C 
ATOM      6  CG  UNL     1     -10.467  14.397  64.873  0.00  0.00    +0.024 C 
ATOM      7  CD  UNL     1      -9.893  13.804  66.118  0.00  0.00    +0.094 C 
ATOM      8  O   UNL     1     -12.419  14.382  67.368  0.00  0.00    -0.273 OA
BRANCH   4   9
ATOM      9  C   UNL     1     -10.192  12.101  64.536  0.00  0.00    +0.382 C 
ATOM     10  OXT UNL     1      -9.550  11.007  65.133  0.00  0.00    -0.244 OA
ATOM     11  O   UNL     1     -10.417  11.910  63.301  0.00  0.00    -0.244 OA
ENDBRANCH   4   9
ENDBRANCH   1   2
BRANCH   1  12
ATOM     12  N   UNL     1     -11.953  14.531  69.644  0.00  0.00    -0.200 NA
BRANCH  12  13
ATOM     13  CA  UNL     1     -10.813  15.296  70.472  0.00  0.00    +0.176 C 
BRANCH  13  14
ATOM     14  C   UNL     1     -11.916  15.867  71.551  0.00  0.00    +0.380 C 
ATOM     15  OXT UNL     1     -11.901  15.180  72.761  0.00  0.00    -0.244 OA
ATOM     16  O   UNL     1     -13.019  15.804  70.923  0.00  0.00    -0.244 OA
ENDBRANCH  13  14
BRANCH  13  17
ATOM     17  C   UNL     1     -10.960  16.659  69.508  0.00  0.00    +0.034 C 
BRANCH  17  18
ATOM     18  C   UNL     1      -9.592  16.579  68.833  0.00  0.00    +0.028 C 
BRANCH  18  19
ATOM     19  C   UNL     1      -9.491  17.717  67.867  0.00  0.00    -0.022 A 
ATOM     20  C   UNL     1      -9.447  18.989  68.420  0.00  0.00    -0.004 A 
ATOM     21  C   UNL     1      -9.770  20.122  67.688  0.00  0.00    -0.000 A 
ATOM     22  C   UNL     1     -10.384  19.941  66.460  0.00  0.00    -0.000 A 
ATOM     23  C   UNL     1     -10.438  18.686  65.897  0.00  0.00    -0.000 A 
ATOM     24  C   UNL     1     -10.226  17.590  66.704  0.00  0.00    -0.004 A 
ENDBRANCH  18  19
ENDBRANCH  17  18
ENDBRANCH  13  17
ENDBRANCH  12  13
ENDBRANCH   1  12
BRANCH   1  25
ATOM     25  CB  UNL     1     -12.045  12.158  69.736  0.00  0.00    +0.027 C 
BRANCH  25  26
ATOM     26  CG  UNL     1     -11.273  10.888  69.655  0.00  0.00    +0.003 C 
BRANCH  26  27
ATOM     27  CD  UNL     1     -11.495   9.923  70.767  0.00  0.00    +0.021 C 
BRANCH  27  29
ATOM     28  NZ  UNL     1     -10.455   8.378  72.347  0.00  0.00    -0.131 NA
ATOM     29  CE  UNL     1     -10.286   9.139  71.174  0.00  0.00    +0.109 C 
ENDBRANCH  27  29
ENDBRANCH  26  27
ENDBRANCH  25  26
ENDBRANCH   1  25
TORSDOF 12
ENDMDL
MODEL 7
REMARK VINA RESULT:      -6.0      2.784      6.841
REMARK  Name = 
REMARK  12 active torsions:
REMARK  status: ('A' for Active; 'I' for Inactive)
REMARK    1  A    between atoms: C_2  and  C_3
REMARK    2  A    between atoms: C_3  and  C_4
REMARK    3  A    between atoms: C_4  and  C_5
REMARK    4  A    between atoms: C_5  and  C_6
REMARK    5  A    between atoms: C_6  and  N_7
REMARK    6  A    between atoms: C_6  and  C_20
REMARK    7  A    between atoms: N_7  and  C_8
REMARK    8  A    between atoms: C_8  and  C_9
REMARK    9  A    between atoms: C_8  and  C_17
REMARK   10  A    between atoms: C_9  and  C_10
REMARK   11  A    between atoms: C_10  and  C_11
REMARK   12  A    between atoms: CA_26  and  C_27
REMARK                            x       y       z     vdW  Elec       q    Type
REMARK                         _______ _______ _______ _____ _____    ______ ____
ROOT
ATOM      1  CA  UNL     1     -10.734  13.031  67.807  0.00  0.00    +0.149 C 
ENDROOT
BRANCH   1   2
ATOM      2  C   UNL     1     -11.086  11.635  68.600  0.00  0.00    +0.242 C 
ATOM      3  N   UNL     1      -9.825  10.966  68.808  0.00  0.00    -0.270 N 
ATOM      4  CA  UNL     1      -9.946   9.930  70.026  0.00  0.00    +0.179 C 
ATOM      5  CB  UNL     1     -10.661   8.789  69.028  0.00  0.00    +0.033 C 
ATOM      6  CG  UNL     1      -9.692   8.775  67.901  0.00  0.00    +0.024 C 
ATOM      7  CD  UNL     1      -9.230  10.189  67.759  0.00  0.00    +0.094 C 
ATOM      8  O   UNL     1     -11.985  10.955  68.082  0.00  0.00    -0.273 OA
BRANCH   4   9
ATOM      9  C   UNL     1      -8.430   9.331  69.788  0.00  0.00    +0.382 C 
ATOM     10  OXT UNL     1      -7.554  10.312  70.272  0.00  0.00    -0.244 OA
ATOM     11  O   UNL     1      -8.279   8.219  70.381  0.00  0.00    -0.244 OA
ENDBRANCH   4   9
ENDBRANCH   1   2
BRANCH   1  12
ATOM     12  N   UNL     1     -11.523  12.554  66.490  0.00  0.00    -0.200 NA
BRANCH  12  13
ATOM     13  CA  UNL     1     -11.883  14.008  65.919  0.00  0.00    +0.176 C 
BRANCH  13  14
ATOM     14  C   UNL     1     -12.249  13.388  64.441  0.00  0.00    +0.380 C 
ATOM     15  OXT UNL     1     -12.688  14.352  63.538  0.00  0.00    -0.244 OA
ATOM     16  O   UNL     1     -13.099  12.477  64.693  0.00  0.00    -0.244 OA
ENDBRANCH  13  14
BRANCH  13  17
ATOM     17  C   UNL     1     -10.290  14.282  65.478  0.00  0.00    +0.034 C 
BRANCH  17  18
ATOM     18  C   UNL     1     -10.344  15.808  65.457  0.00  0.00    +0.028 C 
BRANCH  18  19
ATOM     19  C   UNL     1      -9.614  16.309  66.664  0.00  0.00    -0.022 A 
ATOM     20  C   UNL     1     -10.343  17.105  67.536  0.00  0.00    -0.004 A 
ATOM     21  C   UNL     1      -9.730  17.962  68.437  0.00  0.00    -0.000 A 
ATOM     22  C   UNL     1      -8.375  18.200  68.279  0.00  0.00    -0.000 A 
ATOM     23  C   UNL     1      -7.637  17.420  67.418  0.00  0.00    -0.000 A 
ATOM     24  C   UNL     1      -8.299  16.681  66.462  0.00  0.00    -0.004 A 
ENDBRANCH  18  19
ENDBRANCH  17  18
ENDBRANCH  13  17
ENDBRANCH  12  13
ENDBRANCH   1  12
BRANCH   1  25
ATOM     25  CB  UNL     1     -12.075  13.830  68.418  0.00  0.00    +0.027 C 
BRANCH  25  26
ATOM     26  CG  UNL     1     -11.741  14.135  69.836  0.00  0.00    +0.003 C 
BRANCH  26  27
ATOM     27  CD  UNL     1     -12.509  15.249  70.457  0.00  0.00    +0.021 C 
BRANCH  27  29
ATOM     28  NZ  UNL     1     -14.041  15.779  72.284  0.00  0.00    -0.131 NA
ATOM     29  CE  UNL     1     -13.650  14.821  71.327  0.00  0.00    +0.109 C 
ENDBRANCH  27  29
ENDBRANCH  26  27
ENDBRANCH  25  26
ENDBRANCH   1  25
TORSDOF 12
ENDMDL
MODEL 8
REMARK VINA RESULT:      -5.9      2.667      5.926
REMARK  Name = 
REMARK  12 active torsions:
REMARK  status: ('A' for Active; 'I' for Inactive)
REMARK    1  A    between atoms: C_2  and  C_3
REMARK    2  A    between atoms: C_3  and  C_4
REMARK    3  A    between atoms: C_4  and  C_5
REMARK    4  A    between atoms: C_5  and  C_6
REMARK    5  A    between atoms: C_6  and  N_7
REMARK    6  A    between atoms: C_6  and  C_20
REMARK    7  A    between atoms: N_7  and  C_8
REMARK    8  A    between atoms: C_8  and  C_9
REMARK    9  A    between atoms: C_8  and  C_17
REMARK   10  A    between atoms: C_9  and  C_10
REMARK   11  A    between atoms: C_10  and  C_11
REMARK   12  A    between atoms: CA_26  and  C_27
REMARK                            x       y       z     vdW  Elec       q    Type
REMARK                         _______ _______ _______ _____ _____    ______ ____
ROOT
ATOM      1  CA  UNL     1     -10.650  14.478  69.239  0.00  0.00    +0.149 C 
ENDROOT
BRANCH   1   2
ATOM      2  C   UNL     1     -11.320  13.013  68.913  0.00  0.00    +0.242 C 
ATOM      3  N   UNL     1     -10.229  12.070  68.895  0.00  0.00    -0.270 N 
ATOM      4  CA  UNL     1     -10.778  10.586  69.159  0.00  0.00    +0.179 C 
ATOM      5  CB  UNL     1     -11.248  10.440  67.558  0.00  0.00    +0.033 C 
ATOM      6  CG  UNL     1      -9.994  10.848  66.873  0.00  0.00    +0.024 C 
ATOM      7  CD  UNL     1      -9.409  11.926  67.726  0.00  0.00    +0.094 C 
ATOM      8  O   UNL     1     -12.073  12.993  67.928  0.00  0.00    -0.273 OA
BRANCH   4   9
ATOM      9  C   UNL     1      -9.306   9.895  68.893  0.00  0.00    +0.382 C 
ATOM     10  OXT UNL     1      -8.552  10.153  70.046  0.00  0.00    -0.244 OA
ATOM     11  O   UNL     1      -9.420   8.652  68.662  0.00  0.00    -0.244 OA
ENDBRANCH   4   9
ENDBRANCH   1   2
BRANCH   1  12
ATOM     12  N   UNL     1     -11.028  15.043  67.782  0.00  0.00    -0.200 NA
BRANCH  12  13
ATOM     13  CA  UNL     1      -9.648  15.805  67.486  0.00  0.00    +0.176 C 
BRANCH  13  14
ATOM     14  C   UNL     1     -10.446  17.123  66.910  0.00  0.00    +0.380 C 
ATOM     15  OXT UNL     1      -9.660  17.917  66.080  0.00  0.00    -0.244 OA
ATOM     16  O   UNL     1     -10.866  17.709  67.957  0.00  0.00    -0.244 OA
ENDBRANCH  13  14
BRANCH  13  17
ATOM     17  C   UNL     1      -9.545  15.123  65.959  0.00  0.00    +0.034 C 
BRANCH  17  18
ATOM     18  C   UNL     1     -11.044  14.996  65.691  0.00  0.00    +0.028 C 
BRANCH  18  19
ATOM     19  C   UNL     1     -11.229  13.992  64.597  0.00  0.00    -0.022 A 
ATOM     20  C   UNL     1     -12.454  13.340  64.564  0.00  0.00    -0.004 A 
ATOM     21  C   UNL     1     -12.626  12.131  63.908  0.00  0.00    -0.000 A 
ATOM     22  C   UNL     1     -11.490  11.454  63.497  0.00  0.00    -0.000 A 
ATOM     23  C   UNL     1     -10.268  12.085  63.524  0.00  0.00    -0.000 A 
ATOM     24  C   UNL     1     -10.126  13.219  64.293  0.00  0.00    -0.004 A 
ENDBRANCH  18  19
ENDBRANCH  17  18
ENDBRANCH  13  17
ENDBRANCH  12  13
ENDBRANCH   1  12
BRANCH   1  25
ATOM     25  CB  UNL     1     -12.058  15.078  69.925  0.00  0.00    +0.027 C 
BRANCH  25  26
ATOM     26  CG  UNL     1     -11.611  15.942  71.051  0.00  0.00    +0.003 C 
BRANCH  26  27
ATOM     27  CD  UNL     1     -11.695  15.334  72.407  0.00  0.00    +0.021 C 
BRANCH  27  29
ATOM     28  NZ  UNL     1     -12.651  16.344  74.415  0.00  0.00    -0.131 NA
ATOM     29  CE  UNL     1     -12.918  15.702  73.189  0.00  0.00    +0.109 C 
ENDBRANCH  27  29
ENDBRANCH  26  27
ENDBRANCH  25  26
ENDBRANCH   1  25
TORSDOF 12
ENDMDL
MODEL 9
REMARK VINA RESULT:      -5.8      2.909      5.690
REMARK  Name = 
REMARK  12 active torsions:
REMARK  status: ('A' for Active; 'I' for Inactive)
REMARK    1  A    between atoms: C_2  and  C_3
REMARK    2  A    between atoms: C_3  and  C_4
REMARK    3  A    between atoms: C_4  and  C_5
REMARK    4  A    between atoms: C_5  and  C_6
REMARK    5  A    between atoms: C_6  and  N_7
REMARK    6  A    between atoms: C_6  and  C_20
REMARK    7  A    between atoms: N_7  and  C_8
REMARK    8  A    between atoms: C_8  and  C_9
REMARK    9  A    between atoms: C_8  and  C_17
REMARK   10  A    between atoms: C_9  and  C_10
REMARK   11  A    between atoms: C_10  and  C_11
REMARK   12  A    between atoms: CA_26  and  C_27
REMARK                            x       y       z     vdW  Elec       q    Type
REMARK                         _______ _______ _______ _____ _____    ______ ____
ROOT
ATOM      1  CA  UNL     1      -9.580  10.542  66.379  0.00  0.00    +0.149 C 
ENDROOT
BRANCH   1   2
ATOM      2  C   UNL     1     -10.793  11.633  66.583  0.00  0.00    +0.242 C 
ATOM      3  N   UNL     1     -10.159  12.862  66.993  0.00  0.00    -0.270 N 
ATOM      4  CA  UNL     1     -11.116  14.109  66.674  0.00  0.00    +0.179 C 
ATOM      5  CB  UNL     1     -12.007  13.822  68.064  0.00  0.00    +0.033 C 
ATOM      6  CG  UNL     1     -10.915  13.735  69.068  0.00  0.00    +0.024 C 
ATOM      7  CD  UNL     1      -9.781  13.065  68.362  0.00  0.00    +0.094 C 
ATOM      8  O   UNL     1     -11.731  11.240  67.293  0.00  0.00    -0.273 OA
BRANCH   4   9
ATOM      9  C   UNL     1     -10.116  15.185  67.419  0.00  0.00    +0.382 C 
ATOM     10  OXT UNL     1      -9.003  15.315  66.577  0.00  0.00    -0.244 OA
ATOM     11  O   UNL     1     -10.703  16.294  67.614  0.00  0.00    -0.244 OA
ENDBRANCH   4   9
ENDBRANCH   1   2
BRANCH   1  12
ATOM     12  N   UNL     1     -10.463   9.352  67.002  0.00  0.00    -0.200 NA
BRANCH  12  13
ATOM     13  CA  UNL     1      -9.276   8.575  67.749  0.00  0.00    +0.176 C 
BRANCH  13  14
ATOM     14  C   UNL     1      -9.676   7.160  67.013  0.00  0.00    +0.380 C 
ATOM     15  OXT UNL     1      -8.983   6.947  65.825  0.00  0.00    -0.244 OA
ATOM     16  O   UNL     1     -10.938   7.230  66.881  0.00  0.00    -0.244 OA
ENDBRANCH  13  14
BRANCH  13  17
ATOM     17  C   UNL     1     -10.258   8.240  69.064  0.00  0.00    +0.034 C 
BRANCH  17  18
ATOM     18  C   UNL     1      -9.777   9.372  69.971  0.00  0.00    +0.028 C 
BRANCH  18  19
ATOM     19  C   UNL     1     -10.842   9.624  70.992  0.00  0.00    -0.022 A 
ATOM     20  C   UNL     1     -11.286   8.517  71.702  0.00  0.00    -0.004 A 
ATOM     21  C   UNL     1     -12.510   8.502  72.352  0.00  0.00    -0.000 A 
ATOM     22  C   UNL     1     -13.400   9.525  72.071  0.00  0.00    -0.000 A 
ATOM     23  C   UNL     1     -12.977  10.630  71.368  0.00  0.00    -0.000 A 
ATOM     24  C   UNL     1     -11.810  10.544  70.641  0.00  0.00    -0.004 A 
ENDBRANCH  18  19
ENDBRANCH  17  18
ENDBRANCH  13  17
ENDBRANCH  12  13
ENDBRANCH   1  12
BRANCH   1  25
ATOM     25  CB  UNL     1     -10.044  10.174  64.811  0.00  0.00    +0.027 C 
BRANCH  25  26
ATOM     26  CG  UNL     1     -10.097  11.479  64.098  0.00  0.00    +0.003 C 
BRANCH  26  27
ATOM     27  CD  UNL     1     -11.188  11.625  63.096  0.00  0.00    +0.021 C 
BRANCH  27  29
ATOM     28  NZ  UNL     1     -13.193  12.352  64.288  0.00  0.00    -0.131 NA
ATOM     29  CE  UNL     1     -12.171  12.716  63.388  0.00  0.00    +0.109 C 
ENDBRANCH  27  29
ENDBRANCH  26  27
ENDBRANCH  25  26
ENDBRANCH   1  25
TORSDOF 12
ENDMDL
