MODEL 1
REMARK VINA RESULT:      -6.0      0.000      0.000
REMARK  Name = 
REMARK  5 active torsions:
REMARK  status: ('A' for Active; 'I' for Inactive)
REMARK    1  A    between atoms: C_2  and  C_3
REMARK    2  A    between atoms: C_2  and  N_10
REMARK    3  A    between atoms: C_3  and  C_4
REMARK    4  A    between atoms: N_10  and  C_12
REMARK    5  A    between atoms: C_12  and  C_13
REMARK                            x       y       z     vdW  Elec       q    Type
REMARK                         _______ _______ _______ _____ _____    ______ ____
ROOT
ATOM      1  C   UNL     1      -9.327  15.172  68.858  0.00  0.00    +0.018 C 
ATOM      2  C   UNL     1     -10.567  14.066  68.900  0.00  0.00    +0.062 C 
ENDROOT
BRANCH   2   3
ATOM      3  N   UNL     1     -10.736  14.121  67.320  0.00  0.00    -0.269 NA
ATOM      4  C   UNL     1     -10.692  15.558  67.043  0.00  0.00    +0.090 C 
BRANCH   3   5
ATOM      5  C   UNL     1     -12.075  13.710  67.029  0.00  0.00    +0.099 C 
BRANCH   5   6
ATOM      6  C   UNL     1     -11.959  12.750  65.927  0.00  0.00    -0.006 A 
ATOM      7  C   UNL     1     -11.035  11.726  66.080  0.00  0.00    -0.003 A 
ATOM      8  C   UNL     1     -10.422  11.144  64.977  0.00  0.00    -0.000 A 
ATOM      9  C   UNL     1     -10.851  11.513  63.716  0.00  0.00    -0.000 A 
ATOM     10  C   UNL     1     -12.068  12.173  63.653  0.00  0.00    -0.000 A 
ATOM     11  C   UNL     1     -12.670  12.750  64.765  0.00  0.00    -0.003 A 
ENDBRANCH   5   6
ENDBRANCH   3   5
ENDBRANCH   2   3
BRANCH   2  12
ATOM     12  C   UNL     1     -11.693  15.255  69.176  0.00  0.00    +0.042 C 
BRANCH  12  13
ATOM     13  C   UNL     1     -12.132  15.027  70.584  0.00  0.00    -0.021 A 
ATOM     14  C   UNL     1     -11.792  16.035  71.456  0.00  0.00    -0.004 A 
ATOM     15  C   UNL     1     -12.302  16.002  72.737  0.00  0.00    -0.000 A 
ATOM     16  C   UNL     1     -13.058  14.929  73.115  0.00  0.00    -0.000 A 
ATOM     17  C   UNL     1     -13.248  13.837  72.302  0.00  0.00    -0.000 A 
ATOM     18  C   UNL     1     -12.755  13.873  71.006  0.00  0.00    -0.004 A 
ENDBRANCH  12  13
ENDBRANCH   2  12
TORSDOF 5
ENDMDL
MODEL 2
REMARK VINA RESULT:      -6.0      2.219      6.263
REMARK  Name = 
REMARK  5 active torsions:
REMARK  status: ('A' for Active; 'I' for Inactive)
REMARK    1  A    between atoms: C_2  and  C_3
REMARK    2  A    between atoms: C_2  and  N_10
REMARK    3  A    between atoms: C_3  and  C_4
REMARK    4  A    between atoms: N_10  and  C_12
REMARK    5  A    between atoms: C_12  and  C_13
REMARK                            x       y       z     vdW  Elec       q    Type
REMARK                         _______ _______ _______ _____ _____    ______ ____
ROOT
ATOM      1  C   UNL     1      -9.337  14.159  67.499  0.00  0.00    +0.018 C 
ATOM      2  C   UNL     1      -9.982  15.375  68.431  0.00  0.00    +0.062 C 
ENDROOT
BRANCH   2   3
ATOM      3  N   UNL     1     -11.301  14.533  68.707  0.00  0.00    -0.269 NA
ATOM      4  C   UNL     1     -11.768  14.216  67.356  0.00  0.00    +0.090 C 
BRANCH   3   5
ATOM      5  C   UNL     1     -12.267  15.438  69.251  0.00  0.00    +0.099 C 
BRANCH   5   6
ATOM      6  C   UNL     1     -12.212  15.243  70.702  0.00  0.00    -0.006 A 
ATOM      7  C   UNL     1     -12.699  14.041  71.195  0.00  0.00    -0.003 A 
ATOM      8  C   UNL     1     -13.233  13.954  72.475  0.00  0.00    -0.000 A 
ATOM      9  C   UNL     1     -13.146  15.061  73.299  0.00  0.00    -0.000 A 
ATOM     10  C   UNL     1     -12.249  16.043  72.910  0.00  0.00    -0.000 A 
ATOM     11  C   UNL     1     -11.723  16.116  71.626  0.00  0.00    -0.003 A 
ENDBRANCH   5   6
ENDBRANCH   3   5
ENDBRANCH   2   3
BRANCH   2  12
ATOM     12  C   UNL     1     -10.613  16.138  67.097  0.00  0.00    +0.042 C 
BRANCH  12  13
ATOM     13  C   UNL     1     -10.268  17.577  67.297  0.00  0.00    -0.021 A 
ATOM     14  C   UNL     1     -10.367  18.349  66.165  0.00  0.00    -0.004 A 
ATOM     15  C   UNL     1     -10.240  19.718  66.283  0.00  0.00    -0.000 A 
ATOM     16  C   UNL     1      -9.941  20.245  67.507  0.00  0.00    -0.000 A 
ATOM     17  C   UNL     1      -9.664  19.461  68.601  0.00  0.00    -0.000 A 
ATOM     18  C   UNL     1      -9.810  18.086  68.493  0.00  0.00    -0.004 A 
ENDBRANCH  12  13
ENDBRANCH   2  12
TORSDOF 5
ENDMDL
MODEL 3
REMARK VINA RESULT:      -5.9      1.074      6.685
REMARK  Name = 
REMARK  5 active torsions:
REMARK  status: ('A' for Active; 'I' for Inactive)
REMARK    1  A    between atoms: C_2  and  C_3
REMARK    2  A    between atoms: C_2  and  N_10
REMARK    3  A    between atoms: C_3  and  C_4
REMARK    4  A    between atoms: N_10  and  C_12
REMARK    5  A    between atoms: C_12  and  C_13
REMARK                            x       y       z     vdW  Elec       q    Type
REMARK                         _______ _______ _______ _____ _____    ______ ____
ROOT
ATOM      1  C   UNL     1      -9.777  14.425  68.130  0.00  0.00    +0.018 C 
ATOM      2  C   UNL     1     -11.247  14.876  67.499  0.00  0.00    +0.062 C 
ENDROOT
BRANCH   2   3
ATOM      3  N   UNL     1     -11.758  15.382  68.916  0.00  0.00    -0.269 NA
ATOM      4  C   UNL     1     -11.049  16.653  69.078  0.00  0.00    +0.090 C 
BRANCH   3   5
ATOM      5  C   UNL     1     -11.202  14.500  69.898  0.00  0.00    +0.099 C 
BRANCH   5   6
ATOM      6  C   UNL     1     -12.020  14.690  71.100  0.00  0.00    -0.006 A 
ATOM      7  C   UNL     1     -13.359  14.338  71.012  0.00  0.00    -0.003 A 
ATOM      8  C   UNL     1     -14.319  14.967  71.795  0.00  0.00    -0.000 A 
ATOM      9  C   UNL     1     -13.894  15.858  72.763  0.00  0.00    -0.000 A 
ATOM     10  C   UNL     1     -12.551  15.803  73.099  0.00  0.00    -0.000 A 
ATOM     11  C   UNL     1     -11.603  15.169  72.305  0.00  0.00    -0.003 A 
ENDBRANCH   5   6
ENDBRANCH   3   5
ENDBRANCH   2   3
BRANCH   2  12
ATOM     12  C   UNL     1     -11.864  13.346  67.695  0.00  0.00    +0.042 C 
BRANCH  12  13
ATOM     13  C   UNL     1     -11.679  12.700  66.362  0.00  0.00    -0.021 A 
ATOM     14  C   UNL     1     -12.413  13.268  65.348  0.00  0.00    -0.004 A 
ATOM     15  C   UNL     1     -12.180  12.858  64.052  0.00  0.00    -0.000 A 
ATOM     16  C   UNL     1     -11.287  11.847  63.834  0.00  0.00    -0.000 A 
ATOM     17  C   UNL     1     -10.688  11.158  64.862  0.00  0.00    -0.000 A 
ATOM     18  C   UNL     1     -10.904  11.579  66.166  0.00  0.00    -0.004 A 
ENDBRANCH  12  13
ENDBRANCH   2  12
TORSDOF 5
ENDMDL
MODEL 4
REMARK VINA RESULT:      -5.7      2.305      4.925
REMARK  Name = 
REMARK  5 active torsions:
REMARK  status: ('A' for Active; 'I' for Inactive)
REMARK    1  A    between atoms: C_2  and  C_3
REMARK    2  A    between atoms: C_2  and  N_10
REMARK    3  A    between atoms: C_3  and  C_4
REMARK    4  A    between atoms: N_10  and  C_12
REMARK    5  A    between atoms: C_12  and  C_13
REMARK                            x       y       z     vdW  Elec       q    Type
REMARK                         _______ _______ _______ _____ _____    ______ ____
ROOT
ATOM      1  C   UNL     1     -12.010  14.082  67.435  0.00  0.00    +0.018 C 
ATOM      2  C   UNL     1     -11.657  15.387  68.402  0.00  0.00    +0.062 C 
ENDROOT
BRANCH   2   3
ATOM      3  N   UNL     1     -10.267  15.619  67.667  0.00  0.00    -0.269 NA
ATOM      4  C   UNL     1      -9.707  14.268  67.605  0.00  0.00    +0.090 C 
BRANCH   3   5
ATOM      5  C   UNL     1      -9.432  16.344  68.575  0.00  0.00    +0.099 C 
BRANCH   5   6
ATOM      6  C   UNL     1      -9.304  17.687  68.001  0.00  0.00    -0.006 A 
ATOM      7  C   UNL     1      -9.645  18.755  68.818  0.00  0.00    -0.003 A 
ATOM      8  C   UNL     1     -10.120  19.945  68.280  0.00  0.00    -0.000 A 
ATOM      9  C   UNL     1     -10.118  20.091  66.905  0.00  0.00    -0.000 A 
ATOM     10  C   UNL     1      -9.343  19.188  66.195  0.00  0.00    -0.000 A 
ATOM     11  C   UNL     1      -8.875  18.002  66.747  0.00  0.00    -0.003 A 
ENDBRANCH   5   6
ENDBRANCH   3   5
ENDBRANCH   2   3
BRANCH   2  12
ATOM     12  C   UNL     1     -11.003  14.412  69.576  0.00  0.00    +0.042 C 
BRANCH  12  13
ATOM     13  C   UNL     1     -11.794  14.730  70.802  0.00  0.00    -0.021 A 
ATOM     14  C   UNL     1     -12.695  13.759  71.166  0.00  0.00    -0.004 A 
ATOM     15  C   UNL     1     -13.345  13.879  72.377  0.00  0.00    -0.000 A 
ATOM     16  C   UNL     1     -13.128  14.998  73.130  0.00  0.00    -0.000 A 
ATOM     17  C   UNL     1     -12.367  16.051  72.684  0.00  0.00    -0.000 A 
ATOM     18  C   UNL     1     -11.695  15.928  71.477  0.00  0.00    -0.004 A 
ENDBRANCH  12  13
ENDBRANCH   2  12
TORSDOF 5
ENDMDL
MODEL 5
REMARK VINA RESULT:      -5.6      2.072      6.334
REMARK  Name = 
REMARK  5 active torsions:
REMARK  status: ('A' for Active; 'I' for Inactive)
REMARK    1  A    between atoms: C_2  and  C_3
REMARK    2  A    between atoms: C_2  and  N_10
REMARK    3  A    between atoms: C_3  and  C_4
REMARK    4  A    between atoms: N_10  and  C_12
REMARK    5  A    between atoms: C_12  and  C_13
REMARK                            x       y       z     vdW  Elec       q    Type
REMARK                         _______ _______ _______ _____ _____    ______ ____
ROOT
ATOM      1  C   UNL     1     -11.708  14.424  69.531  0.00  0.00    +0.018 C 
ATOM      2  C   UNL     1     -10.859  13.734  68.279  0.00  0.00    +0.062 C 
ENDROOT
BRANCH   2   3
ATOM      3  N   UNL     1     -10.024  15.066  68.046  0.00  0.00    -0.269 NA
ATOM      4  C   UNL     1      -8.900  14.907  68.971  0.00  0.00    +0.090 C 
BRANCH   3   5
ATOM      5  C   UNL     1     -10.807  16.145  68.568  0.00  0.00    +0.099 C 
BRANCH   5   6
ATOM      6  C   UNL     1     -10.342  17.342  67.860  0.00  0.00    -0.006 A 
ATOM      7  C   UNL     1      -9.885  18.395  68.639  0.00  0.00    -0.003 A 
ATOM      8  C   UNL     1      -9.974  19.708  68.193  0.00  0.00    -0.000 A 
ATOM      9  C   UNL     1     -10.405  19.934  66.899  0.00  0.00    -0.000 A 
ATOM     10  C   UNL     1     -10.393  18.838  66.051  0.00  0.00    -0.000 A 
ATOM     11  C   UNL     1     -10.302  17.531  66.512  0.00  0.00    -0.003 A 
ENDBRANCH   5   6
ENDBRANCH   3   5
ENDBRANCH   2   3
BRANCH   2  12
ATOM     12  C   UNL     1     -12.036  14.144  67.181  0.00  0.00    +0.042 C 
BRANCH  12  13
ATOM     13  C   UNL     1     -11.794  13.232  66.024  0.00  0.00    -0.021 A 
ATOM     14  C   UNL     1     -12.380  13.637  64.848  0.00  0.00    -0.004 A 
ATOM     15  C   UNL     1     -12.072  12.959  63.687  0.00  0.00    -0.000 A 
ATOM     16  C   UNL     1     -11.259  11.864  63.763  0.00  0.00    -0.000 A 
ATOM     17  C   UNL     1     -10.819  11.353  64.960  0.00  0.00    -0.000 A 
ATOM     18  C   UNL     1     -11.109  12.041  66.129  0.00  0.00    -0.004 A 
ENDBRANCH  12  13
ENDBRANCH   2  12
TORSDOF 5
ENDMDL
MODEL 6
REMARK VINA RESULT:      -5.6      2.510      5.148
REMARK  Name = 
REMARK  5 active torsions:
REMARK  status: ('A' for Active; 'I' for Inactive)
REMARK    1  A    between atoms: C_2  and  C_3
REMARK    2  A    between atoms: C_2  and  N_10
REMARK    3  A    between atoms: C_3  and  C_4
REMARK    4  A    between atoms: N_10  and  C_12
REMARK    5  A    between atoms: C_12  and  C_13
REMARK                            x       y       z     vdW  Elec       q    Type
REMARK                         _______ _______ _______ _____ _____    ______ ____
ROOT
ATOM      1  C   UNL     1     -12.490  13.958  65.821  0.00  0.00    +0.018 C 
ATOM      2  C   UNL     1     -11.762  14.794  67.060  0.00  0.00    +0.062 C 
ENDROOT
BRANCH   2   3
ATOM      3  N   UNL     1     -10.756  15.506  66.056  0.00  0.00    -0.269 NA
ATOM      4  C   UNL     1     -10.185  14.376  65.320  0.00  0.00    +0.090 C 
BRANCH   3   5
ATOM      5  C   UNL     1      -9.686  16.037  66.845  0.00  0.00    +0.099 C 
BRANCH   5   6
ATOM      6  C   UNL     1     -10.080  17.412  67.162  0.00  0.00    -0.006 A 
ATOM      7  C   UNL     1     -10.471  18.215  66.101  0.00  0.00    -0.003 A 
ATOM      8  C   UNL     1     -10.304  19.594  66.146  0.00  0.00    -0.000 A 
ATOM      9  C   UNL     1      -9.865  20.164  67.326  0.00  0.00    -0.000 A 
ATOM     10  C   UNL     1      -9.946  19.367  68.457  0.00  0.00    -0.000 A 
ATOM     11  C   UNL     1     -10.114  17.989  68.396  0.00  0.00    -0.003 A 
ENDBRANCH   5   6
ENDBRANCH   3   5
ENDBRANCH   2   3
BRANCH   2  12
ATOM     12  C   UNL     1     -10.730  13.533  67.380  0.00  0.00    +0.042 C 
BRANCH  12  13
ATOM     13  C   UNL     1     -11.248  12.947  68.652  0.00  0.00    -0.021 A 
ATOM     14  C   UNL     1     -11.700  13.872  69.562  0.00  0.00    -0.004 A 
ATOM     15  C   UNL     1     -12.356  13.425  70.690  0.00  0.00    -0.000 A 
ATOM     16  C   UNL     1     -12.461  12.079  70.898  0.00  0.00    -0.000 A 
ATOM     17  C   UNL     1     -11.852  11.156  70.081  0.00  0.00    -0.000 A 
ATOM     18  C   UNL     1     -11.208  11.599  68.935  0.00  0.00    -0.004 A 
ENDBRANCH  12  13
ENDBRANCH   2  12
TORSDOF 5
ENDMDL
MODEL 7
REMARK VINA RESULT:      -5.5      1.137      2.170
REMARK  Name = 
REMARK  5 active torsions:
REMARK  status: ('A' for Active; 'I' for Inactive)
REMARK    1  A    between atoms: C_2  and  C_3
REMARK    2  A    between atoms: C_2  and  N_10
REMARK    3  A    between atoms: C_3  and  C_4
REMARK    4  A    between atoms: N_10  and  C_12
REMARK    5  A    between atoms: C_12  and  C_13
REMARK                            x       y       z     vdW  Elec       q    Type
REMARK                         _______ _______ _______ _____ _____    ______ ____
ROOT
ATOM      1  C   UNL     1      -9.557  17.029  68.748  0.00  0.00    +0.018 C 
ATOM      2  C   UNL     1      -9.903  15.651  69.611  0.00  0.00    +0.062 C 
ENDROOT
BRANCH   2   3
ATOM      3  N   UNL     1      -9.778  14.745  68.311  0.00  0.00    -0.269 NA
ATOM      4  C   UNL     1      -8.390  14.966  67.898  0.00  0.00    +0.090 C 
BRANCH   3   5
ATOM      5  C   UNL     1     -10.586  15.355  67.299  0.00  0.00    +0.099 C 
BRANCH   5   6
ATOM      6  C   UNL     1     -10.933  14.274  66.372  0.00  0.00    -0.006 A 
ATOM      7  C   UNL     1     -11.184  14.631  65.055  0.00  0.00    -0.003 A 
ATOM      8  C   UNL     1     -12.043  13.881  64.260  0.00  0.00    -0.000 A 
ATOM      9  C   UNL     1     -12.538  12.694  64.768  0.00  0.00    -0.000 A 
ATOM     10  C   UNL     1     -11.886  12.184  65.879  0.00  0.00    -0.000 A 
ATOM     11  C   UNL     1     -11.029  12.946  66.664  0.00  0.00    -0.003 A 
ENDBRANCH   5   6
ENDBRANCH   3   5
ENDBRANCH   2   3
BRANCH   2  12
ATOM     12  C   UNL     1     -11.538  15.882  69.431  0.00  0.00    +0.042 C 
BRANCH  12  13
ATOM     13  C   UNL     1     -12.111  15.504  70.757  0.00  0.00    -0.021 A 
ATOM     14  C   UNL     1     -12.968  14.430  70.721  0.00  0.00    -0.004 A 
ATOM     15  C   UNL     1     -13.411  13.896  71.913  0.00  0.00    -0.000 A 
ATOM     16  C   UNL     1     -13.045  14.504  73.081  0.00  0.00    -0.000 A 
ATOM     17  C   UNL     1     -12.338  15.683  73.108  0.00  0.00    -0.000 A 
ATOM     18  C   UNL     1     -11.873  16.213  71.914  0.00  0.00    -0.004 A 
ENDBRANCH  12  13
ENDBRANCH   2  12
TORSDOF 5
ENDMDL
MODEL 8
REMARK VINA RESULT:      -5.5      2.268      4.100
REMARK  Name = 
REMARK  5 active torsions:
REMARK  status: ('A' for Active; 'I' for Inactive)
REMARK    1  A    between atoms: C_2  and  C_3
REMARK    2  A    between atoms: C_2  and  N_10
REMARK    3  A    between atoms: C_3  and  C_4
REMARK    4  A    between atoms: N_10  and  C_12
REMARK    5  A    between atoms: C_12  and  C_13
REMARK                            x       y       z     vdW  Elec       q    Type
REMARK                         _______ _______ _______ _____ _____    ______ ____
ROOT
ATOM      1  C   UNL     1     -10.617  15.001  69.597  0.00  0.00    +0.018 C 
ATOM      2  C   UNL     1     -11.544  15.785  68.462  0.00  0.00    +0.062 C 
ENDROOT
BRANCH   2   3
ATOM      3  N   UNL     1     -11.889  14.419  67.727  0.00  0.00    -0.269 NA
ATOM      4  C   UNL     1     -11.901  13.455  68.829  0.00  0.00    +0.090 C 
BRANCH   3   5
ATOM      5  C   UNL     1     -10.753  14.079  66.925  0.00  0.00    +0.099 C 
BRANCH   5   6
ATOM      6  C   UNL     1     -11.234  13.076  65.971  0.00  0.00    -0.006 A 
ATOM      7  C   UNL     1     -10.449  11.946  65.797  0.00  0.00    -0.003 A 
ATOM      8  C   UNL     1     -10.449  11.251  64.593  0.00  0.00    -0.000 A 
ATOM      9  C   UNL     1     -11.351  11.631  63.616  0.00  0.00    -0.000 A 
ATOM     10  C   UNL     1     -12.395  12.442  64.030  0.00  0.00    -0.000 A 
ATOM     11  C   UNL     1     -12.381  13.130  65.237  0.00  0.00    -0.003 A 
ENDBRANCH   5   6
ENDBRANCH   3   5
ENDBRANCH   2   3
BRANCH   2  12
ATOM     12  C   UNL     1     -10.218  16.094  67.511  0.00  0.00    +0.042 C 
BRANCH  12  13
ATOM     13  C   UNL     1     -10.214  17.579  67.355  0.00  0.00    -0.021 A 
ATOM     14  C   UNL     1      -9.995  18.273  68.521  0.00  0.00    -0.004 A 
ATOM     15  C   UNL     1      -9.800  19.637  68.452  0.00  0.00    -0.000 A 
ATOM     16  C   UNL     1      -9.911  20.256  67.240  0.00  0.00    -0.000 A 
ATOM     17  C   UNL     1     -10.307  19.589  66.105  0.00  0.00    -0.000 A 
ATOM     18  C   UNL     1     -10.485  18.215  66.163  0.00  0.00    -0.004 A 
ENDBRANCH  12  13
ENDBRANCH   2  12
TORSDOF 5
ENDMDL
MODEL 9
REMARK VINA RESULT:      -5.5      1.855      2.951
REMARK  Name = 
REMARK  5 active torsions:
REMARK  status: ('A' for Active; 'I' for Inactive)
REMARK    1  A    between atoms: C_2  and  C_3
REMARK    2  A    between atoms: C_2  and  N_10
REMARK    3  A    between atoms: C_3  and  C_4
REMARK    4  A    between atoms: N_10  and  C_12
REMARK    5  A    between atoms: C_12  and  C_13
REMARK                            x       y       z     vdW  Elec       q    Type
REMARK                         _______ _______ _______ _____ _____    ______ ____
ROOT
ATOM      1  C   UNL     1      -9.598  15.913  68.860  0.00  0.00    +0.018 C 
ATOM      2  C   UNL     1     -10.435  14.551  69.317  0.00  0.00    +0.062 C 
ENDROOT
BRANCH   2   3
ATOM      3  N   UNL     1     -10.645  14.111  67.804  0.00  0.00    -0.269 NA
ATOM      4  C   UNL     1     -11.047  15.363  67.159  0.00  0.00    +0.090 C 
BRANCH   3   5
ATOM      5  C   UNL     1     -11.801  13.268  67.771  0.00  0.00    +0.099 C 
BRANCH   5   6
ATOM      6  C   UNL     1     -11.325  11.938  68.164  0.00  0.00    -0.006 A 
ATOM      7  C   UNL     1     -11.995  11.314  69.207  0.00  0.00    -0.003 A 
ATOM      8  C   UNL     1     -11.347  10.401  70.030  0.00  0.00    -0.000 A 
ATOM      9  C   UNL     1     -10.057  10.025  69.706  0.00  0.00    -0.000 A 
ATOM     10  C   UNL     1      -9.637  10.326  68.419  0.00  0.00    -0.000 A 
ATOM     11  C   UNL     1     -10.296  11.240  67.608  0.00  0.00    -0.003 A 
ENDBRANCH   5   6
ENDBRANCH   3   5
ENDBRANCH   2   3
BRANCH   2  12
ATOM     12  C   UNL     1     -11.868  15.389  69.391  0.00  0.00    +0.042 C 
BRANCH  12  13
ATOM     13  C   UNL     1     -12.273  15.302  70.825  0.00  0.00    -0.021 A 
ATOM     14  C   UNL     1     -13.115  14.255  71.116  0.00  0.00    -0.004 A 
ATOM     15  C   UNL     1     -13.404  13.986  72.438  0.00  0.00    -0.000 A 
ATOM     16  C   UNL     1     -12.907  14.817  73.401  0.00  0.00    -0.000 A 
ATOM     17  C   UNL     1     -12.215  15.966  73.099  0.00  0.00    -0.000 A 
ATOM     18  C   UNL     1     -11.904  16.231  71.773  0.00  0.00    -0.004 A 
ENDBRANCH  12  13
ENDBRANCH   2  12
TORSDOF 5
ENDMDL
