MODEL 1
REMARK VINA RESULT:      -5.3      0.000      0.000
REMARK  Name = 
REMARK  5 active torsions:
REMARK  status: ('A' for Active; 'I' for Inactive)
REMARK    1  A    between atoms: C_2  and  N_3
REMARK    2  A    between atoms: N_3  and  C_4
REMARK    3  A    between atoms: C_6  and  C_8
REMARK    4  A    between atoms: C_8  and  C_9
REMARK    5  A    between atoms: C_16  and  C_17
REMARK                            x       y       z     vdW  Elec       q    Type
REMARK                         _______ _______ _______ _____ _____    ______ ____
ROOT
ATOM      1  C   UNL     1     -11.259  15.055  69.300  0.00  0.00    +0.089 C 
ATOM      2  C   UNL     1     -11.202  16.462  68.384  0.00  0.00    +0.032 C 
ATOM      3  C   UNL     1      -9.965  16.124  69.491  0.00  0.00    +0.015 C 
ENDROOT
BRANCH   1   4
ATOM      4  C   UNL     1     -12.059  15.246  70.510  0.00  0.00    -0.015 A 
ATOM      5  C   UNL     1     -13.423  15.038  70.613  0.00  0.00    -0.004 A 
ATOM      6  C   UNL     1     -14.072  15.263  71.822  0.00  0.00    -0.000 A 
ATOM      7  C   UNL     1     -13.348  15.736  72.905  0.00  0.00    -0.000 A 
ATOM      8  C   UNL     1     -11.992  15.476  72.903  0.00  0.00    -0.000 A 
ATOM      9  C   UNL     1     -11.364  15.250  71.714  0.00  0.00    -0.004 A 
ENDBRANCH   1   4
BRANCH   1  11
ATOM     10  N   UNL     1     -11.695  12.717  68.425  0.00  0.00    -0.279 N 
ATOM     11  C   UNL     1     -10.855  13.842  68.725  0.00  0.00    +0.229 C 
ATOM     12  O   UNL     1      -9.621  13.541  68.721  0.00  0.00    -0.275 OA
BRANCH  10  14
ATOM     13  C   UNL     1     -11.905  10.933  69.364  0.00  0.00    +0.023 C 
ATOM     14  C   UNL     1     -11.963  11.820  69.548  0.00  0.00    +0.093 C 
ENDBRANCH  10  14
BRANCH  10  15
ATOM     15  C   UNL     1     -11.353  12.029  67.181  0.00  0.00    +0.093 C 
ATOM     16  C   UNL     1     -12.043  12.761  66.038  0.00  0.00    +0.023 C 
ENDBRANCH  10  15
ENDBRANCH   1  11
BRANCH   2  17
ATOM     17  C   UNL     1     -10.352  15.767  67.065  0.00  0.00    +0.110 C 
ATOM     18  N   UNL     1     -10.413  16.863  66.106  0.00  0.00    -0.131 NA
ENDBRANCH   2  17
TORSDOF 5
ENDMDL
MODEL 2
REMARK VINA RESULT:      -5.3      2.143      4.424
REMARK  Name = 
REMARK  5 active torsions:
REMARK  status: ('A' for Active; 'I' for Inactive)
REMARK    1  A    between atoms: C_2  and  N_3
REMARK    2  A    between atoms: N_3  and  C_4
REMARK    3  A    between atoms: C_6  and  C_8
REMARK    4  A    between atoms: C_8  and  C_9
REMARK    5  A    between atoms: C_16  and  C_17
REMARK                            x       y       z     vdW  Elec       q    Type
REMARK                         _______ _______ _______ _____ _____    ______ ____
ROOT
ATOM      1  C   UNL     1     -10.384  15.905  66.895  0.00  0.00    +0.089 C 
ATOM      2  C   UNL     1     -10.874  15.832  65.289  0.00  0.00    +0.032 C 
ATOM      3  C   UNL     1      -9.230  15.711  65.677  0.00  0.00    +0.015 C 
ENDROOT
BRANCH   1   4
ATOM      4  C   UNL     1     -10.210  17.291  67.330  0.00  0.00    -0.015 A 
ATOM      5  C   UNL     1      -9.498  17.700  68.444  0.00  0.00    -0.004 A 
ATOM      6  C   UNL     1      -9.413  19.052  68.758  0.00  0.00    -0.000 A 
ATOM      7  C   UNL     1     -10.081  19.977  67.971  0.00  0.00    -0.000 A 
ATOM      8  C   UNL     1     -10.354  19.599  66.671  0.00  0.00    -0.000 A 
ATOM      9  C   UNL     1     -10.430  18.272  66.370  0.00  0.00    -0.004 A 
ENDBRANCH   1   4
BRANCH   1  11
ATOM     10  N   UNL     1     -11.613  14.402  68.522  0.00  0.00    -0.279 N 
ATOM     11  C   UNL     1     -10.494  14.764  67.701  0.00  0.00    +0.229 C 
ATOM     12  O   UNL     1      -9.443  14.117  68.001  0.00  0.00    -0.275 OA
BRANCH  10  14
ATOM     13  C   UNL     1     -12.247  15.724  69.923  0.00  0.00    +0.023 C 
ATOM     14  C   UNL     1     -11.657  15.041  69.837  0.00  0.00    +0.093 C 
ENDBRANCH  10  14
BRANCH  10  15
ATOM     15  C   UNL     1     -11.900  12.968  68.547  0.00  0.00    +0.093 C 
ATOM     16  C   UNL     1     -11.888  12.516  70.001  0.00  0.00    +0.023 C 
ENDBRANCH  10  15
ENDBRANCH   1  11
BRANCH   2  17
ATOM     17  C   UNL     1     -11.101  14.132  65.262  0.00  0.00    +0.110 C 
ATOM     18  N   UNL     1     -12.370  14.047  64.550  0.00  0.00    -0.131 NA
ENDBRANCH   2  17
TORSDOF 5
ENDMDL
MODEL 3
REMARK VINA RESULT:      -5.3      1.551      2.288
REMARK  Name = 
REMARK  5 active torsions:
REMARK  status: ('A' for Active; 'I' for Inactive)
REMARK    1  A    between atoms: C_2  and  N_3
REMARK    2  A    between atoms: N_3  and  C_4
REMARK    3  A    between atoms: C_6  and  C_8
REMARK    4  A    between atoms: C_8  and  C_9
REMARK    5  A    between atoms: C_16  and  C_17
REMARK                            x       y       z     vdW  Elec       q    Type
REMARK                         _______ _______ _______ _____ _____    ______ ____
ROOT
ATOM      1  C   UNL     1     -10.867  15.389  68.511  0.00  0.00    +0.089 C 
ATOM      2  C   UNL     1     -10.659  17.049  68.661  0.00  0.00    +0.032 C 
ATOM      3  C   UNL     1      -9.523  15.991  69.338  0.00  0.00    +0.015 C 
ENDROOT
BRANCH   1   4
ATOM      4  C   UNL     1     -11.732  14.868  69.570  0.00  0.00    -0.015 A 
ATOM      5  C   UNL     1     -11.779  13.552  69.994  0.00  0.00    -0.004 A 
ATOM      6  C   UNL     1     -12.654  13.178  71.008  0.00  0.00    -0.000 A 
ATOM      7  C   UNL     1     -13.503  14.126  71.558  0.00  0.00    -0.000 A 
ATOM      8  C   UNL     1     -13.104  15.444  71.459  0.00  0.00    -0.000 A 
ATOM      9  C   UNL     1     -12.241  15.802  70.465  0.00  0.00    -0.004 A 
ENDBRANCH   1   4
BRANCH   1  11
ATOM     10  N   UNL     1     -11.393  14.334  66.268  0.00  0.00    -0.279 N 
ATOM     11  C   UNL     1     -10.506  14.755  67.314  0.00  0.00    +0.229 C 
ATOM     12  O   UNL     1      -9.358  14.219  67.221  0.00  0.00    -0.275 OA
BRANCH  10  14
ATOM     13  C   UNL     1     -11.970  12.450  65.793  0.00  0.00    +0.023 C 
ATOM     14  C   UNL     1     -12.038  13.039  66.479  0.00  0.00    +0.093 C 
ENDBRANCH  10  14
BRANCH  10  15
ATOM     15  C   UNL     1     -10.861  14.522  64.919  0.00  0.00    +0.093 C 
ATOM     16  C   UNL     1     -11.441  15.816  64.365  0.00  0.00    +0.023 C 
ENDBRANCH  10  15
ENDBRANCH   1  11
BRANCH   2  17
ATOM     17  C   UNL     1      -9.771  17.238  67.205  0.00  0.00    +0.110 C 
ATOM     18  N   UNL     1     -10.367  18.464  66.690  0.00  0.00    -0.131 NA
ENDBRANCH   2  17
TORSDOF 5
ENDMDL
MODEL 4
REMARK VINA RESULT:      -5.2      3.504      6.417
REMARK  Name = 
REMARK  5 active torsions:
REMARK  status: ('A' for Active; 'I' for Inactive)
REMARK    1  A    between atoms: C_2  and  N_3
REMARK    2  A    between atoms: N_3  and  C_4
REMARK    3  A    between atoms: C_6  and  C_8
REMARK    4  A    between atoms: C_8  and  C_9
REMARK    5  A    between atoms: C_16  and  C_17
REMARK                            x       y       z     vdW  Elec       q    Type
REMARK                         _______ _______ _______ _____ _____    ______ ____
ROOT
ATOM      1  C   UNL     1     -11.129  12.978  65.287  0.00  0.00    +0.089 C 
ATOM      2  C   UNL     1     -11.739  13.732  63.915  0.00  0.00    +0.032 C 
ATOM      3  C   UNL     1     -12.730  12.702  64.824  0.00  0.00    +0.015 C 
ENDROOT
BRANCH   1   4
ATOM      4  C   UNL     1     -10.440  11.734  64.943  0.00  0.00    -0.015 A 
ATOM      5  C   UNL     1     -10.263  10.653  65.789  0.00  0.00    -0.004 A 
ATOM      6  C   UNL     1      -9.579   9.527  65.344  0.00  0.00    -0.000 A 
ATOM      7  C   UNL     1      -9.045   9.515  64.065  0.00  0.00    -0.000 A 
ATOM      8  C   UNL     1      -9.632  10.359  63.143  0.00  0.00    -0.000 A 
ATOM      9  C   UNL     1     -10.305  11.459  63.587  0.00  0.00    -0.004 A 
ENDBRANCH   1   4
BRANCH   1  11
ATOM     10  N   UNL     1      -9.893  14.380  66.998  0.00  0.00    -0.279 N 
ATOM     11  C   UNL     1     -11.047  13.696  66.488  0.00  0.00    +0.229 C 
ATOM     12  O   UNL     1     -11.936  13.516  67.377  0.00  0.00    -0.275 OA
BRANCH  10  14
ATOM     13  C   UNL     1      -8.114  13.467  67.332  0.00  0.00    +0.023 C 
ATOM     14  C   UNL     1      -8.934  13.540  67.714  0.00  0.00    +0.093 C 
ENDBRANCH  10  14
BRANCH  10  15
ATOM     15  C   UNL     1     -10.193  15.645  67.668  0.00  0.00    +0.093 C 
ATOM     16  C   UNL     1      -9.599  16.769  66.830  0.00  0.00    +0.023 C 
ENDBRANCH  10  15
ENDBRANCH   1  11
BRANCH   2  17
ATOM     17  C   UNL     1     -12.282  15.142  64.727  0.00  0.00    +0.110 C 
ATOM     18  N   UNL     1     -11.673  16.175  63.899  0.00  0.00    -0.131 NA
ENDBRANCH   2  17
TORSDOF 5
ENDMDL
MODEL 5
REMARK VINA RESULT:      -5.0      3.111      4.334
REMARK  Name = 
REMARK  5 active torsions:
REMARK  status: ('A' for Active; 'I' for Inactive)
REMARK    1  A    between atoms: C_2  and  N_3
REMARK    2  A    between atoms: N_3  and  C_4
REMARK    3  A    between atoms: C_6  and  C_8
REMARK    4  A    between atoms: C_8  and  C_9
REMARK    5  A    between atoms: C_16  and  C_17
REMARK                            x       y       z     vdW  Elec       q    Type
REMARK                         _______ _______ _______ _____ _____    ______ ____
ROOT
ATOM      1  C   UNL     1     -10.865  12.092  67.714  0.00  0.00    +0.089 C 
ATOM      2  C   UNL     1     -12.047  13.284  67.659  0.00  0.00    +0.032 C 
ATOM      3  C   UNL     1     -10.545  13.616  68.369  0.00  0.00    +0.015 C 
ENDROOT
BRANCH   1   4
ATOM      4  C   UNL     1     -11.038  11.232  68.885  0.00  0.00    -0.015 A 
ATOM      5  C   UNL     1     -10.109  10.322  69.358  0.00  0.00    -0.004 A 
ATOM      6  C   UNL     1     -10.397   9.553  70.480  0.00  0.00    -0.000 A 
ATOM      7  C   UNL     1     -11.634   9.679  71.092  0.00  0.00    -0.000 A 
ATOM      8  C   UNL     1     -12.300  10.873  70.900  0.00  0.00    -0.000 A 
ATOM      9  C   UNL     1     -12.008  11.624  69.800  0.00  0.00    -0.004 A 
ENDBRANCH   1   4
BRANCH   1  11
ATOM     10  N   UNL     1     -10.360  10.866  65.555  0.00  0.00    -0.279 N 
ATOM     11  C   UNL     1     -10.088  11.838  66.575  0.00  0.00    +0.229 C 
ATOM     12  O   UNL     1      -8.890  12.257  66.538  0.00  0.00    -0.275 OA
BRANCH  10  14
ATOM     13  C   UNL     1      -9.296   9.158  65.306  0.00  0.00    +0.023 C 
ATOM     14  C   UNL     1      -9.928   9.503  65.859  0.00  0.00    +0.093 C 
ENDBRANCH  10  14
BRANCH  10  15
ATOM     15  C   UNL     1     -10.027  11.309  64.201  0.00  0.00    +0.093 C 
ATOM     16  C   UNL     1     -11.332  11.534  63.450  0.00  0.00    +0.023 C 
ENDBRANCH  10  15
ENDBRANCH   1  11
BRANCH   2  17
ATOM     17  C   UNL     1     -11.580  13.911  66.131  0.00  0.00    +0.110 C 
ATOM     18  N   UNL     1     -12.879  14.012  65.479  0.00  0.00    -0.131 NA
ENDBRANCH   2  17
TORSDOF 5
ENDMDL
MODEL 6
REMARK VINA RESULT:      -5.0      2.188      5.795
REMARK  Name = 
REMARK  5 active torsions:
REMARK  status: ('A' for Active; 'I' for Inactive)
REMARK    1  A    between atoms: C_2  and  N_3
REMARK    2  A    between atoms: N_3  and  C_4
REMARK    3  A    between atoms: C_6  and  C_8
REMARK    4  A    between atoms: C_8  and  C_9
REMARK    5  A    between atoms: C_16  and  C_17
REMARK                            x       y       z     vdW  Elec       q    Type
REMARK                         _______ _______ _______ _____ _____    ______ ____
ROOT
ATOM      1  C   UNL     1     -10.674  14.345  67.687  0.00  0.00    +0.089 C 
ATOM      2  C   UNL     1     -12.032  14.288  68.675  0.00  0.00    +0.032 C 
ATOM      3  C   UNL     1     -10.875  13.054  68.757  0.00  0.00    +0.015 C 
ENDROOT
BRANCH   1   4
ATOM      4  C   UNL     1     -10.953  13.764  66.373  0.00  0.00    -0.015 A 
ATOM      5  C   UNL     1     -10.045  13.070  65.593  0.00  0.00    -0.004 A 
ATOM      6  C   UNL     1     -10.431  12.572  64.353  0.00  0.00    -0.000 A 
ATOM      7  C   UNL     1     -11.716  12.814  63.893  0.00  0.00    -0.000 A 
ATOM      8  C   UNL     1     -12.678  13.067  64.851  0.00  0.00    -0.000 A 
ATOM      9  C   UNL     1     -12.291  13.549  66.066  0.00  0.00    -0.004 A 
ENDBRANCH   1   4
BRANCH   1  11
ATOM     10  N   UNL     1      -9.239  16.420  67.457  0.00  0.00    -0.279 N 
ATOM     11  C   UNL     1      -9.594  15.162  68.048  0.00  0.00    +0.229 C 
ATOM     12  O   UNL     1      -8.650  14.668  68.740  0.00  0.00    -0.275 OA
BRANCH  10  14
ATOM     13  C   UNL     1      -7.771  16.928  66.154  0.00  0.00    +0.023 C 
ATOM     14  C   UNL     1      -8.452  16.334  66.227  0.00  0.00    +0.093 C 
ENDBRANCH  10  14
BRANCH  10  15
ATOM     15  C   UNL     1      -8.746  17.413  68.411  0.00  0.00    +0.093 C 
ATOM     16  C   UNL     1      -9.876  18.394  68.689  0.00  0.00    +0.023 C 
ENDBRANCH  10  15
ENDBRANCH   1  11
BRANCH   2  17
ATOM     17  C   UNL     1     -11.334  15.172  69.969  0.00  0.00    +0.110 C 
ATOM     18  N   UNL     1     -12.498  15.910  70.443  0.00  0.00    -0.131 NA
ENDBRANCH   2  17
TORSDOF 5
ENDMDL
MODEL 7
REMARK VINA RESULT:      -4.9      2.086      3.043
REMARK  Name = 
REMARK  5 active torsions:
REMARK  status: ('A' for Active; 'I' for Inactive)
REMARK    1  A    between atoms: C_2  and  N_3
REMARK    2  A    between atoms: N_3  and  C_4
REMARK    3  A    between atoms: C_6  and  C_8
REMARK    4  A    between atoms: C_8  and  C_9
REMARK    5  A    between atoms: C_16  and  C_17
REMARK                            x       y       z     vdW  Elec       q    Type
REMARK                         _______ _______ _______ _____ _____    ______ ____
ROOT
ATOM      1  C   UNL     1     -11.123  13.833  67.087  0.00  0.00    +0.089 C 
ATOM      2  C   UNL     1     -12.384  13.920  65.981  0.00  0.00    +0.032 C 
ATOM      3  C   UNL     1     -11.265  15.187  66.087  0.00  0.00    +0.015 C 
ENDROOT
BRANCH   1   4
ATOM      4  C   UNL     1     -11.540  14.318  68.403  0.00  0.00    -0.015 A 
ATOM      5  C   UNL     1     -12.083  13.541  69.410  0.00  0.00    -0.004 A 
ATOM      6  C   UNL     1     -12.450  14.124  70.619  0.00  0.00    -0.000 A 
ATOM      7  C   UNL     1     -12.303  15.493  70.785  0.00  0.00    -0.000 A 
ATOM      8  C   UNL     1     -11.361  16.115  69.991  0.00  0.00    -0.000 A 
ATOM      9  C   UNL     1     -11.002  15.533  68.810  0.00  0.00    -0.004 A 
ENDBRANCH   1   4
BRANCH   1  11
ATOM     10  N   UNL     1      -9.797  11.674  67.047  0.00  0.00    -0.279 N 
ATOM     11  C   UNL     1      -9.988  13.071  66.778  0.00  0.00    +0.229 C 
ATOM     12  O   UNL     1      -8.898  13.665  66.511  0.00  0.00    -0.275 OA
BRANCH  10  14
ATOM     13  C   UNL     1      -9.836  10.724  68.838  0.00  0.00    +0.023 C 
ATOM     14  C   UNL     1      -9.349  11.353  68.402  0.00  0.00    +0.093 C 
ENDBRANCH  10  14
BRANCH  10  15
ATOM     15  C   UNL     1      -9.080  10.953  65.996  0.00  0.00    +0.093 C 
ATOM     16  C   UNL     1     -10.037   9.935  65.392  0.00  0.00    +0.023 C 
ENDBRANCH  10  15
ENDBRANCH   1  11
BRANCH   2  17
ATOM     17  C   UNL     1     -11.541  13.142  64.705  0.00  0.00    +0.110 C 
ATOM     18  N   UNL     1     -12.651  12.514  64.000  0.00  0.00    -0.131 NA
ENDBRANCH   2  17
TORSDOF 5
ENDMDL
MODEL 8
REMARK VINA RESULT:      -4.9      1.462      2.126
REMARK  Name = 
REMARK  5 active torsions:
REMARK  status: ('A' for Active; 'I' for Inactive)
REMARK    1  A    between atoms: C_2  and  N_3
REMARK    2  A    between atoms: N_3  and  C_4
REMARK    3  A    between atoms: C_6  and  C_8
REMARK    4  A    between atoms: C_8  and  C_9
REMARK    5  A    between atoms: C_16  and  C_17
REMARK                            x       y       z     vdW  Elec       q    Type
REMARK                         _______ _______ _______ _____ _____    ______ ____
ROOT
ATOM      1  C   UNL     1     -11.514  13.814  69.221  0.00  0.00    +0.089 C 
ATOM      2  C   UNL     1     -12.123  14.837  68.036  0.00  0.00    +0.032 C 
ATOM      3  C   UNL     1     -10.583  15.117  68.684  0.00  0.00    +0.015 C 
ENDROOT
BRANCH   1   4
ATOM      4  C   UNL     1     -11.962  14.223  70.553  0.00  0.00    -0.015 A 
ATOM      5  C   UNL     1     -11.365  15.192  71.339  0.00  0.00    -0.004 A 
ATOM      6  C   UNL     1     -11.883  15.485  72.596  0.00  0.00    -0.000 A 
ATOM      7  C   UNL     1     -12.973  14.770  73.066  0.00  0.00    -0.000 A 
ATOM      8  C   UNL     1     -13.790  14.193  72.114  0.00  0.00    -0.000 A 
ATOM      9  C   UNL     1     -13.277  13.914  70.882  0.00  0.00    -0.004 A 
ENDBRANCH   1   4
BRANCH   1  11
ATOM     10  N   UNL     1     -11.593  11.299  68.925  0.00  0.00    -0.279 N 
ATOM     11  C   UNL     1     -10.957  12.583  68.849  0.00  0.00    +0.229 C 
ATOM     12  O   UNL     1      -9.698  12.493  68.706  0.00  0.00    -0.275 OA
BRANCH  10  14
ATOM     13  C   UNL     1     -12.340  10.550  70.654  0.00  0.00    +0.023 C 
ATOM     14  C   UNL     1     -11.542  10.653  70.235  0.00  0.00    +0.093 C 
ENDBRANCH  10  14
BRANCH  10  15
ATOM     15  C   UNL     1     -11.280  10.408  67.809  0.00  0.00    +0.093 C 
ATOM     16  C   UNL     1     -10.444   9.257  68.352  0.00  0.00    +0.023 C 
ENDBRANCH  10  15
ENDBRANCH   1  11
BRANCH   2  17
ATOM     17  C   UNL     1     -11.515  13.935  66.709  0.00  0.00    +0.110 C 
ATOM     18  N   UNL     1     -12.635  14.044  65.782  0.00  0.00    -0.131 NA
ENDBRANCH   2  17
TORSDOF 5
ENDMDL
MODEL 9
REMARK VINA RESULT:      -4.9      1.632      6.028
REMARK  Name = 
REMARK  5 active torsions:
REMARK  status: ('A' for Active; 'I' for Inactive)
REMARK    1  A    between atoms: C_2  and  N_3
REMARK    2  A    between atoms: N_3  and  C_4
REMARK    3  A    between atoms: C_6  and  C_8
REMARK    4  A    between atoms: C_8  and  C_9
REMARK    5  A    between atoms: C_16  and  C_17
REMARK                            x       y       z     vdW  Elec       q    Type
REMARK                         _______ _______ _______ _____ _____    ______ ____
ROOT
ATOM      1  C   UNL     1     -11.076  12.380  67.574  0.00  0.00    +0.089 C 
ATOM      2  C   UNL     1     -11.968  11.265  68.458  0.00  0.00    +0.032 C 
ATOM      3  C   UNL     1     -10.344  10.950  68.096  0.00  0.00    +0.015 C 
ENDROOT
BRANCH   1   4
ATOM      4  C   UNL     1     -11.257  12.181  66.136  0.00  0.00    -0.015 A 
ATOM      5  C   UNL     1     -12.270  12.731  65.370  0.00  0.00    -0.004 A 
ATOM      6  C   UNL     1     -12.340  12.458  64.008  0.00  0.00    -0.000 A 
ATOM      7  C   UNL     1     -11.412  11.600  63.439  0.00  0.00    -0.000 A 
ATOM      8  C   UNL     1     -10.203  11.473  64.094  0.00  0.00    -0.000 A 
ATOM      9  C   UNL     1     -10.142  11.748  65.428  0.00  0.00    -0.004 A 
ENDBRANCH   1   4
BRANCH   1  11
ATOM     10  N   UNL     1     -11.113  14.825  68.240  0.00  0.00    -0.279 N 
ATOM     11  C   UNL     1     -10.547  13.506  68.220  0.00  0.00    +0.229 C 
ATOM     12  O   UNL     1      -9.329  13.496  68.582  0.00  0.00    -0.275 OA
BRANCH  10  14
ATOM     13  C   UNL     1     -10.441  16.460  67.249  0.00  0.00    +0.023 C 
ATOM     14  C   UNL     1     -10.813  15.652  67.073  0.00  0.00    +0.093 C 
ENDBRANCH  10  14
BRANCH  10  15
ATOM     15  C   UNL     1     -10.965  15.521  69.518  0.00  0.00    +0.093 C 
ATOM     16  C   UNL     1     -12.321  15.519  70.210  0.00  0.00    +0.023 C 
ENDBRANCH  10  15
ENDBRANCH   1  11
BRANCH   2  17
ATOM     17  C   UNL     1     -11.605  11.939  69.993  0.00  0.00    +0.110 C 
ATOM     18  N   UNL     1     -12.507  11.169  70.839  0.00  0.00    -0.131 NA
ENDBRANCH   2  17
TORSDOF 5
ENDMDL
