MODEL 1
REMARK VINA RESULT:      -7.3      0.000      0.000
REMARK  Name = 
REMARK  4 active torsions:
REMARK  status: ('A' for Active; 'I' for Inactive)
REMARK    1  A    between atoms: C_2  and  C_3
REMARK    2  A    between atoms: C_2  and  C_16
REMARK    3  A    between atoms: C_6  and  C_7
REMARK    4  A    between atoms: C_12  and  N_13
REMARK                            x       y       z     vdW  Elec       q    Type
REMARK                         _______ _______ _______ _____ _____    ______ ____
ROOT
ATOM      1  C   UNL     1     -11.085  13.945  69.182  0.00  0.00    +0.105 A 
ATOM      2  C   UNL     1     -11.897  12.932  69.668  0.00  0.00    +0.293 A 
ATOM      3  C   UNL     1     -12.555  13.165  70.862  0.00  0.00    +0.079 A 
ATOM      4  C   UNL     1     -12.551  14.405  71.485  0.00  0.00    +0.078 A 
ATOM      5  C   UNL     1     -11.568  15.299  71.111  0.00  0.00    +0.004 A 
ATOM      6  C   UNL     1     -10.920  15.096  69.906  0.00  0.00    +0.009 A 
ENDROOT
BRANCH   4   7
ATOM      7  C   UNL     1     -13.365  14.558  72.708  0.00  0.00    +0.419 C 
ATOM      8  F   UNL     1     -12.572  14.578  73.848  0.00  0.00    -0.166 F 
ATOM      9  F   UNL     1     -14.089  15.743  72.676  0.00  0.00    -0.166 F 
ATOM     10  F   UNL     1     -14.222  13.474  72.756  0.00  0.00    -0.166 F 
ENDBRANCH   4   7
BRANCH   2  11
ATOM     11  N   UNL     1     -11.495  11.603  69.315  0.00  0.00    +0.081 N 
ATOM     12  O   UNL     1     -12.316  10.954  68.409  0.00  0.00    -0.576 OA
ATOM     13  O   UNL     1     -11.109  10.912  70.293  0.00  0.00    +0.041 OA
ENDBRANCH   2  11
BRANCH   1  15
ATOM     14  O   UNL     1      -9.699  13.358  67.374  0.00  0.00    -0.290 OA
ATOM     15  C   UNL     1     -10.765  13.925  67.768  0.00  0.00    +0.193 C 
BRANCH  15  16
ATOM     16  C   UNL     1     -11.578  14.549  66.708  0.00  0.00    +0.176 C 
ATOM     17  C   UNL     1     -12.575  13.592  66.121  0.00  0.00    +0.165 C 
ATOM     18  O   UNL     1     -13.461  14.129  65.457  0.00  0.00    -0.295 OA
ATOM     19  C   UNL     1     -11.963  12.382  65.476  0.00  0.00    +0.066 C 
ATOM     20  C   UNL     1     -11.268  12.914  64.231  0.00  0.00    +0.016 C 
ATOM     21  C   UNL     1     -10.249  13.968  64.543  0.00  0.00    +0.066 C 
ATOM     22  C   UNL     1     -10.711  14.956  65.552  0.00  0.00    +0.165 C 
ATOM     23  O   UNL     1      -9.992  15.940  65.712  0.00  0.00    -0.295 OA
ENDBRANCH  15  16
ENDBRANCH   1  15
TORSDOF 4
ENDMDL
MODEL 2
REMARK VINA RESULT:      -7.0      3.049      3.980
REMARK  Name = 
REMARK  4 active torsions:
REMARK  status: ('A' for Active; 'I' for Inactive)
REMARK    1  A    between atoms: C_2  and  C_3
REMARK    2  A    between atoms: C_2  and  C_16
REMARK    3  A    between atoms: C_6  and  C_7
REMARK    4  A    between atoms: C_12  and  N_13
REMARK                            x       y       z     vdW  Elec       q    Type
REMARK                         _______ _______ _______ _____ _____    ______ ____
ROOT
ATOM      1  C   UNL     1     -11.373  14.352  69.160  0.00  0.00    +0.105 A 
ATOM      2  C   UNL     1     -11.875  14.425  70.450  0.00  0.00    +0.293 A 
ATOM      3  C   UNL     1     -12.350  13.254  71.013  0.00  0.00    +0.079 A 
ATOM      4  C   UNL     1     -12.196  12.018  70.401  0.00  0.00    +0.078 A 
ATOM      5  C   UNL     1     -11.914  12.011  69.050  0.00  0.00    +0.004 A 
ATOM      6  C   UNL     1     -11.411  13.165  68.477  0.00  0.00    +0.009 A 
ENDROOT
BRANCH   4   7
ATOM      7  C   UNL     1     -12.664  10.827  71.140  0.00  0.00    +0.419 C 
ATOM      8  F   UNL     1     -13.542  10.068  70.378  0.00  0.00    -0.166 F 
ATOM      9  F   UNL     1     -11.595  10.011  71.491  0.00  0.00    -0.166 F 
ATOM     10  F   UNL     1     -13.308  11.287  72.274  0.00  0.00    -0.166 F 
ENDBRANCH   4   7
BRANCH   2  11
ATOM     11  N   UNL     1     -12.455  15.684  70.811  0.00  0.00    +0.081 N 
ATOM     12  O   UNL     1     -11.742  16.422  71.741  0.00  0.00    -0.576 OA
ATOM     13  O   UNL     1     -13.699  15.638  70.989  0.00  0.00    +0.041 OA
ENDBRANCH   2  11
BRANCH   1  15
ATOM     14  O   UNL     1      -9.404  15.621  69.376  0.00  0.00    -0.290 OA
ATOM     15  C   UNL     1     -10.477  15.407  68.731  0.00  0.00    +0.193 C 
BRANCH  15  16
ATOM     16  C   UNL     1     -10.718  16.308  67.588  0.00  0.00    +0.176 C 
ATOM     17  C   UNL     1     -10.168  15.754  66.304  0.00  0.00    +0.165 C 
ATOM     18  O   UNL     1     -10.593  16.309  65.292  0.00  0.00    -0.295 OA
ATOM     19  C   UNL     1      -8.684  15.530  66.314  0.00  0.00    +0.066 C 
ATOM     20  C   UNL     1      -8.080  16.927  66.337  0.00  0.00    +0.016 C 
ATOM     21  C   UNL     1      -8.540  17.738  67.511  0.00  0.00    +0.066 C 
ATOM     22  C   UNL     1      -9.995  17.609  67.783  0.00  0.00    +0.165 C 
ATOM     23  O   UNL     1     -10.458  18.386  68.616  0.00  0.00    -0.295 OA
ENDBRANCH  15  16
ENDBRANCH   1  15
TORSDOF 4
ENDMDL
MODEL 3
REMARK VINA RESULT:      -6.9      2.689      4.055
REMARK  Name = 
REMARK  4 active torsions:
REMARK  status: ('A' for Active; 'I' for Inactive)
REMARK    1  A    between atoms: C_2  and  C_3
REMARK    2  A    between atoms: C_2  and  C_16
REMARK    3  A    between atoms: C_6  and  C_7
REMARK    4  A    between atoms: C_12  and  N_13
REMARK                            x       y       z     vdW  Elec       q    Type
REMARK                         _______ _______ _______ _____ _____    ______ ____
ROOT
ATOM      1  C   UNL     1     -11.100  15.859  69.405  0.00  0.00    +0.105 A 
ATOM      2  C   UNL     1     -11.757  14.693  69.044  0.00  0.00    +0.293 A 
ATOM      3  C   UNL     1     -12.444  14.018  70.037  0.00  0.00    +0.079 A 
ATOM      4  C   UNL     1     -12.619  14.543  71.310  0.00  0.00    +0.078 A 
ATOM      5  C   UNL     1     -11.775  15.565  71.696  0.00  0.00    +0.004 A 
ATOM      6  C   UNL     1     -11.103  16.269  70.713  0.00  0.00    +0.009 A 
ENDROOT
BRANCH   4   7
ATOM      7  C   UNL     1     -13.448  13.772  72.259  0.00  0.00    +0.419 C 
ATOM      8  F   UNL     1     -14.799  14.053  72.100  0.00  0.00    -0.166 F 
ATOM      9  F   UNL     1     -13.276  12.406  72.069  0.00  0.00    -0.166 F 
ATOM     10  F   UNL     1     -13.043  14.134  73.530  0.00  0.00    -0.166 F 
ENDBRANCH   4   7
BRANCH   2  11
ATOM     11  N   UNL     1     -11.167  13.970  67.957  0.00  0.00    +0.081 N 
ATOM     12  O   UNL     1     -11.984  13.783  66.854  0.00  0.00    -0.576 OA
ATOM     13  O   UNL     1     -10.500  12.966  68.318  0.00  0.00    +0.041 OA
ENDBRANCH   2  11
BRANCH   1  15
ATOM     14  O   UNL     1     -11.714  17.428  67.764  0.00  0.00    -0.290 OA
ATOM     15  C   UNL     1     -10.779  16.800  68.351  0.00  0.00    +0.193 C 
BRANCH  15  16
ATOM     16  C   UNL     1      -9.419  17.086  67.858  0.00  0.00    +0.176 C 
ATOM     17  C   UNL     1      -8.719  18.120  68.694  0.00  0.00    +0.165 C 
ATOM     18  O   UNL     1      -7.504  18.179  68.512  0.00  0.00    -0.295 OA
ATOM     19  C   UNL     1      -9.407  19.454  68.728  0.00  0.00    +0.066 C 
ATOM     20  C   UNL     1      -9.235  20.016  67.323  0.00  0.00    +0.016 C 
ATOM     21  C   UNL     1      -9.796  19.114  66.266  0.00  0.00    +0.066 C 
ATOM     22  C   UNL     1      -9.473  17.680  66.480  0.00  0.00    +0.165 C 
ATOM     23  O   UNL     1      -9.751  16.920  65.555  0.00  0.00    -0.295 OA
ENDBRANCH  15  16
ENDBRANCH   1  15
TORSDOF 4
ENDMDL
MODEL 4
REMARK VINA RESULT:      -6.9      1.793      2.920
REMARK  Name = 
REMARK  4 active torsions:
REMARK  status: ('A' for Active; 'I' for Inactive)
REMARK    1  A    between atoms: C_2  and  C_3
REMARK    2  A    between atoms: C_2  and  C_16
REMARK    3  A    between atoms: C_6  and  C_7
REMARK    4  A    between atoms: C_12  and  N_13
REMARK                            x       y       z     vdW  Elec       q    Type
REMARK                         _______ _______ _______ _____ _____    ______ ____
ROOT
ATOM      1  C   UNL     1     -11.371  14.268  69.243  0.00  0.00    +0.105 A 
ATOM      2  C   UNL     1     -10.781  15.398  69.787  0.00  0.00    +0.293 A 
ATOM      3  C   UNL     1     -11.303  15.877  70.975  0.00  0.00    +0.079 A 
ATOM      4  C   UNL     1     -12.268  15.188  71.696  0.00  0.00    +0.078 A 
ATOM      5  C   UNL     1     -12.984  14.216  71.027  0.00  0.00    +0.004 A 
ATOM      6  C   UNL     1     -12.462  13.706  69.853  0.00  0.00    +0.009 A 
ENDROOT
BRANCH   4   7
ATOM      7  C   UNL     1     -12.683  15.754  72.996  0.00  0.00    +0.419 C 
ATOM      8  F   UNL     1     -11.927  16.869  73.330  0.00  0.00    -0.166 F 
ATOM      9  F   UNL     1     -14.017  16.142  72.963  0.00  0.00    -0.166 F 
ATOM     10  F   UNL     1     -12.496  14.762  73.942  0.00  0.00    -0.166 F 
ENDBRANCH   4   7
BRANCH   2  11
ATOM     11  N   UNL     1     -10.201  16.302  68.839  0.00  0.00    +0.081 N 
ATOM     12  O   UNL     1      -8.856  16.575  69.023  0.00  0.00    -0.576 OA
ATOM     13  O   UNL     1     -10.927  17.295  68.574  0.00  0.00    +0.041 OA
ENDBRANCH   2  11
BRANCH   1  15
ATOM     14  O   UNL     1     -10.108  12.377  68.644  0.00  0.00    -0.290 OA
ATOM     15  C   UNL     1     -10.593  13.498  68.294  0.00  0.00    +0.193 C 
BRANCH  15  16
ATOM     16  C   UNL     1     -10.274  13.923  66.919  0.00  0.00    +0.176 C 
ATOM     17  C   UNL     1     -11.449  14.564  66.237  0.00  0.00    +0.165 C 
ATOM     18  O   UNL     1     -11.162  15.192  65.219  0.00  0.00    -0.295 OA
ATOM     19  C   UNL     1     -12.646  13.668  66.098  0.00  0.00    +0.066 C 
ATOM     20  C   UNL     1     -12.228  12.616  65.080  0.00  0.00    +0.016 C 
ATOM     21  C   UNL     1     -11.000  11.864  65.496  0.00  0.00    +0.066 C 
ATOM     22  C   UNL     1      -9.939  12.734  66.065  0.00  0.00    +0.165 C 
ATOM     23  O   UNL     1      -8.848  12.200  66.255  0.00  0.00    -0.295 OA
ENDBRANCH  15  16
ENDBRANCH   1  15
TORSDOF 4
ENDMDL
MODEL 5
REMARK VINA RESULT:      -6.8      2.182      3.070
REMARK  Name = 
REMARK  4 active torsions:
REMARK  status: ('A' for Active; 'I' for Inactive)
REMARK    1  A    between atoms: C_2  and  C_3
REMARK    2  A    between atoms: C_2  and  C_16
REMARK    3  A    between atoms: C_6  and  C_7
REMARK    4  A    between atoms: C_12  and  N_13
REMARK                            x       y       z     vdW  Elec       q    Type
REMARK                         _______ _______ _______ _____ _____    ______ ____
ROOT
ATOM      1  C   UNL     1     -10.916  15.311  69.664  0.00  0.00    +0.105 A 
ATOM      2  C   UNL     1     -11.876  14.362  69.349  0.00  0.00    +0.293 A 
ATOM      3  C   UNL     1     -12.990  14.291  70.165  0.00  0.00    +0.079 A 
ATOM      4  C   UNL     1     -13.240  15.220  71.165  0.00  0.00    +0.078 A 
ATOM      5  C   UNL     1     -12.179  15.989  71.596  0.00  0.00    +0.004 A 
ATOM      6  C   UNL     1     -11.068  16.094  70.778  0.00  0.00    +0.009 A 
ENDROOT
BRANCH   4   7
ATOM      7  C   UNL     1     -14.508  15.094  71.913  0.00  0.00    +0.419 C 
ATOM      8  F   UNL     1     -15.604  15.368  71.106  0.00  0.00    -0.166 F 
ATOM      9  F   UNL     1     -14.663  13.806  72.412  0.00  0.00    -0.166 F 
ATOM     10  F   UNL     1     -14.453  16.006  72.951  0.00  0.00    -0.166 F 
ENDBRANCH   4   7
BRANCH   2  11
ATOM     11  N   UNL     1     -11.382  13.184  68.701  0.00  0.00    +0.081 N 
ATOM     12  O   UNL     1     -11.865  12.961  67.422  0.00  0.00    -0.576 OA
ATOM     13  O   UNL     1     -11.336  12.174  69.449  0.00  0.00    +0.041 OA
ENDBRANCH   2  11
BRANCH   1  15
ATOM     14  O   UNL     1      -8.759  15.518  68.750  0.00  0.00    -0.290 OA
ATOM     15  C   UNL     1     -10.006  15.716  68.611  0.00  0.00    +0.193 C 
BRANCH  15  16
ATOM     16  C   UNL     1     -10.404  16.387  67.360  0.00  0.00    +0.176 C 
ATOM     17  C   UNL     1      -9.638  15.874  66.174  0.00  0.00    +0.165 C 
ATOM     18  O   UNL     1     -10.127  16.178  65.087  0.00  0.00    -0.295 OA
ATOM     19  C   UNL     1      -8.153  16.076  66.264  0.00  0.00    +0.066 C 
ATOM     20  C   UNL     1      -7.956  17.581  66.140  0.00  0.00    +0.016 C 
ATOM     21  C   UNL     1      -8.700  18.351  67.189  0.00  0.00    +0.066 C 
ATOM     22  C   UNL     1     -10.079  17.851  67.422  0.00  0.00    +0.165 C 
ATOM     23  O   UNL     1     -10.793  18.552  68.137  0.00  0.00    -0.295 OA
ENDBRANCH  15  16
ENDBRANCH   1  15
TORSDOF 4
ENDMDL
MODEL 6
REMARK VINA RESULT:      -6.7      2.033      3.005
REMARK  Name = 
REMARK  4 active torsions:
REMARK  status: ('A' for Active; 'I' for Inactive)
REMARK    1  A    between atoms: C_2  and  C_3
REMARK    2  A    between atoms: C_2  and  C_16
REMARK    3  A    between atoms: C_6  and  C_7
REMARK    4  A    between atoms: C_12  and  N_13
REMARK                            x       y       z     vdW  Elec       q    Type
REMARK                         _______ _______ _______ _____ _____    ______ ____
ROOT
ATOM      1  C   UNL     1     -11.536  14.229  69.460  0.00  0.00    +0.105 A 
ATOM      2  C   UNL     1     -10.979  15.423  69.890  0.00  0.00    +0.293 A 
ATOM      3  C   UNL     1     -11.427  15.934  71.095  0.00  0.00    +0.079 A 
ATOM      4  C   UNL     1     -12.276  15.227  71.934  0.00  0.00    +0.078 A 
ATOM      5  C   UNL     1     -12.980  14.175  71.384  0.00  0.00    +0.004 A 
ATOM      6  C   UNL     1     -12.528  13.633  70.194  0.00  0.00    +0.009 A 
ENDROOT
BRANCH   4   7
ATOM      7  C   UNL     1     -12.614  15.838  73.236  0.00  0.00    +0.419 C 
ATOM      8  F   UNL     1     -13.957  16.185  73.302  0.00  0.00    -0.166 F 
ATOM      9  F   UNL     1     -12.353  14.957  74.279  0.00  0.00    -0.166 F 
ATOM     10  F   UNL     1     -11.833  16.973  73.361  0.00  0.00    -0.166 F 
ENDBRANCH   4   7
BRANCH   2  11
ATOM     11  N   UNL     1     -10.547  16.307  68.849  0.00  0.00    +0.081 N 
ATOM     12  O   UNL     1      -9.230  16.726  68.933  0.00  0.00    -0.576 OA
ATOM     13  O   UNL     1     -11.385  17.198  68.559  0.00  0.00    +0.041 OA
ENDBRANCH   2  11
BRANCH   1  15
ATOM     14  O   UNL     1      -9.785  12.778  68.858  0.00  0.00    -0.290 OA
ATOM     15  C   UNL     1     -10.792  13.457  68.485  0.00  0.00    +0.193 C 
BRANCH  15  16
ATOM     16  C   UNL     1     -11.089  13.406  67.042  0.00  0.00    +0.176 C 
ATOM     17  C   UNL     1     -11.838  12.161  66.660  0.00  0.00    +0.165 C 
ATOM     18  O   UNL     1     -12.361  12.206  65.548  0.00  0.00    -0.295 OA
ATOM     19  C   UNL     1     -11.100  10.885  66.949  0.00  0.00    +0.066 C 
ATOM     20  C   UNL     1      -9.944  10.872  65.958  0.00  0.00    +0.016 C 
ATOM     21  C   UNL     1      -9.063  12.078  66.081  0.00  0.00    +0.066 C 
ATOM     22  C   UNL     1      -9.817  13.347  66.245  0.00  0.00    +0.165 C 
ATOM     23  O   UNL     1      -9.157  14.381  66.171  0.00  0.00    -0.295 OA
ENDBRANCH  15  16
ENDBRANCH   1  15
TORSDOF 4
ENDMDL
MODEL 7
REMARK VINA RESULT:      -6.5      3.639      5.168
REMARK  Name = 
REMARK  4 active torsions:
REMARK  status: ('A' for Active; 'I' for Inactive)
REMARK    1  A    between atoms: C_2  and  C_3
REMARK    2  A    between atoms: C_2  and  C_16
REMARK    3  A    between atoms: C_6  and  C_7
REMARK    4  A    between atoms: C_12  and  N_13
REMARK                            x       y       z     vdW  Elec       q    Type
REMARK                         _______ _______ _______ _____ _____    ______ ____
ROOT
ATOM      1  C   UNL     1     -10.575  14.805  67.593  0.00  0.00    +0.105 A 
ATOM      2  C   UNL     1     -11.549  14.108  66.896  0.00  0.00    +0.293 A 
ATOM      3  C   UNL     1     -11.680  12.758  67.167  0.00  0.00    +0.079 A 
ATOM      4  C   UNL     1     -10.993  12.136  68.199  0.00  0.00    +0.078 A 
ATOM      5  C   UNL     1      -9.886  12.786  68.706  0.00  0.00    +0.004 A 
ATOM      6  C   UNL     1      -9.755  14.143  68.469  0.00  0.00    +0.009 A 
ENDROOT
BRANCH   4   7
ATOM      7  C   UNL     1     -11.282  10.709  68.451  0.00  0.00    +0.419 C 
ATOM      8  F   UNL     1     -11.406   9.998  67.264  0.00  0.00    -0.166 F 
ATOM      9  F   UNL     1     -10.265  10.121  69.192  0.00  0.00    -0.166 F 
ATOM     10  F   UNL     1     -12.475  10.660  69.150  0.00  0.00    -0.166 F 
ENDBRANCH   4   7
BRANCH   2  11
ATOM     11  N   UNL     1     -11.842  14.611  65.587  0.00  0.00    +0.081 N 
ATOM     12  O   UNL     1     -13.092  14.284  65.090  0.00  0.00    -0.576 OA
ATOM     13  O   UNL     1     -10.887  14.502  64.775  0.00  0.00    +0.041 OA
ENDBRANCH   2  11
BRANCH   1  15
ATOM     14  O   UNL     1     -11.478  16.750  68.559  0.00  0.00    -0.290 OA
ATOM     15  C   UNL     1     -10.715  16.245  67.678  0.00  0.00    +0.193 C 
BRANCH  15  16
ATOM     16  C   UNL     1     -10.051  17.213  66.786  0.00  0.00    +0.176 C 
ATOM     17  C   UNL     1      -8.590  16.911  66.608  0.00  0.00    +0.165 C 
ATOM     18  O   UNL     1      -8.065  17.495  65.662  0.00  0.00    -0.295 OA
ATOM     19  C   UNL     1      -7.793  16.948  67.880  0.00  0.00    +0.066 C 
ATOM     20  C   UNL     1      -7.764  18.417  68.278  0.00  0.00    +0.016 C 
ATOM     21  C   UNL     1      -9.135  18.998  68.449  0.00  0.00    +0.066 C 
ATOM     22  C   UNL     1     -10.087  18.590  67.384  0.00  0.00    +0.165 C 
ATOM     23  O   UNL     1     -11.168  19.175  67.373  0.00  0.00    -0.295 OA
ENDBRANCH  15  16
ENDBRANCH   1  15
TORSDOF 4
ENDMDL
MODEL 8
REMARK VINA RESULT:      -6.5      4.680      6.269
REMARK  Name = 
REMARK  4 active torsions:
REMARK  status: ('A' for Active; 'I' for Inactive)
REMARK    1  A    between atoms: C_2  and  C_3
REMARK    2  A    between atoms: C_2  and  C_16
REMARK    3  A    between atoms: C_6  and  C_7
REMARK    4  A    between atoms: C_12  and  N_13
REMARK                            x       y       z     vdW  Elec       q    Type
REMARK                         _______ _______ _______ _____ _____    ______ ____
ROOT
ATOM      1  C   UNL     1     -11.026  14.748  66.518  0.00  0.00    +0.105 A 
ATOM      2  C   UNL     1     -10.161  13.685  66.728  0.00  0.00    +0.293 A 
ATOM      3  C   UNL     1     -10.202  12.643  65.819  0.00  0.00    +0.079 A 
ATOM      4  C   UNL     1     -10.950  12.704  64.651  0.00  0.00    +0.078 A 
ATOM      5  C   UNL     1     -11.956  13.647  64.591  0.00  0.00    +0.004 A 
ATOM      6  C   UNL     1     -11.913  14.711  65.474  0.00  0.00    +0.009 A 
ENDROOT
BRANCH   4   7
ATOM      7  C   UNL     1     -10.845  11.567  63.713  0.00  0.00    +0.419 C 
ATOM      8  F   UNL     1      -9.867  11.790  62.752  0.00  0.00    -0.166 F 
ATOM      9  F   UNL     1     -10.516  10.398  64.387  0.00  0.00    -0.166 F 
ATOM     10  F   UNL     1     -12.078  11.437  63.102  0.00  0.00    -0.166 F 
ENDBRANCH   4   7
BRANCH   2  11
ATOM     11  N   UNL     1      -9.823  13.433  68.097  0.00  0.00    +0.081 N 
ATOM     12  O   UNL     1      -8.501  13.091  68.331  0.00  0.00    -0.576 OA
ATOM     13  O   UNL     1     -10.679  12.749  68.714  0.00  0.00    +0.041 OA
ENDBRANCH   2  11
BRANCH   1  15
ATOM     14  O   UNL     1     -11.100  16.245  68.330  0.00  0.00    -0.290 OA
ATOM     15  C   UNL     1     -10.699  16.011  67.148  0.00  0.00    +0.193 C 
BRANCH  15  16
ATOM     16  C   UNL     1      -9.939  17.102  66.510  0.00  0.00    +0.176 C 
ATOM     17  C   UNL     1      -8.478  16.777  66.382  0.00  0.00    +0.165 C 
ATOM     18  O   UNL     1      -7.864  17.508  65.607  0.00  0.00    -0.295 OA
ATOM     19  C   UNL     1      -7.783  16.535  67.691  0.00  0.00    +0.066 C 
ATOM     20  C   UNL     1      -7.743  17.898  68.367  0.00  0.00    +0.016 C 
ATOM     21  C   UNL     1      -9.106  18.494  68.550  0.00  0.00    +0.066 C 
ATOM     22  C   UNL     1      -9.983  18.339  67.360  0.00  0.00    +0.165 C 
ATOM     23  O   UNL     1     -11.042  18.962  67.386  0.00  0.00    -0.295 OA
ENDBRANCH  15  16
ENDBRANCH   1  15
TORSDOF 4
ENDMDL
MODEL 9
REMARK VINA RESULT:      -6.5      1.301      1.869
REMARK  Name = 
REMARK  4 active torsions:
REMARK  status: ('A' for Active; 'I' for Inactive)
REMARK    1  A    between atoms: C_2  and  C_3
REMARK    2  A    between atoms: C_2  and  C_16
REMARK    3  A    between atoms: C_6  and  C_7
REMARK    4  A    between atoms: C_12  and  N_13
REMARK                            x       y       z     vdW  Elec       q    Type
REMARK                         _______ _______ _______ _____ _____    ______ ____
ROOT
ATOM      1  C   UNL     1     -11.329  13.153  68.840  0.00  0.00    +0.105 A 
ATOM      2  C   UNL     1     -12.090  12.444  69.757  0.00  0.00    +0.293 A 
ATOM      3  C   UNL     1     -12.445  13.094  70.925  0.00  0.00    +0.079 A 
ATOM      4  C   UNL     1     -12.203  14.446  71.127  0.00  0.00    +0.078 A 
ATOM      5  C   UNL     1     -11.261  15.049  70.320  0.00  0.00    +0.004 A 
ATOM      6  C   UNL     1     -10.915  14.426  69.134  0.00  0.00    +0.009 A 
ENDROOT
BRANCH   4   7
ATOM      7  C   UNL     1     -12.710  15.050  72.377  0.00  0.00    +0.419 C 
ATOM      8  F   UNL     1     -11.729  15.799  73.014  0.00  0.00    -0.166 F 
ATOM      9  F   UNL     1     -13.783  15.894  72.119  0.00  0.00    -0.166 F 
ATOM     10  F   UNL     1     -13.105  14.008  73.194  0.00  0.00    -0.166 F 
ENDBRANCH   4   7
BRANCH   2  11
ATOM     11  N   UNL     1     -11.884  11.026  69.756  0.00  0.00    +0.081 N 
ATOM     12  O   UNL     1     -12.882  10.280  70.360  0.00  0.00    -0.576 OA
ATOM     13  O   UNL     1     -10.705  10.685  70.032  0.00  0.00    +0.041 OA
ENDBRANCH   2  11
BRANCH   1  15
ATOM     14  O   UNL     1     -12.101  11.737  67.129  0.00  0.00    -0.290 OA
ATOM     15  C   UNL     1     -11.335  12.691  67.467  0.00  0.00    +0.193 C 
BRANCH  15  16
ATOM     16  C   UNL     1     -10.481  13.228  66.390  0.00  0.00    +0.176 C 
ATOM     17  C   UNL     1     -11.167  14.315  65.612  0.00  0.00    +0.165 C 
ATOM     18  O   UNL     1     -10.412  14.988  64.912  0.00  0.00    -0.295 OA
ATOM     19  C   UNL     1     -12.428  13.879  64.925  0.00  0.00    +0.066 C 
ATOM     20  C   UNL     1     -11.964  12.944  63.816  0.00  0.00    +0.016 C 
ATOM     21  C   UNL     1     -11.169  11.784  64.333  0.00  0.00    +0.066 C 
ATOM     22  C   UNL     1     -10.181  12.162  65.377  0.00  0.00    +0.165 C 
ATOM     23  O   UNL     1      -9.382  11.288  65.705  0.00  0.00    -0.295 OA
ENDBRANCH  15  16
ENDBRANCH   1  15
TORSDOF 4
ENDMDL
