MODEL 1
REMARK VINA RESULT:      -6.8      0.000      0.000
REMARK  Name = 
REMARK  4 active torsions:
REMARK  status: ('A' for Active; 'I' for Inactive)
REMARK    1  A    between atoms: C_5  and  C_6
REMARK    2  A    between atoms: C_14  and  C_15
REMARK    3  A    between atoms: N_17  and  CA_18
REMARK    4  A    between atoms: CA_27  and  C_28
REMARK                            x       y       z     vdW  Elec       q    Type
REMARK                         _______ _______ _______ _____ _____    ______ ____
ROOT
ATOM      1  C   UNL     1      -7.687  18.226  66.585  0.00  0.00    +0.270 C 
ATOM      2  N   UNL     1      -6.531  18.529  67.350  0.00  0.00    -0.191 NA
ATOM      3  O   UNL     1      -7.435  17.813  65.416  0.00  0.00    -0.268 OA
ENDROOT
BRANCH   2   4
ATOM      4  CA  UNL     1      -5.742  19.739  66.647  0.00  0.00    +0.200 C 
ATOM      5  C   UNL     1      -5.193  20.500  68.070  0.00  0.00    +0.153 C 
ATOM      6  S   UNL     1      -6.498  19.974  69.367  0.00  0.00    -0.118 S 
ATOM      7  C   UNL     1      -5.474  18.919  70.289  0.00  0.00    +0.068 C 
ATOM      8  CA  UNL     1      -3.937  19.147  69.655  0.00  0.00    +0.189 C 
ATOM      9  C   UNL     1      -5.680  17.438  70.185  0.00  0.00    +0.013 C 
ATOM     10  C   UNL     1      -5.312  19.217  71.749  0.00  0.00    +0.013 C 
ATOM     11  N   UNL     1      -4.473  19.170  68.156  0.00  0.00    -0.259 N 
ATOM     12  C   UNL     1      -4.310  18.957  66.775  0.00  0.00    +0.249 C 
ATOM     13  O   UNL     1      -3.365  19.303  65.997  0.00  0.00    -0.273 OA
BRANCH   8  14
ATOM     14  C   UNL     1      -3.973  20.787  69.879  0.00  0.00    +0.383 C 
ATOM     15  OXT UNL     1      -3.781  21.123  71.226  0.00  0.00    -0.244 OA
ATOM     16  O   UNL     1      -2.995  21.200  69.170  0.00  0.00    -0.244 OA
ENDBRANCH   8  14
ENDBRANCH   2   4
BRANCH   1  19
ATOM     17  C   UNL     1      -9.635  20.550  66.948  0.00  0.00    +0.076 C 
ATOM     18  C   UNL     1      -9.897  19.230  67.349  0.00  0.00    +0.159 A 
ATOM     19  C   UNL     1      -9.038  18.170  67.096  0.00  0.00    +0.109 A 
ATOM     20  C   UNL     1      -9.821  17.046  67.175  0.00  0.00    +0.129 A 
ATOM     21  N   UNL     1     -10.923  17.434  67.862  0.00  0.00    -0.077 NA
ATOM     22  O   UNL     1     -10.937  18.731  67.997  0.00  0.00    -0.358 OA
BRANCH  20  23
ATOM     23  C   UNL     1      -9.578  15.690  66.667  0.00  0.00    +0.042 A 
ATOM     24  C   UNL     1     -10.199  15.237  65.507  0.00  0.00    +0.060 A 
ATOM     25 CL   UNL     1     -11.313  16.284  64.625  0.00  0.00    -0.082 Cl
ATOM     26  C   UNL     1     -10.187  13.879  65.211  0.00  0.00    +0.011 A 
ATOM     27  C   UNL     1     -10.090  12.947  66.239  0.00  0.00    +0.002 A 
ATOM     28  C   UNL     1      -9.443  13.366  67.373  0.00  0.00    +0.011 A 
ATOM     29  C   UNL     1      -9.347  14.727  67.645  0.00  0.00    +0.060 A 
ATOM     30 CL   UNL     1      -9.105  15.166  69.333  0.00  0.00    -0.082 Cl
ENDBRANCH  20  23
ENDBRANCH   1  19
TORSDOF 4
ENDMDL
MODEL 2
REMARK VINA RESULT:      -6.8      4.690      8.095
REMARK  Name = 
REMARK  4 active torsions:
REMARK  status: ('A' for Active; 'I' for Inactive)
REMARK    1  A    between atoms: C_5  and  C_6
REMARK    2  A    between atoms: C_14  and  C_15
REMARK    3  A    between atoms: N_17  and  CA_18
REMARK    4  A    between atoms: CA_27  and  C_28
REMARK                            x       y       z     vdW  Elec       q    Type
REMARK                         _______ _______ _______ _____ _____    ______ ____
ROOT
ATOM      1  C   UNL     1     -11.558  14.411  67.194  0.00  0.00    +0.270 C 
ATOM      2  N   UNL     1     -10.987  13.113  67.179  0.00  0.00    -0.191 NA
ATOM      3  O   UNL     1     -12.409  14.608  66.279  0.00  0.00    -0.268 OA
ENDROOT
BRANCH   2   4
ATOM      4  CA  UNL     1     -10.172  12.917  65.809  0.00  0.00    +0.200 C 
ATOM      5  C   UNL     1      -9.281  11.540  66.278  0.00  0.00    +0.153 C 
ATOM      6  S   UNL     1      -9.203  11.711  68.182  0.00  0.00    -0.118 S 
ATOM      7  C   UNL     1     -10.253  10.382  68.563  0.00  0.00    +0.068 C 
ATOM      8  CA  UNL     1     -10.530   9.618  67.095  0.00  0.00    +0.189 C 
ATOM      9  C   UNL     1     -11.631  10.674  69.073  0.00  0.00    +0.013 C 
ATOM     10  C   UNL     1      -9.703   9.297  69.439  0.00  0.00    +0.013 C 
ATOM     11  N   UNL     1     -10.696  10.998  66.318  0.00  0.00    -0.259 N 
ATOM     12  C   UNL     1     -11.225  11.782  65.276  0.00  0.00    +0.249 C 
ATOM     13  O   UNL     1     -11.282  11.555  64.027  0.00  0.00    -0.273 OA
BRANCH   8  14
ATOM     14  C   UNL     1      -8.919   9.426  66.769  0.00  0.00    +0.383 C 
ATOM     15  OXT UNL     1      -8.371   8.369  67.510  0.00  0.00    -0.244 OA
ATOM     16  O   UNL     1      -8.904   9.155  65.523  0.00  0.00    -0.244 OA
ENDBRANCH   8  14
ENDBRANCH   2   4
BRANCH   1  19
ATOM     17  C   UNL     1     -12.415  14.167  70.115  0.00  0.00    +0.076 C 
ATOM     18  C   UNL     1     -11.853  15.324  69.551  0.00  0.00    +0.159 A 
ATOM     19  C   UNL     1     -11.387  15.389  68.246  0.00  0.00    +0.109 A 
ATOM     20  C   UNL     1     -10.505  16.440  68.230  0.00  0.00    +0.129 A 
ATOM     21  N   UNL     1     -10.811  17.171  69.330  0.00  0.00    -0.077 NA
ATOM     22  O   UNL     1     -11.646  16.516  70.089  0.00  0.00    -0.358 OA
BRANCH  20  23
ATOM     23  C   UNL     1      -9.452  16.773  67.263  0.00  0.00    +0.042 A 
ATOM     24  C   UNL     1      -8.197  16.175  67.336  0.00  0.00    +0.060 A 
ATOM     25 CL   UNL     1      -7.839  15.008  68.610  0.00  0.00    -0.082 Cl
ATOM     26  C   UNL     1      -7.141  16.711  66.608  0.00  0.00    +0.011 A 
ATOM     27  C   UNL     1      -7.140  18.063  66.283  0.00  0.00    +0.002 A 
ATOM     28  C   UNL     1      -8.371  18.657  66.167  0.00  0.00    +0.011 A 
ATOM     29  C   UNL     1      -9.470  18.085  66.800  0.00  0.00    +0.060 A 
ATOM     30 CL   UNL     1     -10.813  19.169  67.150  0.00  0.00    -0.082 Cl
ENDBRANCH  20  23
ENDBRANCH   1  19
TORSDOF 4
ENDMDL
MODEL 3
REMARK VINA RESULT:      -6.7      3.578      5.501
REMARK  Name = 
REMARK  4 active torsions:
REMARK  status: ('A' for Active; 'I' for Inactive)
REMARK    1  A    between atoms: C_5  and  C_6
REMARK    2  A    between atoms: C_14  and  C_15
REMARK    3  A    between atoms: N_17  and  CA_18
REMARK    4  A    between atoms: CA_27  and  C_28
REMARK                            x       y       z     vdW  Elec       q    Type
REMARK                         _______ _______ _______ _____ _____    ______ ____
ROOT
ATOM      1  C   UNL     1      -9.274  13.347  68.332  0.00  0.00    +0.270 C 
ATOM      2  N   UNL     1      -9.120  14.679  67.868  0.00  0.00    -0.191 NA
ATOM      3  O   UNL     1      -8.298  12.927  69.018  0.00  0.00    -0.268 OA
ENDROOT
BRANCH   2   4
ATOM      4  CA  UNL     1      -7.860  14.743  66.874  0.00  0.00    +0.200 C 
ATOM      5  C   UNL     1      -8.170  16.288  66.224  0.00  0.00    +0.153 C 
ATOM      6  S   UNL     1     -10.064  16.466  66.429  0.00  0.00    -0.118 S 
ATOM      7  C   UNL     1     -10.037  17.684  67.665  0.00  0.00    +0.068 C 
ATOM      8  CA  UNL     1      -8.425  18.134  67.790  0.00  0.00    +0.189 C 
ATOM      9  C   UNL     1     -10.404  17.300  69.066  0.00  0.00    +0.013 C 
ATOM     10  C   UNL     1     -10.753  18.970  67.383  0.00  0.00    +0.013 C 
ATOM     11  N   UNL     1      -7.914  16.630  67.679  0.00  0.00    -0.259 N 
ATOM     12  C   UNL     1      -6.982  15.612  67.948  0.00  0.00    +0.249 C 
ATOM     13  O   UNL     1      -5.716  15.607  67.831  0.00  0.00    -0.273 OA
BRANCH   8  14
ATOM     14  C   UNL     1      -8.288  18.486  66.178  0.00  0.00    +0.383 C 
ATOM     15  OXT UNL     1      -8.902  19.708  65.868  0.00  0.00    -0.244 OA
ATOM     16  O   UNL     1      -7.027  18.560  66.002  0.00  0.00    -0.244 OA
ENDBRANCH   8  14
ENDBRANCH   2   4
BRANCH   1  19
ATOM     17  C   UNL     1     -11.790  13.630  70.039  0.00  0.00    +0.076 C 
ATOM     18  C   UNL     1     -11.599  12.627  69.075  0.00  0.00    +0.159 A 
ATOM     19  C   UNL     1     -10.488  12.566  68.246  0.00  0.00    +0.109 A 
ATOM     20  C   UNL     1     -10.881  11.807  67.173  0.00  0.00    +0.129 A 
ATOM     21  N   UNL     1     -11.976  11.134  67.602  0.00  0.00    -0.077 NA
ATOM     22  O   UNL     1     -12.370  11.600  68.754  0.00  0.00    -0.358 OA
BRANCH  20  23
ATOM     23  C   UNL     1     -10.288  11.689  65.835  0.00  0.00    +0.042 A 
ATOM     24  C   UNL     1     -10.838  12.358  64.745  0.00  0.00    +0.060 A 
ATOM     25 CL   UNL     1     -12.277  13.359  64.947  0.00  0.00    -0.082 Cl
ATOM     26  C   UNL     1     -10.448  12.006  63.458  0.00  0.00    +0.011 A 
ATOM     27  C   UNL     1      -9.997  10.715  63.200  0.00  0.00    +0.002 A 
ATOM     28  C   UNL     1      -9.415  10.058  64.255  0.00  0.00    +0.011 A 
ATOM     29  C   UNL     1      -9.706  10.456  65.555  0.00  0.00    +0.060 A 
ATOM     30 CL   UNL     1      -9.471   9.241  66.808  0.00  0.00    -0.082 Cl
ENDBRANCH  20  23
ENDBRANCH   1  19
TORSDOF 4
ENDMDL
MODEL 4
REMARK VINA RESULT:      -6.7      4.534      8.384
REMARK  Name = 
REMARK  4 active torsions:
REMARK  status: ('A' for Active; 'I' for Inactive)
REMARK    1  A    between atoms: C_5  and  C_6
REMARK    2  A    between atoms: C_14  and  C_15
REMARK    3  A    between atoms: N_17  and  CA_18
REMARK    4  A    between atoms: CA_27  and  C_28
REMARK                            x       y       z     vdW  Elec       q    Type
REMARK                         _______ _______ _______ _____ _____    ______ ____
ROOT
ATOM      1  C   UNL     1     -10.910  14.336  67.819  0.00  0.00    +0.270 C 
ATOM      2  N   UNL     1     -10.448  13.002  67.952  0.00  0.00    -0.191 NA
ATOM      3  O   UNL     1     -11.371  14.829  68.889  0.00  0.00    -0.268 OA
ENDROOT
BRANCH   2   4
ATOM      4  CA  UNL     1     -11.687  12.057  68.340  0.00  0.00    +0.200 C 
ATOM      5  C   UNL     1     -11.223  10.697  67.421  0.00  0.00    +0.153 C 
ATOM      6  S   UNL     1     -10.167  11.466  66.024  0.00  0.00    -0.118 S 
ATOM      7  C   UNL     1      -8.631  10.849  66.547  0.00  0.00    +0.068 C 
ATOM      8  CA  UNL     1      -8.996   9.793  67.799  0.00  0.00    +0.189 C 
ATOM      9  C   UNL     1      -7.644  11.793  67.161  0.00  0.00    +0.013 C 
ATOM     10  C   UNL     1      -7.859  10.007  65.576  0.00  0.00    +0.013 C 
ATOM     11  N   UNL     1     -10.084  10.777  68.418  0.00  0.00    -0.259 N 
ATOM     12  C   UNL     1     -10.820  11.294  69.500  0.00  0.00    +0.249 C 
ATOM     13  O   UNL     1     -11.452  10.693  70.424  0.00  0.00    -0.273 OA
BRANCH   8  14
ATOM     14  C   UNL     1     -10.057   8.909  66.887  0.00  0.00    +0.383 C 
ATOM     15  OXT UNL     1      -9.383   8.069  65.990  0.00  0.00    -0.244 OA
ATOM     16  O   UNL     1     -10.687   8.220  67.758  0.00  0.00    -0.244 OA
ENDBRANCH   8  14
ENDBRANCH   2   4
BRANCH   1  19
ATOM     17  C   UNL     1     -12.552  14.379  65.244  0.00  0.00    +0.076 C 
ATOM     18  C   UNL     1     -11.392  15.144  65.454  0.00  0.00    +0.159 A 
ATOM     19  C   UNL     1     -10.710  15.180  66.661  0.00  0.00    +0.109 A 
ATOM     20  C   UNL     1      -9.991  16.348  66.634  0.00  0.00    +0.129 A 
ATOM     21  N   UNL     1      -9.937  16.696  65.325  0.00  0.00    -0.077 NA
ATOM     22  O   UNL     1     -10.743  15.945  64.625  0.00  0.00    -0.358 OA
BRANCH  20  23
ATOM     23  C   UNL     1      -9.374  17.102  67.733  0.00  0.00    +0.042 A 
ATOM     24  C   UNL     1      -9.734  18.422  67.987  0.00  0.00    +0.060 A 
ATOM     25 CL   UNL     1     -10.937  19.228  66.978  0.00  0.00    -0.082 Cl
ATOM     26  C   UNL     1      -8.943  19.197  68.827  0.00  0.00    +0.011 A 
ATOM     27  C   UNL     1      -7.588  18.912  68.958  0.00  0.00    +0.002 A 
ATOM     28  C   UNL     1      -7.223  17.606  68.750  0.00  0.00    +0.011 A 
ATOM     29  C   UNL     1      -8.048  16.775  68.000  0.00  0.00    +0.060 A 
ATOM     30 CL   UNL     1      -7.272  15.384  67.250  0.00  0.00    -0.082 Cl
ENDBRANCH  20  23
ENDBRANCH   1  19
TORSDOF 4
ENDMDL
MODEL 5
REMARK VINA RESULT:      -6.5      2.959      4.407
REMARK  Name = 
REMARK  4 active torsions:
REMARK  status: ('A' for Active; 'I' for Inactive)
REMARK    1  A    between atoms: C_5  and  C_6
REMARK    2  A    between atoms: C_14  and  C_15
REMARK    3  A    between atoms: N_17  and  CA_18
REMARK    4  A    between atoms: CA_27  and  C_28
REMARK                            x       y       z     vdW  Elec       q    Type
REMARK                         _______ _______ _______ _____ _____    ______ ____
ROOT
ATOM      1  C   UNL     1     -10.074  14.911  66.730  0.00  0.00    +0.270 C 
ATOM      2  N   UNL     1      -8.788  15.408  67.063  0.00  0.00    -0.191 NA
ATOM      3  O   UNL     1     -10.428  15.156  65.541  0.00  0.00    -0.268 OA
ENDROOT
BRANCH   2   4
ATOM      4  CA  UNL     1      -8.808  17.011  66.962  0.00  0.00    +0.200 C 
ATOM      5  C   UNL     1      -7.737  17.326  68.251  0.00  0.00    +0.153 C 
ATOM      6  S   UNL     1      -7.946  15.785  69.366  0.00  0.00    -0.118 S 
ATOM      7  C   UNL     1      -6.384  15.088  69.070  0.00  0.00    +0.068 C 
ATOM      8  CA  UNL     1      -5.555  16.250  68.187  0.00  0.00    +0.189 C 
ATOM      9  C   UNL     1      -6.290  13.863  68.213  0.00  0.00    +0.013 C 
ATOM     10  C   UNL     1      -5.504  14.837  70.257  0.00  0.00    +0.013 C 
ATOM     11  N   UNL     1      -6.826  16.589  67.290  0.00  0.00    -0.259 N 
ATOM     12  C   UNL     1      -7.420  17.032  66.094  0.00  0.00    +0.249 C 
ATOM     13  O   UNL     1      -7.171  18.058  65.385  0.00  0.00    -0.273 OA
BRANCH   8  14
ATOM     14  C   UNL     1      -5.811  17.439  69.310  0.00  0.00    +0.383 C 
ATOM     15  OXT UNL     1      -4.960  17.290  70.415  0.00  0.00    -0.244 OA
ATOM     16  O   UNL     1      -5.533  18.508  68.672  0.00  0.00    -0.244 OA
ENDBRANCH   8  14
ENDBRANCH   2   4
BRANCH   1  19
ATOM     17  C   UNL     1     -11.823  15.650  69.122  0.00  0.00    +0.076 C 
ATOM     18  C   UNL     1     -11.589  14.334  68.692  0.00  0.00    +0.159 A 
ATOM     19  C   UNL     1     -10.866  14.021  67.551  0.00  0.00    +0.109 A 
ATOM     20  C   UNL     1     -11.268  12.755  67.205  0.00  0.00    +0.129 A 
ATOM     21  N   UNL     1     -11.831  12.248  68.329  0.00  0.00    -0.077 NA
ATOM     22  O   UNL     1     -11.979  13.186  69.223  0.00  0.00    -0.358 OA
BRANCH  20  23
ATOM     23  C   UNL     1     -11.137  12.039  65.930  0.00  0.00    +0.042 A 
ATOM     24  C   UNL     1      -9.919  11.493  65.537  0.00  0.00    +0.060 A 
ATOM     25 CL   UNL     1      -8.492  11.664  66.562  0.00  0.00    -0.082 Cl
ATOM     26  C   UNL     1      -9.746  11.085  64.219  0.00  0.00    +0.011 A 
ATOM     27  C   UNL     1     -10.486  11.685  63.206  0.00  0.00    +0.002 A 
ATOM     28  C   UNL     1     -11.708  12.192  63.571  0.00  0.00    +0.011 A 
ATOM     29  C   UNL     1     -11.947  12.513  64.902  0.00  0.00    +0.060 A 
ATOM     30 CL   UNL     1     -13.213  13.700  65.198  0.00  0.00    -0.082 Cl
ENDBRANCH  20  23
ENDBRANCH   1  19
TORSDOF 4
ENDMDL
MODEL 6
REMARK VINA RESULT:      -6.5      3.273      7.426
REMARK  Name = 
REMARK  4 active torsions:
REMARK  status: ('A' for Active; 'I' for Inactive)
REMARK    1  A    between atoms: C_5  and  C_6
REMARK    2  A    between atoms: C_14  and  C_15
REMARK    3  A    between atoms: N_17  and  CA_18
REMARK    4  A    between atoms: CA_27  and  C_28
REMARK                            x       y       z     vdW  Elec       q    Type
REMARK                         _______ _______ _______ _____ _____    ______ ____
ROOT
ATOM      1  C   UNL     1      -9.734  17.109  68.261  0.00  0.00    +0.270 C 
ATOM      2  N   UNL     1      -9.952  15.710  68.185  0.00  0.00    -0.191 NA
ATOM      3  O   UNL     1     -10.245  17.654  69.281  0.00  0.00    -0.268 OA
ENDROOT
BRANCH   2   4
ATOM      4  CA  UNL     1     -11.529  15.435  68.052  0.00  0.00    +0.200 C 
ATOM      5  C   UNL     1     -11.423  13.912  67.292  0.00  0.00    +0.153 C 
ATOM      6  S   UNL     1      -9.728  13.992  66.409  0.00  0.00    -0.118 S 
ATOM      7  C   UNL     1      -8.904  12.843  67.416  0.00  0.00    +0.068 C 
ATOM      8  CA  UNL     1     -10.100  12.194  68.397  0.00  0.00    +0.189 C 
ATOM      9  C   UNL     1      -7.881  13.340  68.391  0.00  0.00    +0.013 C 
ATOM     10  C   UNL     1      -8.297  11.648  66.745  0.00  0.00    +0.013 C 
ATOM     11  N   UNL     1     -10.786  13.612  68.633  0.00  0.00    -0.259 N 
ATOM     12  C   UNL     1     -11.542  14.513  69.405  0.00  0.00    +0.249 C 
ATOM     13  O   UNL     1     -12.649  14.348  70.008  0.00  0.00    -0.273 OA
BRANCH   8  14
ATOM     14  C   UNL     1     -11.055  11.749  67.120  0.00  0.00    +0.383 C 
ATOM     15  OXT UNL     1     -10.535  10.626  66.460  0.00  0.00    -0.244 OA
ATOM     16  O   UNL     1     -12.170  11.467  67.673  0.00  0.00    -0.244 OA
ENDBRANCH   8  14
ENDBRANCH   2   4
BRANCH   1  19
ATOM     17  C   UNL     1     -10.500  19.196  66.167  0.00  0.00    +0.076 C 
ATOM     18  C   UNL     1      -9.189  18.747  66.391  0.00  0.00    +0.159 A 
ATOM     19  C   UNL     1      -8.846  17.866  67.405  0.00  0.00    +0.109 A 
ATOM     20  C   UNL     1      -7.503  18.059  67.612  0.00  0.00    +0.129 A 
ATOM     21  N   UNL     1      -7.061  18.674  66.488  0.00  0.00    -0.077 NA
ATOM     22  O   UNL     1      -8.070  19.042  65.748  0.00  0.00    -0.358 OA
BRANCH  20  23
ATOM     23  C   UNL     1      -6.664  17.694  68.760  0.00  0.00    +0.042 A 
ATOM     24  C   UNL     1      -6.154  18.667  69.613  0.00  0.00    +0.060 A 
ATOM     25 CL   UNL     1      -6.495  20.375  69.324  0.00  0.00    -0.082 Cl
ATOM     26  C   UNL     1      -5.139  18.334  70.503  0.00  0.00    +0.011 A 
ATOM     27  C   UNL     1      -4.270  17.289  70.202  0.00  0.00    +0.002 A 
ATOM     28  C   UNL     1      -4.773  16.301  69.395  0.00  0.00    +0.011 A 
ATOM     29  C   UNL     1      -5.857  16.576  68.568  0.00  0.00    +0.060 A 
ATOM     30 CL   UNL     1      -6.038  15.539  67.156  0.00  0.00    -0.082 Cl
ENDBRANCH  20  23
ENDBRANCH   1  19
TORSDOF 4
ENDMDL
MODEL 7
REMARK VINA RESULT:      -6.4      6.808      9.518
REMARK  Name = 
REMARK  4 active torsions:
REMARK  status: ('A' for Active; 'I' for Inactive)
REMARK    1  A    between atoms: C_5  and  C_6
REMARK    2  A    between atoms: C_14  and  C_15
REMARK    3  A    between atoms: N_17  and  CA_18
REMARK    4  A    between atoms: CA_27  and  C_28
REMARK                            x       y       z     vdW  Elec       q    Type
REMARK                         _______ _______ _______ _____ _____    ______ ____
ROOT
ATOM      1  C   UNL     1      -8.044  10.088  67.250  0.00  0.00    +0.270 C 
ATOM      2  N   UNL     1      -9.008  10.932  66.642  0.00  0.00    -0.191 NA
ATOM      3  O   UNL     1      -7.293   9.489  66.427  0.00  0.00    -0.268 OA
ENDROOT
BRANCH   2   4
ATOM      4  CA  UNL     1     -10.002  10.034  65.756  0.00  0.00    +0.200 C 
ATOM      5  C   UNL     1     -11.304  11.134  65.703  0.00  0.00    +0.153 C 
ATOM      6  S   UNL     1     -11.061  12.161  67.299  0.00  0.00    -0.118 S 
ATOM      7  C   UNL     1     -10.597  13.648  66.533  0.00  0.00    +0.068 C 
ATOM      8  CA  UNL     1     -10.843  13.383  64.895  0.00  0.00    +0.189 C 
ATOM      9  C   UNL     1      -9.165  14.082  66.607  0.00  0.00    +0.013 C 
ATOM     10  C   UNL     1     -11.420  14.864  66.832  0.00  0.00    +0.013 C 
ATOM     11  N   UNL     1     -10.237  11.912  64.961  0.00  0.00    -0.259 N 
ATOM     12  C   UNL     1      -9.575  10.814  64.381  0.00  0.00    +0.249 C 
ATOM     13  O   UNL     1      -9.777  10.227  63.271  0.00  0.00    -0.273 OA
BRANCH   8  14
ATOM     14  C   UNL     1     -12.423  12.930  65.097  0.00  0.00    +0.383 C 
ATOM     15  OXT UNL     1     -13.249  14.042  65.313  0.00  0.00    -0.244 OA
ATOM     16  O   UNL     1     -12.709  12.367  63.988  0.00  0.00    -0.244 OA
ENDBRANCH   8  14
ENDBRANCH   2   4
BRANCH   1  19
ATOM     17  C   UNL     1      -6.829  12.288  68.985  0.00  0.00    +0.076 C 
ATOM     18  C   UNL     1      -7.119  10.993  69.442  0.00  0.00    +0.159 A 
ATOM     19  C   UNL     1      -7.754  10.033  68.666  0.00  0.00    +0.109 A 
ATOM     20  C   UNL     1      -8.287   9.141  69.562  0.00  0.00    +0.129 A 
ATOM     21  N   UNL     1      -7.610   9.356  70.716  0.00  0.00    -0.077 NA
ATOM     22  O   UNL     1      -6.885  10.436  70.620  0.00  0.00    -0.358 OA
BRANCH  20  23
ATOM     23  C   UNL     1      -9.345   8.139  69.378  0.00  0.00    +0.042 A 
ATOM     24  C   UNL     1     -10.552   8.236  70.063  0.00  0.00    +0.060 A 
ATOM     25 CL   UNL     1     -10.834   9.568  71.187  0.00  0.00    -0.082 Cl
ATOM     26  C   UNL     1     -11.407   7.141  70.101  0.00  0.00    +0.011 A 
ATOM     27  C   UNL     1     -10.891   5.855  69.982  0.00  0.00    +0.002 A 
ATOM     28  C   UNL     1      -9.722   5.738  69.273  0.00  0.00    +0.011 A 
ATOM     29  C   UNL     1      -8.894   6.845  69.129  0.00  0.00    +0.060 A 
ATOM     30 CL   UNL     1      -7.197   6.508  68.800  0.00  0.00    -0.082 Cl
ENDBRANCH  20  23
ENDBRANCH   1  19
TORSDOF 4
ENDMDL
MODEL 8
REMARK VINA RESULT:      -6.4      2.722      3.735
REMARK  Name = 
REMARK  4 active torsions:
REMARK  status: ('A' for Active; 'I' for Inactive)
REMARK    1  A    between atoms: C_5  and  C_6
REMARK    2  A    between atoms: C_14  and  C_15
REMARK    3  A    between atoms: N_17  and  CA_18
REMARK    4  A    between atoms: CA_27  and  C_28
REMARK                            x       y       z     vdW  Elec       q    Type
REMARK                         _______ _______ _______ _____ _____    ______ ____
ROOT
ATOM      1  C   UNL     1      -9.712  15.555  66.406  0.00  0.00    +0.270 C 
ATOM      2  N   UNL     1      -8.471  16.178  66.696  0.00  0.00    -0.191 NA
ATOM      3  O   UNL     1     -10.159  15.815  65.252  0.00  0.00    -0.268 OA
ENDROOT
BRANCH   2   4
ATOM      4  CA  UNL     1      -8.673  17.772  66.682  0.00  0.00    +0.200 C 
ATOM      5  C   UNL     1      -7.676  18.132  68.018  0.00  0.00    +0.153 C 
ATOM      6  S   UNL     1      -7.732  16.516  69.041  0.00  0.00    -0.118 S 
ATOM      7  C   UNL     1      -6.094  16.019  68.754  0.00  0.00    +0.068 C 
ATOM      8  CA  UNL     1      -5.383  17.316  67.961  0.00  0.00    +0.189 C 
ATOM      9  C   UNL     1      -5.839  14.863  67.835  0.00  0.00    +0.013 C 
ATOM     10  C   UNL     1      -5.219  15.802  69.951  0.00  0.00    +0.013 C 
ATOM     11  N   UNL     1      -6.663  17.560  67.046  0.00  0.00    -0.259 N 
ATOM     12  C   UNL     1      -7.276  18.000  65.858  0.00  0.00    +0.249 C 
ATOM     13  O   UNL     1      -7.131  19.087  65.214  0.00  0.00    -0.273 OA
BRANCH   8  14
ATOM     14  C   UNL     1      -5.801  18.402  69.139  0.00  0.00    +0.383 C 
ATOM     15  OXT UNL     1      -4.956  18.296  70.253  0.00  0.00    -0.244 OA
ATOM     16  O   UNL     1      -5.645  19.530  68.564  0.00  0.00    -0.244 OA
ENDBRANCH   8  14
ENDBRANCH   2   4
BRANCH   1  19
ATOM     17  C   UNL     1     -11.705  15.984  68.680  0.00  0.00    +0.076 C 
ATOM     18  C   UNL     1     -11.186  14.732  68.311  0.00  0.00    +0.159 A 
ATOM     19  C   UNL     1     -10.351  14.544  67.219  0.00  0.00    +0.109 A 
ATOM     20  C   UNL     1     -10.468  13.214  66.902  0.00  0.00    +0.129 A 
ATOM     21  N   UNL     1     -10.978  12.632  68.014  0.00  0.00    -0.077 NA
ATOM     22  O   UNL     1     -11.364  13.543  68.864  0.00  0.00    -0.358 OA
BRANCH  20  23
ATOM     23  C   UNL     1     -10.123  12.506  65.662  0.00  0.00    +0.042 A 
ATOM     24  C   UNL     1     -11.086  12.253  64.689  0.00  0.00    +0.060 A 
ATOM     25 CL   UNL     1     -12.756  12.768  64.934  0.00  0.00    -0.082 Cl
ATOM     26  C   UNL     1     -10.812  11.342  63.677  0.00  0.00    +0.011 A 
ATOM     27  C   UNL     1      -9.904  10.311  63.900  0.00  0.00    +0.002 A 
ATOM     28  C   UNL     1      -8.924  10.562  64.827  0.00  0.00    +0.011 A 
ATOM     29  C   UNL     1      -9.127  11.543  65.791  0.00  0.00    +0.060 A 
ATOM     30 CL   UNL     1      -8.181  11.386  67.268  0.00  0.00    -0.082 Cl
ENDBRANCH  20  23
ENDBRANCH   1  19
TORSDOF 4
ENDMDL
MODEL 9
REMARK VINA RESULT:      -6.3      3.996      6.422
REMARK  Name = 
REMARK  4 active torsions:
REMARK  status: ('A' for Active; 'I' for Inactive)
REMARK    1  A    between atoms: C_5  and  C_6
REMARK    2  A    between atoms: C_14  and  C_15
REMARK    3  A    between atoms: N_17  and  CA_18
REMARK    4  A    between atoms: CA_27  and  C_28
REMARK                            x       y       z     vdW  Elec       q    Type
REMARK                         _______ _______ _______ _____ _____    ______ ____
ROOT
ATOM      1  C   UNL     1     -10.293  12.912  66.479  0.00  0.00    +0.270 C 
ATOM      2  N   UNL     1      -9.937  14.283  66.555  0.00  0.00    -0.191 NA
ATOM      3  O   UNL     1     -10.750  12.562  65.353  0.00  0.00    -0.268 OA
ENDROOT
BRANCH   2   4
ATOM      4  CA  UNL     1     -11.256  15.176  66.350  0.00  0.00    +0.200 C 
ATOM      5  C   UNL     1     -10.779  16.498  67.315  0.00  0.00    +0.153 C 
ATOM      6  S   UNL     1      -9.554  15.704  68.552  0.00  0.00    -0.118 S 
ATOM      7  C   UNL     1      -8.110  16.444  67.935  0.00  0.00    +0.068 C 
ATOM      8  CA  UNL     1      -8.648  17.555  66.798  0.00  0.00    +0.189 C 
ATOM      9  C   UNL     1      -7.137  15.601  67.169  0.00  0.00    +0.013 C 
ATOM     10  C   UNL     1      -7.294  17.264  68.887  0.00  0.00    +0.013 C 
ATOM     11  N   UNL     1      -9.737  16.551  66.215  0.00  0.00    -0.259 N 
ATOM     12  C   UNL     1     -10.545  16.062  65.171  0.00  0.00    +0.249 C 
ATOM     13  O   UNL     1     -11.293  16.684  64.353  0.00  0.00    -0.273 OA
BRANCH   8  14
ATOM     14  C   UNL     1      -9.663  18.314  67.864  0.00  0.00    +0.383 C 
ATOM     15  OXT UNL     1      -8.957  19.174  68.717  0.00  0.00    -0.244 OA
ATOM     16  O   UNL     1     -10.442  18.978  67.103  0.00  0.00    -0.244 OA
ENDBRANCH   8  14
ENDBRANCH   2   4
BRANCH   1  19
ATOM     17  C   UNL     1     -11.778  12.400  69.098  0.00  0.00    +0.076 C 
ATOM     18  C   UNL     1     -10.604  11.732  68.712  0.00  0.00    +0.159 A 
ATOM     19  C   UNL     1      -9.992  11.912  67.480  0.00  0.00    +0.109 A 
ATOM     20  C   UNL     1      -9.229  10.789  67.289  0.00  0.00    +0.129 A 
ATOM     21  N   UNL     1      -9.085  10.249  68.524  0.00  0.00    -0.077 NA
ATOM     22  O   UNL     1      -9.876  10.845  69.372  0.00  0.00    -0.358 OA
BRANCH  20  23
ATOM     23  C   UNL     1      -8.648  10.241  66.056  0.00  0.00    +0.042 A 
ATOM     24  C   UNL     1      -9.055   9.006  65.560  0.00  0.00    +0.060 A 
ATOM     25 CL   UNL     1     -10.275   8.059  66.415  0.00  0.00    -0.082 Cl
ATOM     26  C   UNL     1      -8.299   8.382  64.575  0.00  0.00    +0.011 A 
ATOM     27  C   UNL     1      -6.936   8.644  64.479  0.00  0.00    +0.002 A 
ATOM     28  C   UNL     1      -6.526   9.875  64.927  0.00  0.00    +0.011 A 
ATOM     29  C   UNL     1      -7.314  10.571  65.836  0.00  0.00    +0.060 A 
ATOM     30 CL   UNL     1      -6.484  11.768  66.825  0.00  0.00    -0.082 Cl
ENDBRANCH  20  23
ENDBRANCH   1  19
TORSDOF 4
ENDMDL
