MODEL 1
REMARK VINA RESULT:      -7.9      0.000      0.000
REMARK  Name = 
REMARK  8 active torsions:
REMARK  status: ('A' for Active; 'I' for Inactive)
REMARK    1  A    between atoms: N_4  and  C_5
REMARK    2  A    between atoms: C_5  and  C_6
REMARK    3  A    between atoms: C_6  and  C_7
REMARK    4  A    between atoms: C_6  and  C_14
REMARK    5  A    between atoms: C_7  and  C_8
REMARK    6  A    between atoms: N_16  and  C_17
REMARK    7  A    between atoms: C_17  and  C_18
REMARK    8  A    between atoms: C_23  and  C_25
REMARK                            x       y       z     vdW  Elec       q    Type
REMARK                         _______ _______ _______ _____ _____    ______ ____
ROOT
ATOM      1  C   UNL     1      -9.942  15.330  68.302  0.00  0.00    +0.082 C 
ENDROOT
BRANCH   1   8
ATOM      2  C   UNL     1      -7.178  17.423  66.035  0.00  0.00    +0.002 C 
ATOM      3  C   UNL     1      -8.647  17.255  66.732  0.00  0.00    +0.020 C 
ATOM      4  C   UNL     1      -8.673  18.790  67.288  0.00  0.00    +0.022 C 
ATOM      5  C   UNL     1      -8.931  19.665  66.075  0.00  0.00    +0.004 C 
ATOM      6  C   UNL     1      -9.845  18.796  68.203  0.00  0.00    +0.021 C 
ATOM      7  C   UNL     1     -10.030  17.624  69.074  0.00  0.00    +0.072 C 
ATOM      8  N   UNL     1      -9.280  16.464  68.835  0.00  0.00    -0.272 NA
ATOM      9  C   UNL     1      -8.019  16.672  68.128  0.00  0.00    +0.072 C 
BRANCH   4  10
ATOM     10  C   UNL     1      -7.377  19.052  67.925  0.00  0.00    -0.020 A 
ATOM     11  C   UNL     1      -6.375  19.730  67.238  0.00  0.00    +0.038 A 
ATOM     12  C   UNL     1      -5.211  20.096  67.882  0.00  0.00    +0.195 A 
ATOM     13  O   UNL     1      -4.196  20.586  67.059  0.00  0.00    -0.287 OA
ATOM     14  C   UNL     1      -5.351  20.489  69.203  0.00  0.00    +0.042 A 
ATOM     15  C   UNL     1      -6.482  20.110  69.914  0.00  0.00    +0.003 A 
ATOM     16  C   UNL     1      -7.451  19.390  69.273  0.00  0.00    -0.004 A 
ENDBRANCH   4  10
ENDBRANCH   1   8
BRANCH   1  17
ATOM     17  C   UNL     1     -11.542  15.468  68.627  0.00  0.00    +0.098 C 
BRANCH  17  18
ATOM     18  C   UNL     1     -11.943  14.492  67.408  0.00  0.00    +0.243 C 
ATOM     19  N   UNL     1     -11.203  14.680  66.194  0.00  0.00    -0.193 NA
ATOM     20  O   UNL     1     -11.843  13.286  67.801  0.00  0.00    -0.273 OA
BRANCH  19  21
ATOM     21  C   UNL     1     -11.051  13.571  65.263  0.00  0.00    +0.228 C 
BRANCH  21  22
ATOM     22  C   UNL     1     -12.210  13.490  64.349  0.00  0.00    +0.387 C 
ATOM     23  O   UNL     1     -13.155  12.504  64.652  0.00  0.00    -0.244 OA
ATOM     24  O   UNL     1     -12.602  14.602  63.882  0.00  0.00    -0.244 OA
ENDBRANCH  21  22
ENDBRANCH  19  21
ENDBRANCH  17  18
BRANCH  17  25
ATOM     25  C   UNL     1     -11.477  14.253  69.727  0.00  0.00    +0.037 C 
BRANCH  25  26
ATOM     26  C   UNL     1     -12.128  14.764  70.942  0.00  0.00    -0.022 A 
ATOM     27  C   UNL     1     -11.670  15.847  71.685  0.00  0.00    -0.004 A 
ATOM     28  C   UNL     1     -12.214  15.903  72.965  0.00  0.00    -0.000 A 
ATOM     29  C   UNL     1     -13.603  15.859  73.020  0.00  0.00    -0.000 A 
ATOM     30  C   UNL     1     -14.258  15.163  72.013  0.00  0.00    -0.000 A 
ATOM     31  C   UNL     1     -13.499  14.553  71.022  0.00  0.00    -0.004 A 
ENDBRANCH  25  26
ENDBRANCH  17  25
ENDBRANCH   1  17
TORSDOF 8
ENDMDL
MODEL 2
REMARK VINA RESULT:      -7.5      1.614      2.322
REMARK  Name = 
REMARK  8 active torsions:
REMARK  status: ('A' for Active; 'I' for Inactive)
REMARK    1  A    between atoms: N_4  and  C_5
REMARK    2  A    between atoms: C_5  and  C_6
REMARK    3  A    between atoms: C_6  and  C_7
REMARK    4  A    between atoms: C_6  and  C_14
REMARK    5  A    between atoms: C_7  and  C_8
REMARK    6  A    between atoms: N_16  and  C_17
REMARK    7  A    between atoms: C_17  and  C_18
REMARK    8  A    between atoms: C_23  and  C_25
REMARK                            x       y       z     vdW  Elec       q    Type
REMARK                         _______ _______ _______ _____ _____    ______ ____
ROOT
ATOM      1  C   UNL     1     -10.170  14.531  67.842  0.00  0.00    +0.082 C 
ENDROOT
BRANCH   1   8
ATOM      2  C   UNL     1      -6.672  15.074  69.993  0.00  0.00    +0.002 C 
ATOM      3  C   UNL     1      -7.504  14.949  68.591  0.00  0.00    +0.020 C 
ATOM      4  C   UNL     1      -6.743  16.221  67.906  0.00  0.00    +0.022 C 
ATOM      5  C   UNL     1      -5.348  15.732  67.560  0.00  0.00    +0.004 C 
ATOM      6  C   UNL     1      -7.538  16.465  66.674  0.00  0.00    +0.021 C 
ATOM      7  C   UNL     1      -9.003  16.370  66.784  0.00  0.00    +0.072 C 
ATOM      8  N   UNL     1      -9.571  15.812  67.937  0.00  0.00    -0.272 NA
ATOM      9  C   UNL     1      -8.740  15.876  69.135  0.00  0.00    +0.072 C 
BRANCH   4  10
ATOM     10  C   UNL     1      -6.745  17.317  68.882  0.00  0.00    -0.020 A 
ATOM     11  C   UNL     1      -5.652  17.524  69.717  0.00  0.00    +0.038 A 
ATOM     12  C   UNL     1      -5.597  18.632  70.536  0.00  0.00    +0.195 A 
ATOM     13  O   UNL     1      -4.563  18.639  71.473  0.00  0.00    -0.287 OA
ATOM     14  C   UNL     1      -6.129  19.798  70.008  0.00  0.00    +0.042 A 
ATOM     15  C   UNL     1      -7.025  19.724  68.950  0.00  0.00    +0.003 A 
ATOM     16  C   UNL     1      -7.327  18.497  68.428  0.00  0.00    -0.004 A 
ENDBRANCH   4  10
ENDBRANCH   1   8
BRANCH   1  17
ATOM     17  C   UNL     1     -11.760  14.677  68.209  0.00  0.00    +0.098 C 
BRANCH  17  18
ATOM     18  C   UNL     1     -12.191  13.628  67.065  0.00  0.00    +0.243 C 
ATOM     19  N   UNL     1     -11.553  13.800  65.793  0.00  0.00    -0.193 NA
ATOM     20  O   UNL     1     -11.993  12.447  67.498  0.00  0.00    -0.273 OA
BRANCH  19  21
ATOM     21  C   UNL     1     -11.405  12.662  64.898  0.00  0.00    +0.228 C 
BRANCH  21  22
ATOM     22  C   UNL     1     -12.157  12.877  63.644  0.00  0.00    +0.387 C 
ATOM     23  O   UNL     1     -12.948  11.805  63.217  0.00  0.00    -0.244 OA
ATOM     24  O   UNL     1     -12.572  14.063  63.466  0.00  0.00    -0.244 OA
ENDBRANCH  21  22
ENDBRANCH  19  21
ENDBRANCH  17  18
BRANCH  17  25
ATOM     25  C   UNL     1     -11.649  13.530  69.377  0.00  0.00    +0.037 C 
BRANCH  25  26
ATOM     26  C   UNL     1     -12.057  14.181  70.631  0.00  0.00    -0.022 A 
ATOM     27  C   UNL     1     -12.125  15.558  70.818  0.00  0.00    -0.004 A 
ATOM     28  C   UNL     1     -12.162  15.928  72.159  0.00  0.00    -0.000 A 
ATOM     29  C   UNL     1     -13.152  15.309  72.916  0.00  0.00    -0.000 A 
ATOM     30  C   UNL     1     -13.541  14.033  72.533  0.00  0.00    -0.000 A 
ATOM     31  C   UNL     1     -12.926  13.450  71.431  0.00  0.00    -0.004 A 
ENDBRANCH  25  26
ENDBRANCH  17  25
ENDBRANCH   1  17
TORSDOF 8
ENDMDL
MODEL 3
REMARK VINA RESULT:      -7.3      2.200      5.129
REMARK  Name = 
REMARK  8 active torsions:
REMARK  status: ('A' for Active; 'I' for Inactive)
REMARK    1  A    between atoms: N_4  and  C_5
REMARK    2  A    between atoms: C_5  and  C_6
REMARK    3  A    between atoms: C_6  and  C_7
REMARK    4  A    between atoms: C_6  and  C_14
REMARK    5  A    between atoms: C_7  and  C_8
REMARK    6  A    between atoms: N_16  and  C_17
REMARK    7  A    between atoms: C_17  and  C_18
REMARK    8  A    between atoms: C_23  and  C_25
REMARK                            x       y       z     vdW  Elec       q    Type
REMARK                         _______ _______ _______ _____ _____    ______ ____
ROOT
ATOM      1  C   UNL     1     -10.979  15.711  67.635  0.00  0.00    +0.082 C 
ENDROOT
BRANCH   1   8
ATOM      2  C   UNL     1      -9.722  19.460  66.402  0.00  0.00    +0.002 C 
ATOM      3  C   UNL     1      -9.795  18.245  67.493  0.00  0.00    +0.020 C 
ATOM      4  C   UNL     1      -8.203  18.329  67.847  0.00  0.00    +0.022 C 
ATOM      5  C   UNL     1      -8.031  19.580  68.689  0.00  0.00    +0.004 C 
ATOM      6  C   UNL     1      -7.975  17.108  68.663  0.00  0.00    +0.021 C 
ATOM      7  C   UNL     1      -8.636  15.867  68.224  0.00  0.00    +0.072 C 
ATOM      8  N   UNL     1      -9.635  15.931  67.244  0.00  0.00    -0.272 NA
ATOM      9  C   UNL     1      -9.566  17.088  66.357  0.00  0.00    +0.072 C 
BRANCH   4  10
ATOM     10  C   UNL     1      -7.469  18.382  66.577  0.00  0.00    -0.020 A 
ATOM     11  C   UNL     1      -7.213  19.601  65.957  0.00  0.00    +0.038 A 
ATOM     12  C   UNL     1      -6.408  19.661  64.838  0.00  0.00    +0.195 A 
ATOM     13  O   UNL     1      -6.381  20.891  64.181  0.00  0.00    -0.287 OA
ATOM     14  C   UNL     1      -5.333  18.786  64.822  0.00  0.00    +0.042 A 
ATOM     15  C   UNL     1      -5.350  17.665  65.642  0.00  0.00    +0.003 A 
ATOM     16  C   UNL     1      -6.416  17.478  66.478  0.00  0.00    -0.004 A 
ENDBRANCH   4  10
ENDBRANCH   1   8
BRANCH   1  17
ATOM     17  C   UNL     1     -11.046  14.314  68.488  0.00  0.00    +0.098 C 
BRANCH  17  18
ATOM     18  C   UNL     1     -12.033  14.955  69.590  0.00  0.00    +0.243 C 
ATOM     19  N   UNL     1     -11.689  14.693  70.957  0.00  0.00    -0.193 NA
ATOM     20  O   UNL     1     -12.110  16.209  69.390  0.00  0.00    -0.273 OA
BRANCH  19  21
ATOM     21  C   UNL     1     -12.109  15.620  71.998  0.00  0.00    +0.228 C 
BRANCH  21  22
ATOM     22  C   UNL     1     -13.406  15.207  72.576  0.00  0.00    +0.387 C 
ATOM     23  O   UNL     1     -14.537  15.833  72.042  0.00  0.00    -0.244 OA
ATOM     24  O   UNL     1     -13.476  13.987  72.918  0.00  0.00    -0.244 OA
ENDBRANCH  21  22
ENDBRANCH  19  21
ENDBRANCH  17  18
BRANCH  17  25
ATOM     25  C   UNL     1     -12.272  13.744  67.559  0.00  0.00    +0.037 C 
BRANCH  25  26
ATOM     26  C   UNL     1     -11.642  13.111  66.391  0.00  0.00    -0.022 A 
ATOM     27  C   UNL     1     -10.775  12.025  66.457  0.00  0.00    -0.004 A 
ATOM     28  C   UNL     1     -10.027  11.848  65.297  0.00  0.00    -0.000 A 
ATOM     29  C   UNL     1     -10.767  11.779  64.121  0.00  0.00    -0.000 A 
ATOM     30  C   UNL     1     -11.964  12.480  64.081  0.00  0.00    -0.000 A 
ATOM     31  C   UNL     1     -12.350  13.208  65.200  0.00  0.00    -0.004 A 
ENDBRANCH  25  26
ENDBRANCH  17  25
ENDBRANCH   1  17
TORSDOF 8
ENDMDL
MODEL 4
REMARK VINA RESULT:      -7.2      2.303      5.068
REMARK  Name = 
REMARK  8 active torsions:
REMARK  status: ('A' for Active; 'I' for Inactive)
REMARK    1  A    between atoms: N_4  and  C_5
REMARK    2  A    between atoms: C_5  and  C_6
REMARK    3  A    between atoms: C_6  and  C_7
REMARK    4  A    between atoms: C_6  and  C_14
REMARK    5  A    between atoms: C_7  and  C_8
REMARK    6  A    between atoms: N_16  and  C_17
REMARK    7  A    between atoms: C_17  and  C_18
REMARK    8  A    between atoms: C_23  and  C_25
REMARK                            x       y       z     vdW  Elec       q    Type
REMARK                         _______ _______ _______ _____ _____    ______ ____
ROOT
ATOM      1  C   UNL     1     -10.899  16.177  67.131  0.00  0.00    +0.082 C 
ENDROOT
BRANCH   1   8
ATOM      2  C   UNL     1      -8.722  19.388  68.585  0.00  0.00    +0.002 C 
ATOM      3  C   UNL     1      -8.938  17.790  68.315  0.00  0.00    +0.020 C 
ATOM      4  C   UNL     1      -7.402  17.561  67.812  0.00  0.00    +0.022 C 
ATOM      5  C   UNL     1      -6.544  17.618  69.062  0.00  0.00    +0.004 C 
ATOM      6  C   UNL     1      -7.432  16.184  67.254  0.00  0.00    +0.021 C 
ATOM      7  C   UNL     1      -8.605  15.805  66.449  0.00  0.00    +0.072 C 
ATOM      8  N   UNL     1      -9.739  16.630  66.455  0.00  0.00    -0.272 NA
ATOM      9  C   UNL     1      -9.490  18.028  66.791  0.00  0.00    +0.072 C 
BRANCH   4  10
ATOM     10  C   UNL     1      -7.089  18.623  66.848  0.00  0.00    -0.020 A 
ATOM     11  C   UNL     1      -6.507  19.814  67.270  0.00  0.00    +0.038 A 
ATOM     12  C   UNL     1      -6.089  20.753  66.349  0.00  0.00    +0.195 A 
ATOM     13  O   UNL     1      -5.709  21.987  66.877  0.00  0.00    -0.287 OA
ATOM     14  C   UNL     1      -5.549  20.248  65.177  0.00  0.00    +0.042 A 
ATOM     15  C   UNL     1      -5.830  18.941  64.801  0.00  0.00    +0.003 A 
ATOM     16  C   UNL     1      -6.602  18.171  65.625  0.00  0.00    -0.004 A 
ENDBRANCH   4  10
ENDBRANCH   1   8
BRANCH   1  17
ATOM     17  C   UNL     1     -10.630  14.645  67.646  0.00  0.00    +0.098 C 
BRANCH  17  18
ATOM     18  C   UNL     1     -11.292  14.940  69.085  0.00  0.00    +0.243 C 
ATOM     19  N   UNL     1     -12.194  13.937  69.571  0.00  0.00    -0.193 NA
ATOM     20  O   UNL     1     -10.361  15.139  69.930  0.00  0.00    -0.273 OA
BRANCH  19  21
ATOM     21  C   UNL     1     -12.402  13.784  71.003  0.00  0.00    +0.228 C 
BRANCH  21  22
ATOM     22  C   UNL     1     -13.670  14.421  71.421  0.00  0.00    +0.387 C 
ATOM     23  O   UNL     1     -14.383  13.756  72.423  0.00  0.00    -0.244 OA
ATOM     24  O   UNL     1     -13.663  15.689  71.403  0.00  0.00    -0.244 OA
ENDBRANCH  21  22
ENDBRANCH  19  21
ENDBRANCH  17  18
BRANCH  17  25
ATOM     25  C   UNL     1     -12.036  14.121  66.982  0.00  0.00    +0.037 C 
BRANCH  25  26
ATOM     26  C   UNL     1     -11.659  13.243  65.864  0.00  0.00    -0.022 A 
ATOM     27  C   UNL     1     -11.348  11.893  65.993  0.00  0.00    -0.004 A 
ATOM     28  C   UNL     1     -10.670  11.379  64.891  0.00  0.00    -0.000 A 
ATOM     29  C   UNL     1     -11.287  11.596  63.663  0.00  0.00    -0.000 A 
ATOM     30  C   UNL     1     -12.063  12.739  63.535  0.00  0.00    -0.000 A 
ATOM     31  C   UNL     1     -12.175  13.596  64.623  0.00  0.00    -0.004 A 
ENDBRANCH  25  26
ENDBRANCH  17  25
ENDBRANCH   1  17
TORSDOF 8
ENDMDL
MODEL 5
REMARK VINA RESULT:      -7.2      2.405      4.422
REMARK  Name = 
REMARK  8 active torsions:
REMARK  status: ('A' for Active; 'I' for Inactive)
REMARK    1  A    between atoms: N_4  and  C_5
REMARK    2  A    between atoms: C_5  and  C_6
REMARK    3  A    between atoms: C_6  and  C_7
REMARK    4  A    between atoms: C_6  and  C_14
REMARK    5  A    between atoms: C_7  and  C_8
REMARK    6  A    between atoms: N_16  and  C_17
REMARK    7  A    between atoms: C_17  and  C_18
REMARK    8  A    between atoms: C_23  and  C_25
REMARK                            x       y       z     vdW  Elec       q    Type
REMARK                         _______ _______ _______ _____ _____    ______ ____
ROOT
ATOM      1  C   UNL     1     -10.751  16.857  68.001  0.00  0.00    +0.082 C 
ENDROOT
BRANCH   1   8
ATOM      2  C   UNL     1      -6.916  17.043  66.446  0.00  0.00    +0.002 C 
ATOM      3  C   UNL     1      -8.414  17.656  66.681  0.00  0.00    +0.020 C 
ATOM      4  C   UNL     1      -7.861  19.155  67.016  0.00  0.00    +0.022 C 
ATOM      5  C   UNL     1      -7.419  19.741  65.688  0.00  0.00    +0.004 C 
ATOM      6  C   UNL     1      -9.070  19.853  67.526  0.00  0.00    +0.021 C 
ATOM      7  C   UNL     1      -9.954  19.102  68.433  0.00  0.00    +0.072 C 
ATOM      8  N   UNL     1      -9.781  17.718  68.571  0.00  0.00    -0.272 NA
ATOM      9  C   UNL     1      -8.443  17.223  68.260  0.00  0.00    +0.072 C 
BRANCH   4  10
ATOM     10  C   UNL     1      -6.762  19.016  67.980  0.00  0.00    -0.020 A 
ATOM     11  C   UNL     1      -5.440  18.995  67.548  0.00  0.00    +0.038 A 
ATOM     12  C   UNL     1      -4.406  19.002  68.462  0.00  0.00    +0.195 A 
ATOM     13  O   UNL     1      -3.134  18.776  67.934  0.00  0.00    -0.287 OA
ATOM     14  C   UNL     1      -4.613  19.765  69.600  0.00  0.00    +0.042 A 
ATOM     15  C   UNL     1      -5.908  20.105  69.970  0.00  0.00    +0.003 A 
ATOM     16  C   UNL     1      -6.945  19.710  69.172  0.00  0.00    -0.004 A 
ENDBRANCH   4  10
ENDBRANCH   1   8
BRANCH   1  17
ATOM     17  C   UNL     1     -10.571  15.369  68.663  0.00  0.00    +0.098 C 
BRANCH  17  18
ATOM     18  C   UNL     1     -11.125  15.864  70.093  0.00  0.00    +0.243 C 
ATOM     19  N   UNL     1     -12.546  15.795  70.266  0.00  0.00    -0.193 NA
ATOM     20  O   UNL     1     -10.540  15.201  71.009  0.00  0.00    -0.273 OA
BRANCH  19  21
ATOM     21  C   UNL     1     -13.106  15.660  71.602  0.00  0.00    +0.228 C 
BRANCH  21  22
ATOM     22  C   UNL     1     -14.330  14.829  71.578  0.00  0.00    +0.387 C 
ATOM     23  O   UNL     1     -14.351  13.751  72.469  0.00  0.00    -0.244 OA
ATOM     24  O   UNL     1     -15.403  15.465  71.349  0.00  0.00    -0.244 OA
ENDBRANCH  21  22
ENDBRANCH  19  21
ENDBRANCH  17  18
BRANCH  17  25
ATOM     25  C   UNL     1     -12.049  14.895  68.129  0.00  0.00    +0.037 C 
BRANCH  25  26
ATOM     26  C   UNL     1     -11.804  13.910  67.066  0.00  0.00    -0.022 A 
ATOM     27  C   UNL     1     -12.423  13.925  65.821  0.00  0.00    -0.004 A 
ATOM     28  C   UNL     1     -12.325  12.712  65.145  0.00  0.00    -0.000 A 
ATOM     29  C   UNL     1     -11.035  12.210  65.013  0.00  0.00    -0.000 A 
ATOM     30  C   UNL     1     -10.124  12.529  66.011  0.00  0.00    -0.000 A 
ATOM     31  C   UNL     1     -10.548  13.317  67.074  0.00  0.00    -0.004 A 
ENDBRANCH  25  26
ENDBRANCH  17  25
ENDBRANCH   1  17
TORSDOF 8
ENDMDL
MODEL 6
REMARK VINA RESULT:      -7.0      5.664      9.173
REMARK  Name = 
REMARK  8 active torsions:
REMARK  status: ('A' for Active; 'I' for Inactive)
REMARK    1  A    between atoms: N_4  and  C_5
REMARK    2  A    between atoms: C_5  and  C_6
REMARK    3  A    between atoms: C_6  and  C_7
REMARK    4  A    between atoms: C_6  and  C_14
REMARK    5  A    between atoms: C_7  and  C_8
REMARK    6  A    between atoms: N_16  and  C_17
REMARK    7  A    between atoms: C_17  and  C_18
REMARK    8  A    between atoms: C_23  and  C_25
REMARK                            x       y       z     vdW  Elec       q    Type
REMARK                         _______ _______ _______ _____ _____    ______ ____
ROOT
ATOM      1  C   UNL     1     -11.395  10.439  69.579  0.00  0.00    +0.082 C 
ENDROOT
BRANCH   1   8
ATOM      2  C   UNL     1     -12.332   7.022  71.724  0.00  0.00    +0.002 C 
ATOM      3  C   UNL     1     -11.501   7.819  70.565  0.00  0.00    +0.020 C 
ATOM      4  C   UNL     1     -10.075   7.132  70.967  0.00  0.00    +0.022 C 
ATOM      5  C   UNL     1     -10.148   5.702  70.462  0.00  0.00    +0.004 C 
ATOM      6  C   UNL     1      -9.088   7.920  70.184  0.00  0.00    +0.021 C 
ATOM      7  C   UNL     1      -9.286   9.377  70.116  0.00  0.00    +0.072 C 
ATOM      8  N   UNL     1     -10.500   9.927  70.551  0.00  0.00    -0.272 NA
ATOM      9  C   UNL     1     -11.237   9.122  71.520  0.00  0.00    +0.072 C 
BRANCH   4  10
ATOM     10  C   UNL     1      -9.937   7.223  72.425  0.00  0.00    -0.020 A 
ATOM     11  C   UNL     1     -10.209   6.123  73.233  0.00  0.00    +0.038 A 
ATOM     12  C   UNL     1      -9.948   6.167  74.587  0.00  0.00    +0.195 A 
ATOM     13  O   UNL     1     -10.443   5.096  75.331  0.00  0.00    -0.287 OA
ATOM     14  C   UNL     1      -8.812   6.869  74.958  0.00  0.00    +0.042 A 
ATOM     15  C   UNL     1      -8.267   7.801  74.085  0.00  0.00    +0.003 A 
ATOM     16  C   UNL     1      -8.847   7.971  72.859  0.00  0.00    -0.004 A 
ENDBRANCH   4  10
ENDBRANCH   1   8
BRANCH   1  17
ATOM     17  C   UNL     1     -11.191  12.062  69.495  0.00  0.00    +0.098 C 
BRANCH  17  18
ATOM     18  C   UNL     1     -11.801  12.130  68.005  0.00  0.00    +0.243 C 
ATOM     19  N   UNL     1     -11.183  13.077  67.124  0.00  0.00    -0.193 NA
ATOM     20  O   UNL     1     -11.762  10.965  67.494  0.00  0.00    -0.273 OA
BRANCH  19  21
ATOM     21  C   UNL     1     -11.226  12.861  65.686  0.00  0.00    +0.228 C 
BRANCH  21  22
ATOM     22  C   UNL     1     -12.530  13.282  65.129  0.00  0.00    +0.387 C 
ATOM     23  O   UNL     1     -12.558  14.548  64.537  0.00  0.00    -0.244 OA
ATOM     24  O   UNL     1     -13.224  12.347  64.626  0.00  0.00    -0.244 OA
ENDBRANCH  21  22
ENDBRANCH  19  21
ENDBRANCH  17  18
BRANCH  17  25
ATOM     25  C   UNL     1     -12.637  12.334  70.221  0.00  0.00    +0.037 C 
BRANCH  25  26
ATOM     26  C   UNL     1     -12.472  13.557  71.020  0.00  0.00    -0.022 A 
ATOM     27  C   UNL     1     -12.126  14.798  70.496  0.00  0.00    -0.004 A 
ATOM     28  C   UNL     1     -11.667  15.691  71.460  0.00  0.00    -0.000 A 
ATOM     29  C   UNL     1     -12.510  15.869  72.552  0.00  0.00    -0.000 A 
ATOM     30  C   UNL     1     -13.309  14.795  72.920  0.00  0.00    -0.000 A 
ATOM     31  C   UNL     1     -13.220  13.616  72.189  0.00  0.00    -0.004 A 
ENDBRANCH  25  26
ENDBRANCH  17  25
ENDBRANCH   1  17
TORSDOF 8
ENDMDL
MODEL 7
REMARK VINA RESULT:      -7.0      2.922      7.593
REMARK  Name = 
REMARK  8 active torsions:
REMARK  status: ('A' for Active; 'I' for Inactive)
REMARK    1  A    between atoms: N_4  and  C_5
REMARK    2  A    between atoms: C_5  and  C_6
REMARK    3  A    between atoms: C_6  and  C_7
REMARK    4  A    between atoms: C_6  and  C_14
REMARK    5  A    between atoms: C_7  and  C_8
REMARK    6  A    between atoms: N_16  and  C_17
REMARK    7  A    between atoms: C_17  and  C_18
REMARK    8  A    between atoms: C_23  and  C_25
REMARK                            x       y       z     vdW  Elec       q    Type
REMARK                         _______ _______ _______ _____ _____    ______ ____
ROOT
ATOM      1  C   UNL     1     -10.026  15.291  68.319  0.00  0.00    +0.082 C 
ENDROOT
BRANCH   1   8
ATOM      2  C   UNL     1      -8.589  11.459  67.676  0.00  0.00    +0.002 C 
ATOM      3  C   UNL     1      -9.787  12.516  68.024  0.00  0.00    +0.020 C 
ATOM      4  C   UNL     1     -10.857  11.792  67.025  0.00  0.00    +0.022 C 
ATOM      5  C   UNL     1     -11.272  10.510  67.722  0.00  0.00    +0.004 C 
ATOM      6  C   UNL     1     -11.984  12.760  66.982  0.00  0.00    +0.021 C 
ATOM      7  C   UNL     1     -11.646  14.190  66.896  0.00  0.00    +0.072 C 
ATOM      8  N   UNL     1     -10.325  14.599  67.120  0.00  0.00    -0.272 NA
ATOM      9  C   UNL     1      -9.308  13.580  66.876  0.00  0.00    +0.072 C 
BRANCH   4  10
ATOM     10  C   UNL     1     -10.179  11.560  65.744  0.00  0.00    -0.020 A 
ATOM     11  C   UNL     1      -9.678  10.302  65.425  0.00  0.00    +0.038 A 
ATOM     12  C   UNL     1      -9.164  10.051  64.170  0.00  0.00    +0.195 A 
ATOM     13  O   UNL     1      -8.508   8.829  64.020  0.00  0.00    -0.287 OA
ATOM     14  C   UNL     1      -9.810  10.681  63.118  0.00  0.00    +0.042 A 
ATOM     15  C   UNL     1     -10.597  11.798  63.368  0.00  0.00    +0.003 A 
ATOM     16  C   UNL     1     -10.747  12.221  64.659  0.00  0.00    -0.004 A 
ENDBRANCH   4  10
ENDBRANCH   1   8
BRANCH   1  17
ATOM     17  C   UNL     1     -11.167  16.444  68.547  0.00  0.00    +0.098 C 
BRANCH  17  18
ATOM     18  C   UNL     1     -11.500  15.919  70.034  0.00  0.00    +0.243 C 
ATOM     19  N   UNL     1     -12.631  15.045  70.145  0.00  0.00    -0.193 NA
ATOM     20  O   UNL     1     -10.462  15.355  70.509  0.00  0.00    -0.273 OA
BRANCH  19  21
ATOM     21  C   UNL     1     -12.701  14.090  71.241  0.00  0.00    +0.228 C 
BRANCH  21  22
ATOM     22  C   UNL     1     -13.796  14.438  72.172  0.00  0.00    +0.387 C 
ATOM     23  O   UNL     1     -14.459  15.641  71.908  0.00  0.00    -0.244 OA
ATOM     24  O   UNL     1     -14.457  13.450  72.613  0.00  0.00    -0.244 OA
ENDBRANCH  21  22
ENDBRANCH  19  21
ENDBRANCH  17  18
BRANCH  17  25
ATOM     25  C   UNL     1     -10.046  17.527  69.059  0.00  0.00    +0.037 C 
BRANCH  25  26
ATOM     26  C   UNL     1      -9.733  18.373  67.898  0.00  0.00    -0.022 A 
ATOM     27  C   UNL     1     -10.610  19.296  67.337  0.00  0.00    -0.004 A 
ATOM     28  C   UNL     1     -10.244  19.689  66.053  0.00  0.00    -0.000 A 
ATOM     29  C   UNL     1      -8.939  20.155  65.925  0.00  0.00    -0.000 A 
ATOM     30  C   UNL     1      -7.990  19.631  66.792  0.00  0.00    -0.000 A 
ATOM     31  C   UNL     1      -8.389  18.679  67.724  0.00  0.00    -0.004 A 
ENDBRANCH  25  26
ENDBRANCH  17  25
ENDBRANCH   1  17
TORSDOF 8
ENDMDL
MODEL 8
REMARK VINA RESULT:      -6.9      4.313      7.909
REMARK  Name = 
REMARK  8 active torsions:
REMARK  status: ('A' for Active; 'I' for Inactive)
REMARK    1  A    between atoms: N_4  and  C_5
REMARK    2  A    between atoms: C_5  and  C_6
REMARK    3  A    between atoms: C_6  and  C_7
REMARK    4  A    between atoms: C_6  and  C_14
REMARK    5  A    between atoms: C_7  and  C_8
REMARK    6  A    between atoms: N_16  and  C_17
REMARK    7  A    between atoms: C_17  and  C_18
REMARK    8  A    between atoms: C_23  and  C_25
REMARK                            x       y       z     vdW  Elec       q    Type
REMARK                         _______ _______ _______ _____ _____    ______ ____
ROOT
ATOM      1  C   UNL     1     -11.623  12.467  67.690  0.00  0.00    +0.082 C 
ENDROOT
BRANCH   1   8
ATOM      2  C   UNL     1      -9.440   9.595  65.655  0.00  0.00    +0.002 C 
ATOM      3  C   UNL     1      -9.668  10.622  66.906  0.00  0.00    +0.020 C 
ATOM      4  C   UNL     1      -9.208   9.525  68.025  0.00  0.00    +0.022 C 
ATOM      5  C   UNL     1      -7.700   9.413  67.901  0.00  0.00    +0.004 C 
ATOM      6  C   UNL     1      -9.586  10.174  69.308  0.00  0.00    +0.021 C 
ATOM      7  C   UNL     1     -10.879  10.876  69.356  0.00  0.00    +0.072 C 
ATOM      8  N   UNL     1     -11.567  11.133  68.163  0.00  0.00    -0.272 NA
ATOM      9  C   UNL     1     -11.252  10.234  67.056  0.00  0.00    +0.072 C 
BRANCH   4  10
ATOM     10  C   UNL     1      -9.907   8.269  67.727  0.00  0.00    -0.020 A 
ATOM     11  C   UNL     1      -9.325   7.314  66.899  0.00  0.00    +0.038 A 
ATOM     12  C   UNL     1      -9.920   6.081  66.729  0.00  0.00    +0.195 A 
ATOM     13  O   UNL     1      -9.368   5.278  65.730  0.00  0.00    -0.287 OA
ATOM     14  C   UNL     1     -10.538   5.551  67.851  0.00  0.00    +0.042 A 
ATOM     15  C   UNL     1     -10.903   6.392  68.893  0.00  0.00    +0.003 A 
ATOM     16  C   UNL     1     -10.601   7.722  68.802  0.00  0.00    -0.004 A 
ENDBRANCH   4  10
ENDBRANCH   1   8
BRANCH   1  17
ATOM     17  C   UNL     1     -10.807  13.422  68.742  0.00  0.00    +0.098 C 
BRANCH  17  18
ATOM     18  C   UNL     1     -10.201  14.328  67.555  0.00  0.00    +0.243 C 
ATOM     19  N   UNL     1     -10.661  14.010  66.234  0.00  0.00    -0.193 NA
ATOM     20  O   UNL     1     -10.431  15.552  67.816  0.00  0.00    -0.273 OA
BRANCH  19  21
ATOM     21  C   UNL     1     -10.661  15.036  65.203  0.00  0.00    +0.228 C 
BRANCH  21  22
ATOM     22  C   UNL     1     -11.934  15.025  64.450  0.00  0.00    +0.387 C 
ATOM     23  O   UNL     1     -12.966  14.265  65.012  0.00  0.00    -0.244 OA
ATOM     24  O   UNL     1     -12.216  16.111  63.858  0.00  0.00    -0.244 OA
ENDBRANCH  21  22
ENDBRANCH  19  21
ENDBRANCH  17  18
BRANCH  17  25
ATOM     25  C   UNL     1     -12.115  14.387  68.962  0.00  0.00    +0.037 C 
BRANCH  25  26
ATOM     26  C   UNL     1     -12.257  14.559  70.415  0.00  0.00    -0.022 A 
ATOM     27  C   UNL     1     -12.277  15.788  71.065  0.00  0.00    -0.004 A 
ATOM     28  C   UNL     1     -12.042  15.689  72.433  0.00  0.00    -0.000 A 
ATOM     29  C   UNL     1     -12.863  14.795  73.112  0.00  0.00    -0.000 A 
ATOM     30  C   UNL     1     -13.331  13.698  72.403  0.00  0.00    -0.000 A 
ATOM     31  C   UNL     1     -12.953  13.552  71.073  0.00  0.00    -0.004 A 
ENDBRANCH  25  26
ENDBRANCH  17  25
ENDBRANCH   1  17
TORSDOF 8
ENDMDL
MODEL 9
REMARK VINA RESULT:      -6.9      2.613      8.939
REMARK  Name = 
REMARK  8 active torsions:
REMARK  status: ('A' for Active; 'I' for Inactive)
REMARK    1  A    between atoms: N_4  and  C_5
REMARK    2  A    between atoms: C_5  and  C_6
REMARK    3  A    between atoms: C_6  and  C_7
REMARK    4  A    between atoms: C_6  and  C_14
REMARK    5  A    between atoms: C_7  and  C_8
REMARK    6  A    between atoms: N_16  and  C_17
REMARK    7  A    between atoms: C_17  and  C_18
REMARK    8  A    between atoms: C_23  and  C_25
REMARK                            x       y       z     vdW  Elec       q    Type
REMARK                         _______ _______ _______ _____ _____    ______ ____
ROOT
ATOM      1  C   UNL     1      -7.122  17.945  68.332  0.00  0.00    +0.082 C 
ENDROOT
BRANCH   1   8
ATOM      2  C   UNL     1      -9.310  14.465  68.845  0.00  0.00    +0.002 C 
ATOM      3  C   UNL     1      -9.153  16.092  68.868  0.00  0.00    +0.020 C 
ATOM      4  C   UNL     1     -10.586  16.344  68.127  0.00  0.00    +0.022 C 
ATOM      5  C   UNL     1     -11.649  16.055  69.171  0.00  0.00    +0.004 C 
ATOM      6  C   UNL     1     -10.546  17.794  67.802  0.00  0.00    +0.021 C 
ATOM      7  C   UNL     1      -9.275  18.340  67.298  0.00  0.00    +0.072 C 
ATOM      8  N   UNL     1      -8.110  17.567  67.390  0.00  0.00    -0.272 NA
ATOM      9  C   UNL     1      -8.324  16.124  67.456  0.00  0.00    +0.072 C 
BRANCH   4  10
ATOM     10  C   UNL     1     -10.651  15.443  66.971  0.00  0.00    -0.020 A 
ATOM     11  C   UNL     1     -11.422  14.285  67.018  0.00  0.00    +0.038 A 
ATOM     12  C   UNL     1     -11.592  13.512  65.888  0.00  0.00    +0.195 A 
ATOM     13  O   UNL     1     -12.209  12.277  66.090  0.00  0.00    -0.287 OA
ATOM     14  C   UNL     1     -11.692  14.206  64.693  0.00  0.00    +0.042 A 
ATOM     15  C   UNL     1     -11.213  15.506  64.613  0.00  0.00    +0.003 A 
ATOM     16  C   UNL     1     -10.690  16.084  65.737  0.00  0.00    -0.004 A 
ENDBRANCH   4  10
ENDBRANCH   1   8
BRANCH   1  17
ATOM     17  C   UNL     1      -6.541  19.416  67.907  0.00  0.00    +0.098 C 
BRANCH  17  18
ATOM     18  C   UNL     1      -5.620  19.510  69.227  0.00  0.00    +0.243 C 
ATOM     19  N   UNL     1      -6.056  20.445  70.223  0.00  0.00    -0.193 NA
ATOM     20  O   UNL     1      -5.514  18.347  69.734  0.00  0.00    -0.273 OA
BRANCH  19  21
ATOM     21  C   UNL     1      -5.693  20.237  71.617  0.00  0.00    +0.228 C 
BRANCH  21  22
ATOM     22  C   UNL     1      -4.390  20.869  71.919  0.00  0.00    +0.387 C 
ATOM     23  O   UNL     1      -4.440  22.216  72.295  0.00  0.00    -0.244 OA
ATOM     24  O   UNL     1      -3.539  20.104  72.467  0.00  0.00    -0.244 OA
ENDBRANCH  21  22
ENDBRANCH  19  21
ENDBRANCH  17  18
BRANCH  17  25
ATOM     25  C   UNL     1      -5.357  18.743  66.993  0.00  0.00    +0.037 C 
BRANCH  25  26
ATOM     26  C   UNL     1      -5.151  19.652  65.855  0.00  0.00    -0.022 A 
ATOM     27  C   UNL     1      -3.944  19.809  65.182  0.00  0.00    -0.004 A 
ATOM     28  C   UNL     1      -3.891  20.968  64.415  0.00  0.00    -0.000 A 
ATOM     29  C   UNL     1      -4.943  21.135  63.520  0.00  0.00    -0.000 A 
ATOM     30  C   UNL     1      -6.168  20.584  63.871  0.00  0.00    -0.000 A 
ATOM     31  C   UNL     1      -6.276  19.912  65.083  0.00  0.00    -0.004 A 
ENDBRANCH  25  26
ENDBRANCH  17  25
ENDBRANCH   1  17
TORSDOF 8
ENDMDL
