MODEL 1
REMARK VINA RESULT:      -9.2      0.000      0.000
REMARK  Name = 
REMARK  4 active torsions:
REMARK  status: ('A' for Active; 'I' for Inactive)
REMARK    1  A    between atoms: C_8  and  C_9
REMARK    2  A    between atoms: C_9  and  C_10
REMARK    3  A    between atoms: C_10  and  N_11
REMARK    4  A    between atoms: C_14  and  C_15
REMARK                            x       y       z     vdW  Elec       q    Type
REMARK                         _______ _______ _______ _____ _____    ______ ____
ROOT
ATOM      1  N   UNL     1      -9.790  11.866  66.466  0.00  0.00    -0.272 NA
ATOM      2  C   UNL     1      -8.673  12.783  66.452  0.00  0.00    +0.072 C 
ATOM      3  C   UNL     1      -9.257  14.167  66.713  0.00  0.00    +0.023 C 
ATOM      4  C   UNL     1      -9.868  14.608  65.413  0.00  0.00    +0.046 C 
ATOM      5  C   UNL     1     -10.773  13.522  64.927  0.00  0.00    +0.023 C 
ATOM      6  C   UNL     1     -10.996  12.418  65.918  0.00  0.00    +0.072 C 
ENDROOT
BRANCH   4   7
ATOM      7  C   UNL     1     -10.485  15.939  65.474  0.00  0.00    +0.100 A 
ATOM      8  C   UNL     1     -10.257  16.855  66.492  0.00  0.00    +0.054 A 
ATOM      9  C   UNL     1     -10.441  18.122  65.950  0.00  0.00    +0.179 A 
ATOM     10  C   UNL     1      -9.924  19.238  66.600  0.00  0.00    +0.070 A 
ATOM     11  C   UNL     1      -8.967  19.046  67.586  0.00  0.00    +0.143 A 
ATOM     12  C   UNL     1      -9.072  17.877  68.325  0.00  0.00    +0.030 A 
ATOM     13  F   UNL     1      -7.884  19.864  67.718  0.00  0.00    -0.204 F 
ATOM     14  O   UNL     1     -11.056  17.911  64.810  0.00  0.00    -0.354 OA
ATOM     15  C   UNL     1      -9.724  16.785  67.768  0.00  0.00    +0.007 A 
ATOM     16  N   UNL     1     -11.155  16.650  64.544  0.00  0.00    -0.081 NA
ENDBRANCH   4   7
BRANCH   1  17
ATOM     17  C   UNL     1     -10.058  11.586  67.876  0.00  0.00    +0.077 C 
BRANCH  17  18
ATOM     18  C   UNL     1     -11.550  11.784  68.104  0.00  0.00    +0.050 C 
BRANCH  18  21
ATOM     19  C   UNL     1     -11.853  10.250  70.518  0.00  0.00    +0.052 C 
ATOM     20  C   UNL     1     -12.223  11.680  70.453  0.00  0.00    +0.061 A 
ATOM     21  C   UNL     1     -11.714  12.448  69.419  0.00  0.00    +0.049 A 
ATOM     22  C   UNL     1     -12.082  13.788  69.402  0.00  0.00    +0.259 A 
ATOM     23  O   UNL     1     -12.087  14.470  68.341  0.00  0.00    -0.267 OA
ATOM     24  N   UNL     1     -12.584  14.352  70.524  0.00  0.00    -0.284 N 
ATOM     25  C   UNL     1     -12.447  15.789  70.736  0.00  0.00    +0.110 C 
ATOM     26  C   UNL     1     -12.077  15.974  72.201  0.00  0.00    +0.025 C 
ATOM     27  C   UNL     1     -13.172  15.474  73.103  0.00  0.00    +0.010 C 
ATOM     28  C   UNL     1     -13.751  14.160  72.650  0.00  0.00    +0.064 C 
ATOM     29  C   UNL     1     -12.991  13.561  71.523  0.00  0.00    +0.122 A 
ATOM     30  N   UNL     1     -12.847  12.232  71.522  0.00  0.00    -0.237 NA
ENDBRANCH  18  21
ENDBRANCH  17  18
ENDBRANCH   1  17
TORSDOF 4
ENDMDL
MODEL 2
REMARK VINA RESULT:      -8.3      3.083      7.220
REMARK  Name = 
REMARK  4 active torsions:
REMARK  status: ('A' for Active; 'I' for Inactive)
REMARK    1  A    between atoms: C_8  and  C_9
REMARK    2  A    between atoms: C_9  and  C_10
REMARK    3  A    between atoms: C_10  and  N_11
REMARK    4  A    between atoms: C_14  and  C_15
REMARK                            x       y       z     vdW  Elec       q    Type
REMARK                         _______ _______ _______ _____ _____    ______ ____
ROOT
ATOM      1  N   UNL     1     -10.095  14.570  66.584  0.00  0.00    -0.272 NA
ATOM      2  C   UNL     1     -11.366  13.909  66.385  0.00  0.00    +0.072 C 
ATOM      3  C   UNL     1     -12.002  13.791  67.765  0.00  0.00    +0.023 C 
ATOM      4  C   UNL     1     -11.307  12.644  68.443  0.00  0.00    +0.046 C 
ATOM      5  C   UNL     1      -9.832  12.865  68.345  0.00  0.00    +0.023 C 
ATOM      6  C   UNL     1      -9.446  14.214  67.813  0.00  0.00    +0.072 C 
ENDROOT
BRANCH   4   7
ATOM      7  C   UNL     1     -11.798  12.377  69.800  0.00  0.00    +0.100 A 
ATOM      8  C   UNL     1     -12.146  13.367  70.710  0.00  0.00    +0.054 A 
ATOM      9  C   UNL     1     -13.106  12.825  71.557  0.00  0.00    +0.179 A 
ATOM     10  C   UNL     1     -13.916  13.662  72.317  0.00  0.00    +0.070 A 
ATOM     11  C   UNL     1     -13.981  15.006  71.979  0.00  0.00    +0.143 A 
ATOM     12  C   UNL     1     -12.830  15.561  71.439  0.00  0.00    +0.030 A 
ATOM     13  F   UNL     1     -15.149  15.709  72.010  0.00  0.00    -0.204 F 
ATOM     14  O   UNL     1     -13.042  11.530  71.347  0.00  0.00    -0.354 OA
ATOM     15  C   UNL     1     -11.915  14.728  70.807  0.00  0.00    +0.007 A 
ATOM     16  N   UNL     1     -12.238  11.240  70.378  0.00  0.00    -0.081 NA
ENDBRANCH   4   7
BRANCH   1  17
ATOM     17  C   UNL     1     -10.399  15.998  66.666  0.00  0.00    +0.077 C 
BRANCH  17  18
ATOM     18  C   UNL     1      -9.317  16.739  65.894  0.00  0.00    +0.050 C 
BRANCH  18  21
ATOM     19  C   UNL     1     -10.415  19.394  66.045  0.00  0.00    +0.052 C 
ATOM     20  C   UNL     1      -9.063  19.081  66.554  0.00  0.00    +0.061 A 
ATOM     21  C   UNL     1      -8.740  17.758  66.804  0.00  0.00    +0.049 A 
ATOM     22  C   UNL     1      -7.461  17.512  67.289  0.00  0.00    +0.259 A 
ATOM     23  O   UNL     1      -6.887  16.400  67.134  0.00  0.00    -0.267 OA
ATOM     24  N   UNL     1      -6.747  18.529  67.821  0.00  0.00    -0.284 N 
ATOM     25  C   UNL     1      -5.712  18.247  68.811  0.00  0.00    +0.110 C 
ATOM     26  C   UNL     1      -5.847  19.313  69.889  0.00  0.00    +0.025 C 
ATOM     27  C   UNL     1      -5.592  20.686  69.328  0.00  0.00    +0.010 C 
ATOM     28  C   UNL     1      -6.247  20.904  67.990  0.00  0.00    +0.064 C 
ATOM     29  C   UNL     1      -7.149  19.787  67.609  0.00  0.00    +0.122 A 
ATOM     30  N   UNL     1      -8.280  20.106  66.971  0.00  0.00    -0.237 NA
ENDBRANCH  18  21
ENDBRANCH  17  18
ENDBRANCH   1  17
TORSDOF 4
ENDMDL
MODEL 3
REMARK VINA RESULT:      -8.2      2.524      6.423
REMARK  Name = 
REMARK  4 active torsions:
REMARK  status: ('A' for Active; 'I' for Inactive)
REMARK    1  A    between atoms: C_8  and  C_9
REMARK    2  A    between atoms: C_9  and  C_10
REMARK    3  A    between atoms: C_10  and  N_11
REMARK    4  A    between atoms: C_14  and  C_15
REMARK                            x       y       z     vdW  Elec       q    Type
REMARK                         _______ _______ _______ _____ _____    ______ ____
ROOT
ATOM      1  N   UNL     1      -9.959  12.102  66.627  0.00  0.00    -0.272 NA
ATOM      2  C   UNL     1     -11.395  11.939  66.586  0.00  0.00    +0.072 C 
ATOM      3  C   UNL     1     -11.911  12.372  67.954  0.00  0.00    +0.023 C 
ATOM      4  C   UNL     1     -11.627  11.226  68.883  0.00  0.00    +0.046 C 
ATOM      5  C   UNL     1     -10.187  10.852  68.741  0.00  0.00    +0.023 C 
ATOM      6  C   UNL     1      -9.383  11.806  67.908  0.00  0.00    +0.072 C 
ENDROOT
BRANCH   4   7
ATOM      7  C   UNL     1     -12.063  11.466  70.265  0.00  0.00    +0.100 A 
ATOM      8  C   UNL     1     -12.316  12.726  70.792  0.00  0.00    +0.054 A 
ATOM      9  C   UNL     1     -13.259  12.565  71.801  0.00  0.00    +0.179 A 
ATOM     10  C   UNL     1     -13.987  13.661  72.253  0.00  0.00    +0.070 A 
ATOM     11  C   UNL     1     -14.000  14.812  71.480  0.00  0.00    +0.143 A 
ATOM     12  C   UNL     1     -12.851  15.076  70.750  0.00  0.00    +0.030 A 
ATOM     13  F   UNL     1     -15.128  15.558  71.304  0.00  0.00    -0.204 F 
ATOM     14  O   UNL     1     -13.271  11.275  72.042  0.00  0.00    -0.354 OA
ATOM     15  C   UNL     1     -12.010  14.022  70.413  0.00  0.00    +0.007 A 
ATOM     16  N   UNL     1     -12.531  10.623  71.207  0.00  0.00    -0.081 NA
ENDBRANCH   4   7
BRANCH   1  17
ATOM     17  C   UNL     1      -9.713  13.520  66.372  0.00  0.00    +0.077 C 
BRANCH  17  18
ATOM     18  C   UNL     1      -9.107  14.112  67.636  0.00  0.00    +0.050 C 
BRANCH  18  21
ATOM     19  C   UNL     1      -6.423  15.144  67.559  0.00  0.00    +0.052 C 
ATOM     20  C   UNL     1      -7.593  16.032  67.719  0.00  0.00    +0.061 A 
ATOM     21  C   UNL     1      -8.843  15.547  67.373  0.00  0.00    +0.049 A 
ATOM     22  C   UNL     1      -9.914  16.419  67.533  0.00  0.00    +0.259 A 
ATOM     23  O   UNL     1     -11.095  16.009  67.698  0.00  0.00    -0.267 OA
ATOM     24  N   UNL     1      -9.676  17.745  67.655  0.00  0.00    -0.284 N 
ATOM     25  C   UNL     1     -10.703  18.704  67.260  0.00  0.00    +0.110 C 
ATOM     26  C   UNL     1      -9.984  19.822  66.519  0.00  0.00    +0.025 C 
ATOM     27  C   UNL     1      -9.009  20.530  67.419  0.00  0.00    +0.010 C 
ATOM     28  C   UNL     1      -8.212  19.584  68.279  0.00  0.00    +0.064 C 
ATOM     29  C   UNL     1      -8.432  18.161  67.915  0.00  0.00    +0.122 A 
ATOM     30  N   UNL     1      -7.375  17.345  67.973  0.00  0.00    -0.237 NA
ENDBRANCH  18  21
ENDBRANCH  17  18
ENDBRANCH   1  17
TORSDOF 4
ENDMDL
MODEL 4
REMARK VINA RESULT:      -8.0      3.584      6.971
REMARK  Name = 
REMARK  4 active torsions:
REMARK  status: ('A' for Active; 'I' for Inactive)
REMARK    1  A    between atoms: C_8  and  C_9
REMARK    2  A    between atoms: C_9  and  C_10
REMARK    3  A    between atoms: C_10  and  N_11
REMARK    4  A    between atoms: C_14  and  C_15
REMARK                            x       y       z     vdW  Elec       q    Type
REMARK                         _______ _______ _______ _____ _____    ______ ____
ROOT
ATOM      1  N   UNL     1      -9.411  11.893  67.119  0.00  0.00    -0.272 NA
ATOM      2  C   UNL     1     -10.613  11.288  66.591  0.00  0.00    +0.072 C 
ATOM      3  C   UNL     1     -11.013  10.203  67.585  0.00  0.00    +0.023 C 
ATOM      4  C   UNL     1     -10.096   9.043  67.319  0.00  0.00    +0.046 C 
ATOM      5  C   UNL     1      -8.689   9.545  67.327  0.00  0.00    +0.023 C 
ATOM      6  C   UNL     1      -8.545  10.965  67.789  0.00  0.00    +0.072 C 
ENDROOT
BRANCH   4   7
ATOM      7  C   UNL     1     -10.340   7.888  68.193  0.00  0.00    +0.100 A 
ATOM      8  C   UNL     1     -10.410   7.963  69.578  0.00  0.00    +0.054 A 
ATOM      9  C   UNL     1     -11.236   6.927  70.001  0.00  0.00    +0.179 A 
ATOM     10  C   UNL     1     -11.801   6.963  71.271  0.00  0.00    +0.070 A 
ATOM     11  C   UNL     1     -11.802   8.166  71.961  0.00  0.00    +0.143 A 
ATOM     12  C   UNL     1     -10.730   9.013  71.724  0.00  0.00    +0.030 A 
ATOM     13  F   UNL     1     -12.870   8.580  72.702  0.00  0.00    -0.204 F 
ATOM     14  O   UNL     1     -11.337   6.135  68.959  0.00  0.00    -0.354 OA
ATOM     15  C   UNL     1     -10.036   8.899  70.525  0.00  0.00    +0.007 A 
ATOM     16  N   UNL     1     -10.766   6.639  67.915  0.00  0.00    -0.081 NA
ENDBRANCH   4   7
BRANCH   1  17
ATOM     17  C   UNL     1      -9.858  12.854  68.126  0.00  0.00    +0.077 C 
BRANCH  17  18
ATOM     18  C   UNL     1     -11.060  13.589  67.553  0.00  0.00    +0.050 C 
BRANCH  18  21
ATOM     19  C   UNL     1     -10.646  16.427  67.781  0.00  0.00    +0.052 C 
ATOM     20  C   UNL     1     -11.138  15.619  68.916  0.00  0.00    +0.061 A 
ATOM     21  C   UNL     1     -11.673  14.368  68.655  0.00  0.00    +0.049 A 
ATOM     22  C   UNL     1     -12.130  13.647  69.752  0.00  0.00    +0.259 A 
ATOM     23  O   UNL     1     -12.208  12.388  69.743  0.00  0.00    -0.267 OA
ATOM     24  N   UNL     1     -12.369  14.292  70.916  0.00  0.00    -0.284 N 
ATOM     25  C   UNL     1     -13.338  13.746  71.861  0.00  0.00    +0.110 C 
ATOM     26  C   UNL     1     -14.143  14.928  72.383  0.00  0.00    +0.025 C 
ATOM     27  C   UNL     1     -13.263  15.895  73.127  0.00  0.00    +0.010 C 
ATOM     28  C   UNL     1     -11.950  16.146  72.435  0.00  0.00    +0.064 C 
ATOM     29  C   UNL     1     -11.891  15.530  71.084  0.00  0.00    +0.122 A 
ATOM     30  N   UNL     1     -11.260  16.217  70.126  0.00  0.00    -0.237 NA
ENDBRANCH  18  21
ENDBRANCH  17  18
ENDBRANCH   1  17
TORSDOF 4
ENDMDL
MODEL 5
REMARK VINA RESULT:      -7.9      4.010      8.161
REMARK  Name = 
REMARK  4 active torsions:
REMARK  status: ('A' for Active; 'I' for Inactive)
REMARK    1  A    between atoms: C_8  and  C_9
REMARK    2  A    between atoms: C_9  and  C_10
REMARK    3  A    between atoms: C_10  and  N_11
REMARK    4  A    between atoms: C_14  and  C_15
REMARK                            x       y       z     vdW  Elec       q    Type
REMARK                         _______ _______ _______ _____ _____    ______ ____
ROOT
ATOM      1  N   UNL     1     -10.423  12.514  67.136  0.00  0.00    -0.272 NA
ATOM      2  C   UNL     1     -11.452  12.679  68.138  0.00  0.00    +0.072 C 
ATOM      3  C   UNL     1     -11.081  11.744  69.284  0.00  0.00    +0.023 C 
ATOM      4  C   UNL     1     -11.485  10.367  68.838  0.00  0.00    +0.046 C 
ATOM      5  C   UNL     1     -10.898  10.119  67.486  0.00  0.00    +0.023 C 
ATOM      6  C   UNL     1      -9.926  11.171  67.036  0.00  0.00    +0.072 C 
ENDROOT
BRANCH   4   7
ATOM      7  C   UNL     1     -11.203   9.320  69.829  0.00  0.00    +0.100 A 
ATOM      8  C   UNL     1     -12.082   8.949  70.838  0.00  0.00    +0.054 A 
ATOM      9  C   UNL     1     -11.818   7.618  71.140  0.00  0.00    +0.179 A 
ATOM     10  C   UNL     1     -12.762   6.860  71.824  0.00  0.00    +0.070 A 
ATOM     11  C   UNL     1     -14.062   7.336  71.903  0.00  0.00    +0.143 A 
ATOM     12  C   UNL     1     -14.212   8.714  71.942  0.00  0.00    +0.030 A 
ATOM     13  F   UNL     1     -15.146   6.517  71.780  0.00  0.00    -0.204 F 
ATOM     14  O   UNL     1     -10.656   7.374  70.581  0.00  0.00    -0.354 OA
ATOM     15  C   UNL     1     -13.210   9.514  71.407  0.00  0.00    +0.007 A 
ATOM     16  N   UNL     1     -10.245   8.372  69.871  0.00  0.00    -0.081 NA
ENDBRANCH   4   7
BRANCH   1  17
ATOM     17  C   UNL     1      -9.303  13.345  67.574  0.00  0.00    +0.077 C 
BRANCH  17  18
ATOM     18  C   UNL     1      -8.906  14.229  66.401  0.00  0.00    +0.050 C 
BRANCH  18  21
ATOM     19  C   UNL     1     -11.165  15.188  64.900  0.00  0.00    +0.052 C 
ATOM     20  C   UNL     1     -10.290  16.105  65.659  0.00  0.00    +0.061 A 
ATOM     21  C   UNL     1      -9.475  15.576  66.646  0.00  0.00    +0.049 A 
ATOM     22  C   UNL     1      -8.675  16.476  67.340  0.00  0.00    +0.259 A 
ATOM     23  O   UNL     1      -7.605  16.125  67.907  0.00  0.00    -0.267 OA
ATOM     24  N   UNL     1      -8.969  17.796  67.294  0.00  0.00    -0.284 N 
ATOM     25  C   UNL     1      -8.559  18.667  68.391  0.00  0.00    +0.110 C 
ATOM     26  C   UNL     1      -9.732  19.599  68.659  0.00  0.00    +0.025 C 
ATOM     27  C   UNL     1     -10.022  20.464  67.462  0.00  0.00    +0.010 C 
ATOM     28  C   UNL     1      -9.966  19.705  66.163  0.00  0.00    +0.064 C 
ATOM     29  C   UNL     1      -9.822  18.240  66.366  0.00  0.00    +0.122 A 
ATOM     30  N   UNL     1     -10.485  17.440  65.524  0.00  0.00    -0.237 NA
ENDBRANCH  18  21
ENDBRANCH  17  18
ENDBRANCH   1  17
TORSDOF 4
ENDMDL
MODEL 6
REMARK VINA RESULT:      -7.8      2.776      4.565
REMARK  Name = 
REMARK  4 active torsions:
REMARK  status: ('A' for Active; 'I' for Inactive)
REMARK    1  A    between atoms: C_8  and  C_9
REMARK    2  A    between atoms: C_9  and  C_10
REMARK    3  A    between atoms: C_10  and  N_11
REMARK    4  A    between atoms: C_14  and  C_15
REMARK                            x       y       z     vdW  Elec       q    Type
REMARK                         _______ _______ _______ _____ _____    ______ ____
ROOT
ATOM      1  N   UNL     1     -12.053  12.273  67.204  0.00  0.00    -0.272 NA
ATOM      2  C   UNL     1     -11.678  12.600  65.847  0.00  0.00    +0.072 C 
ATOM      3  C   UNL     1     -10.355  13.350  65.941  0.00  0.00    +0.023 C 
ATOM      4  C   UNL     1     -10.704  14.747  66.372  0.00  0.00    +0.046 C 
ATOM      5  C   UNL     1     -11.572  14.661  67.585  0.00  0.00    +0.023 C 
ATOM      6  C   UNL     1     -11.691  13.280  68.160  0.00  0.00    +0.072 C 
ENDROOT
BRANCH   4   7
ATOM      7  C   UNL     1      -9.538  15.628  66.515  0.00  0.00    +0.100 A 
ATOM      8  C   UNL     1      -9.600  17.014  66.463  0.00  0.00    +0.054 A 
ATOM      9  C   UNL     1      -8.546  17.500  67.229  0.00  0.00    +0.179 A 
ATOM     10  C   UNL     1      -8.562  18.816  67.678  0.00  0.00    +0.070 A 
ATOM     11  C   UNL     1      -9.759  19.514  67.640  0.00  0.00    +0.143 A 
ATOM     12  C   UNL     1     -10.627  19.190  66.608  0.00  0.00    +0.030 A 
ATOM     13  F   UNL     1     -10.147  20.351  68.645  0.00  0.00    -0.204 F 
ATOM     14  O   UNL     1      -7.760  16.463  67.408  0.00  0.00    -0.354 OA
ATOM     15  C   UNL     1     -10.537  17.933  66.023  0.00  0.00    +0.007 A 
ATOM     16  N   UNL     1      -8.282  15.378  66.942  0.00  0.00    -0.081 NA
ENDBRANCH   4   7
BRANCH   1  17
ATOM     17  C   UNL     1     -11.292  11.073  67.549  0.00  0.00    +0.077 C 
BRANCH  17  18
ATOM     18  C   UNL     1     -10.774  11.254  68.968  0.00  0.00    +0.050 C 
BRANCH  18  21
ATOM     19  C   UNL     1     -12.798  11.288  71.012  0.00  0.00    +0.052 C 
ATOM     20  C   UNL     1     -11.806  10.196  70.918  0.00  0.00    +0.061 A 
ATOM     21  C   UNL     1     -11.120  10.028  69.727  0.00  0.00    +0.049 A 
ATOM     22  C   UNL     1     -10.202   8.985  69.681  0.00  0.00    +0.259 A 
ATOM     23  O   UNL     1      -9.223   8.986  68.887  0.00  0.00    -0.267 OA
ATOM     24  N   UNL     1     -10.272   8.000  70.605  0.00  0.00    -0.284 N 
ATOM     25  C   UNL     1      -9.757   6.672  70.288  0.00  0.00    +0.110 C 
ATOM     26  C   UNL     1     -10.767   5.676  70.842  0.00  0.00    +0.025 C 
ATOM     27  C   UNL     1     -10.873   5.788  72.338  0.00  0.00    +0.010 C 
ATOM     28  C   UNL     1     -10.906   7.215  72.819  0.00  0.00    +0.064 C 
ATOM     29  C   UNL     1     -11.013   8.189  71.702  0.00  0.00    +0.122 A 
ATOM     30  N   UNL     1     -11.774   9.269  71.906  0.00  0.00    -0.237 NA
ENDBRANCH  18  21
ENDBRANCH  17  18
ENDBRANCH   1  17
TORSDOF 4
ENDMDL
MODEL 7
REMARK VINA RESULT:      -7.7      2.696      4.136
REMARK  Name = 
REMARK  4 active torsions:
REMARK  status: ('A' for Active; 'I' for Inactive)
REMARK    1  A    between atoms: C_8  and  C_9
REMARK    2  A    between atoms: C_9  and  C_10
REMARK    3  A    between atoms: C_10  and  N_11
REMARK    4  A    between atoms: C_14  and  C_15
REMARK                            x       y       z     vdW  Elec       q    Type
REMARK                         _______ _______ _______ _____ _____    ______ ____
ROOT
ATOM      1  N   UNL     1      -9.614  12.466  67.465  0.00  0.00    -0.272 NA
ATOM      2  C   UNL     1      -8.746  13.529  67.919  0.00  0.00    +0.072 C 
ATOM      3  C   UNL     1      -9.554  14.816  67.802  0.00  0.00    +0.023 C 
ATOM      4  C   UNL     1      -9.537  15.181  66.344  0.00  0.00    +0.046 C 
ATOM      5  C   UNL     1      -9.965  13.986  65.555  0.00  0.00    +0.023 C 
ATOM      6  C   UNL     1     -10.483  12.852  66.390  0.00  0.00    +0.072 C 
ENDROOT
BRANCH   4   7
ATOM      7  C   UNL     1     -10.274  16.414  66.037  0.00  0.00    +0.100 A 
ATOM      8  C   UNL     1     -10.218  17.566  66.811  0.00  0.00    +0.054 A 
ATOM      9  C   UNL     1     -10.466  18.639  65.963  0.00  0.00    +0.179 A 
ATOM     10  C   UNL     1     -10.109  19.927  66.349  0.00  0.00    +0.070 A 
ATOM     11  C   UNL     1      -9.228  20.080  67.409  0.00  0.00    +0.143 A 
ATOM     12  C   UNL     1      -9.291  19.117  68.405  0.00  0.00    +0.030 A 
ATOM     13  F   UNL     1      -8.238  21.019  67.403  0.00  0.00    -0.204 F 
ATOM     14  O   UNL     1     -10.959  18.097  64.874  0.00  0.00    -0.354 OA
ATOM     15  C   UNL     1      -9.793  17.860  68.095  0.00  0.00    +0.007 A 
ATOM     16  N   UNL     1     -10.922  16.806  64.921  0.00  0.00    -0.081 NA
ENDBRANCH   4   7
BRANCH   1  17
ATOM     17  C   UNL     1     -10.472  12.139  68.603  0.00  0.00    +0.077 C 
BRANCH  17  18
ATOM     18  C   UNL     1     -11.312  10.933  68.208  0.00  0.00    +0.050 C 
BRANCH  18  21
ATOM     19  C   UNL     1      -9.612   8.810  67.273  0.00  0.00    +0.052 C 
ATOM     20  C   UNL     1     -10.436   8.667  68.490  0.00  0.00    +0.061 A 
ATOM     21  C   UNL     1     -10.924   9.812  69.097  0.00  0.00    +0.049 A 
ATOM     22  C   UNL     1     -11.689   9.630  70.244  0.00  0.00    +0.259 A 
ATOM     23  O   UNL     1     -12.541  10.478  70.624  0.00  0.00    -0.267 OA
ATOM     24  N   UNL     1     -11.625   8.450  70.902  0.00  0.00    -0.284 N 
ATOM     25  C   UNL     1     -11.921   8.401  72.330  0.00  0.00    +0.110 C 
ATOM     26  C   UNL     1     -10.881   7.480  72.953  0.00  0.00    +0.025 C 
ATOM     27  C   UNL     1     -10.998   6.083  72.406  0.00  0.00    +0.010 C 
ATOM     28  C   UNL     1     -11.211   6.053  70.916  0.00  0.00    +0.064 C 
ATOM     29  C   UNL     1     -11.073   7.395  70.293  0.00  0.00    +0.122 A 
ATOM     30  N   UNL     1     -10.489   7.453  69.092  0.00  0.00    -0.237 NA
ENDBRANCH  18  21
ENDBRANCH  17  18
ENDBRANCH   1  17
TORSDOF 4
ENDMDL
MODEL 8
REMARK VINA RESULT:      -7.7      3.910      7.533
REMARK  Name = 
REMARK  4 active torsions:
REMARK  status: ('A' for Active; 'I' for Inactive)
REMARK    1  A    between atoms: C_8  and  C_9
REMARK    2  A    between atoms: C_9  and  C_10
REMARK    3  A    between atoms: C_10  and  N_11
REMARK    4  A    between atoms: C_14  and  C_15
REMARK                            x       y       z     vdW  Elec       q    Type
REMARK                         _______ _______ _______ _____ _____    ______ ____
ROOT
ATOM      1  N   UNL     1     -10.937  16.540  68.169  0.00  0.00    -0.272 NA
ATOM      2  C   UNL     1     -11.806  15.716  68.979  0.00  0.00    +0.072 C 
ATOM      3  C   UNL     1     -11.325  14.282  68.795  0.00  0.00    +0.023 C 
ATOM      4  C   UNL     1     -11.852  13.839  67.459  0.00  0.00    +0.046 C 
ATOM      5  C   UNL     1     -11.472  14.865  66.440  0.00  0.00    +0.023 C 
ATOM      6  C   UNL     1     -10.524  15.912  66.947  0.00  0.00    +0.072 C 
ENDROOT
BRANCH   4   7
ATOM      7  C   UNL     1     -11.486  12.462  67.107  0.00  0.00    +0.100 A 
ATOM      8  C   UNL     1     -11.524  11.953  65.816  0.00  0.00    +0.054 A 
ATOM      9  C   UNL     1     -10.573  10.942  65.746  0.00  0.00    +0.179 A 
ATOM     10  C   UNL     1     -10.111  10.506  64.509  0.00  0.00    +0.070 A 
ATOM     11  C   UNL     1     -10.354  11.296  63.395  0.00  0.00    +0.143 A 
ATOM     12  C   UNL     1     -11.531  12.029  63.406  0.00  0.00    +0.030 A 
ATOM     13  F   UNL     1      -9.421  11.482  62.417  0.00  0.00    -0.204 F 
ATOM     14  O   UNL     1     -10.272  10.682  66.997  0.00  0.00    -0.354 OA
ATOM     15  C   UNL     1     -12.111  12.351  64.627  0.00  0.00    +0.007 A 
ATOM     16  N   UNL     1     -10.843  11.506  67.810  0.00  0.00    -0.081 NA
ENDBRANCH   4   7
BRANCH   1  17
ATOM     17  C   UNL     1      -9.728  16.746  68.966  0.00  0.00    +0.077 C 
BRANCH  17  18
ATOM     18  C   UNL     1      -8.616  17.151  68.010  0.00  0.00    +0.050 C 
BRANCH  18  21
ATOM     19  C   UNL     1      -9.029  19.859  67.131  0.00  0.00    +0.052 C 
ATOM     20  C   UNL     1      -7.846  19.472  67.927  0.00  0.00    +0.061 A 
ATOM     21  C   UNL     1      -7.885  18.281  68.632  0.00  0.00    +0.049 A 
ATOM     22  C   UNL     1      -6.753  17.960  69.373  0.00  0.00    +0.259 A 
ATOM     23  O   UNL     1      -6.462  16.771  69.675  0.00  0.00    -0.267 OA
ATOM     24  N   UNL     1      -5.857  18.930  69.667  0.00  0.00    -0.284 N 
ATOM     25  C   UNL     1      -5.013  18.801  70.851  0.00  0.00    +0.110 C 
ATOM     26  C   UNL     1      -4.971  20.178  71.499  0.00  0.00    +0.025 C 
ATOM     27  C   UNL     1      -4.336  21.189  70.583  0.00  0.00    +0.010 C 
ATOM     28  C   UNL     1      -4.799  21.060  69.156  0.00  0.00    +0.064 C 
ATOM     29  C   UNL     1      -5.915  20.090  69.005  0.00  0.00    +0.122 A 
ATOM     30  N   UNL     1      -6.872  20.393  68.122  0.00  0.00    -0.237 NA
ENDBRANCH  18  21
ENDBRANCH  17  18
ENDBRANCH   1  17
TORSDOF 4
ENDMDL
MODEL 9
REMARK VINA RESULT:      -7.6      3.894      8.161
REMARK  Name = 
REMARK  4 active torsions:
REMARK  status: ('A' for Active; 'I' for Inactive)
REMARK    1  A    between atoms: C_8  and  C_9
REMARK    2  A    between atoms: C_9  and  C_10
REMARK    3  A    between atoms: C_10  and  N_11
REMARK    4  A    between atoms: C_14  and  C_15
REMARK                            x       y       z     vdW  Elec       q    Type
REMARK                         _______ _______ _______ _____ _____    ______ ____
ROOT
ATOM      1  N   UNL     1     -11.334  14.798  67.615  0.00  0.00    -0.272 NA
ATOM      2  C   UNL     1     -12.331  14.416  68.590  0.00  0.00    +0.072 C 
ATOM      3  C   UNL     1     -11.654  13.413  69.517  0.00  0.00    +0.023 C 
ATOM      4  C   UNL     1     -11.629  12.111  68.767  0.00  0.00    +0.046 C 
ATOM      5  C   UNL     1     -11.038  12.358  67.417  0.00  0.00    +0.023 C 
ATOM      6  C   UNL     1     -10.452  13.728  67.244  0.00  0.00    +0.072 C 
ENDROOT
BRANCH   4   7
ATOM      7  C   UNL     1     -11.008  11.011  69.516  0.00  0.00    +0.100 A 
ATOM      8  C   UNL     1     -11.625  10.338  70.562  0.00  0.00    +0.054 A 
ATOM      9  C   UNL     1     -11.091   9.055  70.594  0.00  0.00    +0.179 A 
ATOM     10  C   UNL     1     -11.761   8.039  71.267  0.00  0.00    +0.070 A 
ATOM     11  C   UNL     1     -13.090   8.236  71.610  0.00  0.00    +0.143 A 
ATOM     12  C   UNL     1     -13.463   9.539  71.902  0.00  0.00    +0.030 A 
ATOM     13  F   UNL     1     -14.024   7.247  71.504  0.00  0.00    -0.204 F 
ATOM     14  O   UNL     1     -10.017   9.123  69.842  0.00  0.00    -0.354 OA
ATOM     15  C   UNL     1     -12.719  10.587  71.374  0.00  0.00    +0.007 A 
ATOM     16  N   UNL     1      -9.910  10.271  69.261  0.00  0.00    -0.081 NA
ENDBRANCH   4   7
BRANCH   1  17
ATOM     17  C   UNL     1     -10.510  15.816  68.266  0.00  0.00    +0.077 C 
BRANCH  17  18
ATOM     18  C   UNL     1      -9.635  16.448  67.193  0.00  0.00    +0.050 C 
BRANCH  18  21
ATOM     19  C   UNL     1     -10.551  19.132  66.711  0.00  0.00    +0.052 C 
ATOM     20  C   UNL     1      -9.201  18.854  67.244  0.00  0.00    +0.061 A 
ATOM     21  C   UNL     1      -8.953  17.613  67.805  0.00  0.00    +0.049 A 
ATOM     22  C   UNL     1      -7.672  17.399  68.300  0.00  0.00    +0.259 A 
ATOM     23  O   UNL     1      -7.179  16.244  68.410  0.00  0.00    -0.267 OA
ATOM     24  N   UNL     1      -6.870  18.460  68.544  0.00  0.00    -0.284 N 
ATOM     25  C   UNL     1      -5.812  18.354  69.544  0.00  0.00    +0.110 C 
ATOM     26  C   UNL     1      -5.829  19.659  70.327  0.00  0.00    +0.025 C 
ATOM     27  C   UNL     1      -5.511  20.829  69.437  0.00  0.00    +0.010 C 
ATOM     28  C   UNL     1      -6.210  20.760  68.105  0.00  0.00    +0.064 C 
ATOM     29  C   UNL     1      -7.199  19.654  68.038  0.00  0.00    +0.122 A 
ATOM     30  N   UNL     1      -8.335  19.889  67.373  0.00  0.00    -0.237 NA
ENDBRANCH  18  21
ENDBRANCH  17  18
ENDBRANCH   1  17
TORSDOF 4
ENDMDL
