MODEL 1
REMARK VINA RESULT:      -5.6      0.000      0.000
REMARK  Name = 
REMARK  3 active torsions:
REMARK  status: ('A' for Active; 'I' for Inactive)
REMARK    1  A    between atoms: C_4  and  O_6
REMARK    2  A    between atoms: O_6  and  C_7
REMARK    3  A    between atoms: C_11  and  N_12
REMARK                            x       y       z     vdW  Elec       q    Type
REMARK                         _______ _______ _______ _____ _____    ______ ____
ROOT
ATOM      1  C   UNL     1     -11.737  12.088  68.144  0.00  0.00    +0.156 A 
ATOM      2  C   UNL     1     -11.847  13.390  68.622  0.00  0.00    +0.101 A 
ATOM      3  C   UNL     1     -12.096  13.632  69.967  0.00  0.00    +0.169 A 
ATOM      4  C   UNL     1     -12.419  12.576  70.810  0.00  0.00    +0.063 A 
ATOM      5  C   UNL     1     -12.126  11.314  70.364  0.00  0.00    +0.009 A 
ATOM      6  C   UNL     1     -11.559  11.124  69.130  0.00  0.00    +0.038 A 
ENDROOT
BRANCH   3   7
ATOM      7  N   UNL     1     -12.249  14.941  70.500  0.00  0.00    -0.310 NA
ATOM      8  C   UNL     1     -11.974  15.888  69.423  0.00  0.00    +0.335 C 
ATOM      9  C   UNL     1     -11.333  15.151  71.616  0.00  0.00    +0.335 C 
ATOM     10  C   UNL     1     -13.589  15.184  70.985  0.00  0.00    +0.335 C 
ENDBRANCH   3   7
BRANCH   1  11
ATOM     11  O   UNL     1     -11.922  11.761  66.815  0.00  0.00    -0.410 OA
BRANCH  11  14
ATOM     12  C   UNL     1     -10.418  12.352  63.923  0.00  0.00    +0.118 C 
ATOM     13  N   UNL     1     -10.799  13.135  65.096  0.00  0.00    -0.242 N 
ATOM     14  C   UNL     1     -11.970  12.667  65.779  0.00  0.00    +0.410 C 
ATOM     15  O   UNL     1     -13.025  12.686  65.072  0.00  0.00    -0.226 OA
ATOM     16  C   UNL     1     -10.691  14.584  64.940  0.00  0.00    +0.118 C 
ENDBRANCH  11  14
ENDBRANCH   1  11
TORSDOF 3
ENDMDL
MODEL 2
REMARK VINA RESULT:      -5.5      2.717      5.975
REMARK  Name = 
REMARK  3 active torsions:
REMARK  status: ('A' for Active; 'I' for Inactive)
REMARK    1  A    between atoms: C_4  and  O_6
REMARK    2  A    between atoms: O_6  and  C_7
REMARK    3  A    between atoms: C_11  and  N_12
REMARK                            x       y       z     vdW  Elec       q    Type
REMARK                         _______ _______ _______ _____ _____    ______ ____
ROOT
ATOM      1  C   UNL     1     -11.876  15.678  69.603  0.00  0.00    +0.156 A 
ATOM      2  C   UNL     1     -12.043  14.643  68.690  0.00  0.00    +0.101 A 
ATOM      3  C   UNL     1     -11.225  14.545  67.572  0.00  0.00    +0.169 A 
ATOM      4  C   UNL     1     -10.355  15.583  67.261  0.00  0.00    +0.063 A 
ATOM      5  C   UNL     1     -10.083  16.484  68.256  0.00  0.00    +0.009 A 
ATOM      6  C   UNL     1     -10.669  16.359  69.489  0.00  0.00    +0.038 A 
ENDROOT
BRANCH   3   7
ATOM      7  N   UNL     1     -11.374  13.526  66.592  0.00  0.00    -0.310 NA
ATOM      8  C   UNL     1     -12.497  13.901  65.737  0.00  0.00    +0.335 C 
ATOM      9  C   UNL     1     -11.620  12.236  67.227  0.00  0.00    +0.335 C 
ATOM     10  C   UNL     1     -10.199  13.386  65.762  0.00  0.00    +0.335 C 
ENDBRANCH   3   7
BRANCH   1  11
ATOM     11  O   UNL     1     -12.877  16.086  70.463  0.00  0.00    -0.410 OA
BRANCH  11  14
ATOM     12  C   UNL     1     -12.714  14.905  73.554  0.00  0.00    +0.118 C 
ATOM     13  N   UNL     1     -12.954  14.353  72.223  0.00  0.00    -0.242 N 
ATOM     14  C   UNL     1     -13.584  15.254  71.302  0.00  0.00    +0.410 C 
ATOM     15  O   UNL     1     -14.740  15.638  71.661  0.00  0.00    -0.226 OA
ATOM     16  C   UNL     1     -13.440  12.975  72.197  0.00  0.00    +0.118 C 
ENDBRANCH  11  14
ENDBRANCH   1  11
TORSDOF 3
ENDMDL
MODEL 3
REMARK VINA RESULT:      -5.5      3.378      4.403
REMARK  Name = 
REMARK  3 active torsions:
REMARK  status: ('A' for Active; 'I' for Inactive)
REMARK    1  A    between atoms: C_4  and  O_6
REMARK    2  A    between atoms: O_6  and  C_7
REMARK    3  A    between atoms: C_11  and  N_12
REMARK                            x       y       z     vdW  Elec       q    Type
REMARK                         _______ _______ _______ _____ _____    ______ ____
ROOT
ATOM      1  C   UNL     1     -11.389  15.923  69.250  0.00  0.00    +0.156 A 
ATOM      2  C   UNL     1     -12.213  15.788  70.361  0.00  0.00    +0.101 A 
ATOM      3  C   UNL     1     -12.531  14.530  70.858  0.00  0.00    +0.169 A 
ATOM      4  C   UNL     1     -12.176  13.394  70.140  0.00  0.00    +0.063 A 
ATOM      5  C   UNL     1     -11.224  13.547  69.168  0.00  0.00    +0.009 A 
ATOM      6  C   UNL     1     -10.673  14.778  68.918  0.00  0.00    +0.038 A 
ENDROOT
BRANCH   3   7
ATOM      7  N   UNL     1     -13.393  14.335  71.971  0.00  0.00    -0.310 NA
ATOM      8  C   UNL     1     -13.525  12.894  72.176  0.00  0.00    +0.335 C 
ATOM      9  C   UNL     1     -14.697  14.939  71.724  0.00  0.00    +0.335 C 
ATOM     10  C   UNL     1     -12.866  14.919  73.184  0.00  0.00    +0.335 C 
ENDBRANCH   3   7
BRANCH   1  11
ATOM     11  O   UNL     1     -11.379  17.056  68.460  0.00  0.00    -0.410 OA
BRANCH  11  14
ATOM     12  C   UNL     1     -10.379  19.196  66.137  0.00  0.00    +0.118 C 
ATOM     13  N   UNL     1      -9.857  17.973  66.743  0.00  0.00    -0.242 N 
ATOM     14  C   UNL     1     -10.250  17.761  68.105  0.00  0.00    +0.410 C 
ATOM     15  O   UNL     1      -9.855  18.664  68.906  0.00  0.00    -0.226 OA
ATOM     16  C   UNL     1      -8.463  17.667  66.429  0.00  0.00    +0.118 C 
ENDBRANCH  11  14
ENDBRANCH   1  11
TORSDOF 3
ENDMDL
MODEL 4
REMARK VINA RESULT:      -5.5      1.683      2.751
REMARK  Name = 
REMARK  3 active torsions:
REMARK  status: ('A' for Active; 'I' for Inactive)
REMARK    1  A    between atoms: C_4  and  O_6
REMARK    2  A    between atoms: O_6  and  C_7
REMARK    3  A    between atoms: C_11  and  N_12
REMARK                            x       y       z     vdW  Elec       q    Type
REMARK                         _______ _______ _______ _____ _____    ______ ____
ROOT
ATOM      1  C   UNL     1     -11.473  14.134  68.893  0.00  0.00    +0.156 A 
ATOM      2  C   UNL     1     -12.347  13.855  69.937  0.00  0.00    +0.101 A 
ATOM      3  C   UNL     1     -12.558  14.781  70.951  0.00  0.00    +0.169 A 
ATOM      4  C   UNL     1     -11.760  15.916  71.026  0.00  0.00    +0.063 A 
ATOM      5  C   UNL     1     -11.051  16.251  69.903  0.00  0.00    +0.009 A 
ATOM      6  C   UNL     1     -11.123  15.475  68.775  0.00  0.00    +0.038 A 
ENDROOT
BRANCH   3   7
ATOM      7  N   UNL     1     -13.415  14.533  72.058  0.00  0.00    -0.310 NA
ATOM      8  C   UNL     1     -14.710  15.136  71.752  0.00  0.00    +0.335 C 
ATOM      9  C   UNL     1     -12.857  15.103  73.279  0.00  0.00    +0.335 C 
ATOM     10  C   UNL     1     -13.618  13.120  72.290  0.00  0.00    +0.335 C 
ENDBRANCH   3   7
BRANCH   1  11
ATOM     11  O   UNL     1     -10.894  13.149  68.118  0.00  0.00    -0.410 OA
BRANCH  11  14
ATOM     12  C   UNL     1     -10.281  11.610  65.249  0.00  0.00    +0.118 C 
ATOM     13  N   UNL     1     -11.307  12.512  65.767  0.00  0.00    -0.242 N 
ATOM     14  C   UNL     1     -11.556  12.396  67.174  0.00  0.00    +0.410 C 
ATOM     15  O   UNL     1     -11.978  11.253  67.533  0.00  0.00    -0.226 OA
ATOM     16  C   UNL     1     -12.490  12.661  64.922  0.00  0.00    +0.118 C 
ENDBRANCH  11  14
ENDBRANCH   1  11
TORSDOF 3
ENDMDL
MODEL 5
REMARK VINA RESULT:      -5.4      1.292      1.725
REMARK  Name = 
REMARK  3 active torsions:
REMARK  status: ('A' for Active; 'I' for Inactive)
REMARK    1  A    between atoms: C_4  and  O_6
REMARK    2  A    between atoms: O_6  and  C_7
REMARK    3  A    between atoms: C_11  and  N_12
REMARK                            x       y       z     vdW  Elec       q    Type
REMARK                         _______ _______ _______ _____ _____    ______ ____
ROOT
ATOM      1  C   UNL     1     -11.955  11.809  69.417  0.00  0.00    +0.156 A 
ATOM      2  C   UNL     1     -12.026  13.155  69.760  0.00  0.00    +0.101 A 
ATOM      3  C   UNL     1     -12.542  13.546  70.989  0.00  0.00    +0.169 A 
ATOM      4  C   UNL     1     -13.157  12.608  71.810  0.00  0.00    +0.063 A 
ATOM      5  C   UNL     1     -12.910  11.289  71.537  0.00  0.00    +0.009 A 
ATOM      6  C   UNL     1     -12.106  10.932  70.485  0.00  0.00    +0.038 A 
ENDROOT
BRANCH   3   7
ATOM      7  N   UNL     1     -12.667  14.908  71.376  0.00  0.00    -0.310 NA
ATOM      8  C   UNL     1     -14.087  15.174  71.591  0.00  0.00    +0.335 C 
ATOM      9  C   UNL     1     -12.131  15.787  70.343  0.00  0.00    +0.335 C 
ATOM     10  C   UNL     1     -11.961  15.198  72.604  0.00  0.00    +0.335 C 
ENDBRANCH   3   7
BRANCH   1  11
ATOM     11  O   UNL     1     -11.873  11.374  68.109  0.00  0.00    -0.410 OA
BRANCH  11  14
ATOM     12  C   UNL     1      -9.495  11.405  65.802  0.00  0.00    +0.118 C 
ATOM     13  N   UNL     1     -10.078  12.369  66.733  0.00  0.00    -0.242 N 
ATOM     14  C   UNL     1     -11.459  12.145  67.045  0.00  0.00    +0.410 C 
ATOM     15  O   UNL     1     -12.236  12.215  66.042  0.00  0.00    -0.226 OA
ATOM     16  C   UNL     1      -9.695  13.761  66.510  0.00  0.00    +0.118 C 
ENDBRANCH  11  14
ENDBRANCH   1  11
TORSDOF 3
ENDMDL
MODEL 6
REMARK VINA RESULT:      -5.3      3.868      5.367
REMARK  Name = 
REMARK  3 active torsions:
REMARK  status: ('A' for Active; 'I' for Inactive)
REMARK    1  A    between atoms: C_4  and  O_6
REMARK    2  A    between atoms: O_6  and  C_7
REMARK    3  A    between atoms: C_11  and  N_12
REMARK                            x       y       z     vdW  Elec       q    Type
REMARK                         _______ _______ _______ _____ _____    ______ ____
ROOT
ATOM      1  C   UNL     1     -12.850  11.007  71.391  0.00  0.00    +0.156 A 
ATOM      2  C   UNL     1     -13.261  12.231  71.908  0.00  0.00    +0.101 A 
ATOM      3  C   UNL     1     -12.918  13.419  71.274  0.00  0.00    +0.169 A 
ATOM      4  C   UNL     1     -12.011  13.403  70.222  0.00  0.00    +0.063 A 
ATOM      5  C   UNL     1     -11.773  12.192  69.626  0.00  0.00    +0.009 A 
ATOM      6  C   UNL     1     -12.398  11.058  70.077  0.00  0.00    +0.038 A 
ENDROOT
BRANCH   3   7
ATOM      7  N   UNL     1     -13.285  14.696  71.778  0.00  0.00    -0.310 NA
ATOM      8  C   UNL     1     -12.573  15.699  70.990  0.00  0.00    +0.335 C 
ATOM      9  C   UNL     1     -12.937  14.811  73.190  0.00  0.00    +0.335 C 
ATOM     10  C   UNL     1     -14.703  14.949  71.657  0.00  0.00    +0.335 C 
ENDBRANCH   3   7
BRANCH   1  11
ATOM     11  O   UNL     1     -12.771   9.860  72.155  0.00  0.00    -0.410 OA
BRANCH  11  14
ATOM     12  C   UNL     1     -10.766   7.431  73.183  0.00  0.00    +0.118 C 
ATOM     13  N   UNL     1     -10.944   8.209  71.959  0.00  0.00    -0.242 N 
ATOM     14  C   UNL     1     -12.286   8.649  71.714  0.00  0.00    +0.410 C 
ATOM     15  O   UNL     1     -13.124   7.705  71.573  0.00  0.00    -0.226 OA
ATOM     16  C   UNL     1     -10.215   7.713  70.793  0.00  0.00    +0.118 C 
ENDBRANCH  11  14
ENDBRANCH   1  11
TORSDOF 3
ENDMDL
MODEL 7
REMARK VINA RESULT:      -5.2      3.160      5.547
REMARK  Name = 
REMARK  3 active torsions:
REMARK  status: ('A' for Active; 'I' for Inactive)
REMARK    1  A    between atoms: C_4  and  O_6
REMARK    2  A    between atoms: O_6  and  C_7
REMARK    3  A    between atoms: C_11  and  N_12
REMARK                            x       y       z     vdW  Elec       q    Type
REMARK                         _______ _______ _______ _____ _____    ______ ____
ROOT
ATOM      1  C   UNL     1     -12.893  11.330  71.414  0.00  0.00    +0.156 A 
ATOM      2  C   UNL     1     -12.180  11.679  70.272  0.00  0.00    +0.101 A 
ATOM      3  C   UNL     1     -11.204  10.834  69.760  0.00  0.00    +0.169 A 
ATOM      4  C   UNL     1     -10.806   9.719  70.488  0.00  0.00    +0.063 A 
ATOM      5  C   UNL     1     -11.637   9.306  71.495  0.00  0.00    +0.009 A 
ATOM      6  C   UNL     1     -12.795   9.989  71.768  0.00  0.00    +0.038 A 
ENDROOT
BRANCH   3   7
ATOM      7  N   UNL     1     -10.425  11.158  68.616  0.00  0.00    -0.310 NA
ATOM      8  C   UNL     1     -10.495  12.605  68.434  0.00  0.00    +0.335 C 
ATOM      9  C   UNL     1     -10.933  10.466  67.436  0.00  0.00    +0.335 C 
ATOM     10  C   UNL     1      -9.036  10.787  68.773  0.00  0.00    +0.335 C 
ENDBRANCH   3   7
BRANCH   1  11
ATOM     11  O   UNL     1     -13.537  12.258  72.207  0.00  0.00    -0.410 OA
BRANCH  11  14
ATOM     12  C   UNL     1     -14.987  15.158  71.520  0.00  0.00    +0.118 C 
ATOM     13  N   UNL     1     -13.700  14.526  71.237  0.00  0.00    -0.242 N 
ATOM     14  C   UNL     1     -13.248  13.605  72.239  0.00  0.00    +0.410 C 
ATOM     15  O   UNL     1     -13.060  14.131  73.380  0.00  0.00    -0.226 OA
ATOM     16  C   UNL     1     -12.679  15.411  70.681  0.00  0.00    +0.118 C 
ENDBRANCH  11  14
ENDBRANCH   1  11
TORSDOF 3
ENDMDL
MODEL 8
REMARK VINA RESULT:      -5.2      2.090      5.549
REMARK  Name = 
REMARK  3 active torsions:
REMARK  status: ('A' for Active; 'I' for Inactive)
REMARK    1  A    between atoms: C_4  and  O_6
REMARK    2  A    between atoms: O_6  and  C_7
REMARK    3  A    between atoms: C_11  and  N_12
REMARK                            x       y       z     vdW  Elec       q    Type
REMARK                         _______ _______ _______ _____ _____    ______ ____
ROOT
ATOM      1  C   UNL     1     -11.825  13.203  68.977  0.00  0.00    +0.156 A 
ATOM      2  C   UNL     1     -11.673  13.841  67.751  0.00  0.00    +0.101 A 
ATOM      3  C   UNL     1     -11.320  13.121  66.617  0.00  0.00    +0.169 A 
ATOM      4  C   UNL     1     -10.939  11.790  66.735  0.00  0.00    +0.063 A 
ATOM      5  C   UNL     1     -11.271  11.151  67.900  0.00  0.00    +0.009 A 
ATOM      6  C   UNL     1     -11.932  11.818  68.898  0.00  0.00    +0.038 A 
ENDROOT
BRANCH   3   7
ATOM      7  N   UNL     1     -11.121  13.729  65.347  0.00  0.00    -0.310 NA
ATOM      8  C   UNL     1     -12.414  14.242  64.900  0.00  0.00    +0.335 C 
ATOM      9  C   UNL     1     -10.593  12.763  64.391  0.00  0.00    +0.335 C 
ATOM     10  C   UNL     1     -10.191  14.835  65.407  0.00  0.00    +0.335 C 
ENDBRANCH   3   7
BRANCH   1  11
ATOM     11  O   UNL     1     -11.743  13.870  70.183  0.00  0.00    -0.410 OA
BRANCH  11  14
ATOM     12  C   UNL     1     -12.937  15.052  73.039  0.00  0.00    +0.118 C 
ATOM     13  N   UNL     1     -13.495  14.598  71.767  0.00  0.00    -0.242 N 
ATOM     14  C   UNL     1     -12.648  14.808  70.629  0.00  0.00    +0.410 C 
ATOM     15  O   UNL     1     -12.380  16.028  70.400  0.00  0.00    -0.226 OA
ATOM     16  C   UNL     1     -14.912  14.891  71.567  0.00  0.00    +0.118 C 
ENDBRANCH  11  14
ENDBRANCH   1  11
TORSDOF 3
ENDMDL
MODEL 9
REMARK VINA RESULT:      -5.1      2.594      3.977
REMARK  Name = 
REMARK  3 active torsions:
REMARK  status: ('A' for Active; 'I' for Inactive)
REMARK    1  A    between atoms: C_4  and  O_6
REMARK    2  A    between atoms: O_6  and  C_7
REMARK    3  A    between atoms: C_11  and  N_12
REMARK                            x       y       z     vdW  Elec       q    Type
REMARK                         _______ _______ _______ _____ _____    ______ ____
ROOT
ATOM      1  C   UNL     1     -11.671  14.742  67.119  0.00  0.00    +0.156 A 
ATOM      2  C   UNL     1     -10.653  15.583  66.685  0.00  0.00    +0.101 A 
ATOM      3  C   UNL     1     -10.099  16.526  67.542  0.00  0.00    +0.169 A 
ATOM      4  C   UNL     1     -10.682  16.759  68.781  0.00  0.00    +0.063 A 
ATOM      5  C   UNL     1     -11.550  15.807  69.247  0.00  0.00    +0.009 A 
ATOM      6  C   UNL     1     -11.830  14.692  68.500  0.00  0.00    +0.038 A 
ENDROOT
BRANCH   3   7
ATOM      7  N   UNL     1      -9.079  17.431  67.139  0.00  0.00    -0.310 NA
ATOM      8  C   UNL     1      -9.725  18.533  66.432  0.00  0.00    +0.335 C 
ATOM      9  C   UNL     1      -8.111  16.763  66.276  0.00  0.00    +0.335 C 
ATOM     10  C   UNL     1      -8.354  17.978  68.265  0.00  0.00    +0.335 C 
ENDBRANCH   3   7
BRANCH   1  11
ATOM     11  O   UNL     1     -12.540  14.110  66.252  0.00  0.00    -0.410 OA
BRANCH  11  14
ATOM     12  C   UNL     1     -10.332  12.770  64.177  0.00  0.00    +0.118 C 
ATOM     13  N   UNL     1     -11.788  12.822  64.282  0.00  0.00    -0.242 N 
ATOM     14  C   UNL     1     -12.293  12.911  65.621  0.00  0.00    +0.410 C 
ATOM     15  O   UNL     1     -11.992  11.920  66.356  0.00  0.00    -0.226 OA
ATOM     16  C   UNL     1     -12.510  11.918  63.389  0.00  0.00    +0.118 C 
ENDBRANCH  11  14
ENDBRANCH   1  11
TORSDOF 3
ENDMDL
