MODEL 1
REMARK VINA RESULT:      -6.4      0.000      0.000
REMARK  Name = 
REMARK  6 active torsions:
REMARK  status: ('A' for Active; 'I' for Inactive)
REMARK    1  A    between atoms: C_2  and  C_3
REMARK    2  A    between atoms: C_3  and  N_4
REMARK    3  A    between atoms: N_4  and  C_5
REMARK    4  A    between atoms: N_4  and  C_12
REMARK    5  A    between atoms: C_5  and  C_6
REMARK    6  A    between atoms: C_6  and  C_7
REMARK                            x       y       z     vdW  Elec       q    Type
REMARK                         _______ _______ _______ _____ _____    ______ ____
ROOT
ATOM      1  N   UNL     1     -10.404  15.201  68.075  0.00  0.00    -0.273 NA
ENDROOT
BRANCH   1   2
ATOM      2  C   UNL     1      -9.291  14.305  67.375  0.00  0.00    +0.062 C 
ATOM      3  C   UNL     1     -10.260  12.958  67.343  0.00  0.00    +0.042 C 
ATOM      4  C   UNL     1     -10.332  12.513  65.941  0.00  0.00    -0.022 A 
ATOM      5  C   UNL     1     -11.321  13.262  65.294  0.00  0.00    +0.013 A 
ATOM      6  C   UNL     1     -11.670  12.990  63.976  0.00  0.00    +0.191 A 
ATOM      7  C   UNL     1     -11.225  11.802  63.465  0.00  0.00    +0.042 A 
ATOM      8  C   UNL     1     -10.289  11.019  64.128  0.00  0.00    +0.003 A 
ATOM      9  O   UNL     1     -12.636  13.796  63.429  0.00  0.00    -0.287 OA
ATOM     10  C   UNL     1     -11.225  14.681  65.788  0.00  0.00    +0.031 C 
ATOM     11  C   UNL     1      -9.954  11.299  65.448  0.00  0.00    -0.004 A 
ATOM     12  C   UNL     1      -9.732  14.864  65.873  0.00  0.00    +0.021 C 
ENDBRANCH   1   2
BRANCH   1  13
ATOM     13  C   UNL     1      -9.525  16.213  68.663  0.00  0.00    +0.072 C 
BRANCH  13  15
ATOM     14  C   UNL     1     -10.266  17.806  68.280  0.00  0.00    +0.001 C 
ATOM     15  C   UNL     1     -10.012  17.602  68.330  0.00  0.00    +0.017 C 
ENDBRANCH  13  15
ENDBRANCH   1  13
BRANCH   1  16
ATOM     16  C   UNL     1     -10.866  14.426  69.209  0.00  0.00    +0.077 C 
BRANCH  16  17
ATOM     17  C   UNL     1     -12.291  14.904  69.393  0.00  0.00    +0.050 C 
BRANCH  17  18
ATOM     18  C   UNL     1     -12.612  15.224  70.788  0.00  0.00    +0.009 A 
ATOM     19  S   UNL     1     -14.043  15.144  71.728  0.00  0.00    -0.091 S 
ATOM     20  C   UNL     1     -13.464  15.860  73.177  0.00  0.00    +0.035 A 
ATOM     21  C   UNL     1     -12.097  15.837  72.919  0.00  0.00    +0.007 A 
ATOM     22  C   UNL     1     -11.835  16.048  71.594  0.00  0.00    +0.003 A 
ENDBRANCH  17  18
ENDBRANCH  16  17
ENDBRANCH   1  16
TORSDOF 6
ENDMDL
MODEL 2
REMARK VINA RESULT:      -5.9      2.160      4.842
REMARK  Name = 
REMARK  6 active torsions:
REMARK  status: ('A' for Active; 'I' for Inactive)
REMARK    1  A    between atoms: C_2  and  C_3
REMARK    2  A    between atoms: C_3  and  N_4
REMARK    3  A    between atoms: N_4  and  C_5
REMARK    4  A    between atoms: N_4  and  C_12
REMARK    5  A    between atoms: C_5  and  C_6
REMARK    6  A    between atoms: C_6  and  C_7
REMARK                            x       y       z     vdW  Elec       q    Type
REMARK                         _______ _______ _______ _____ _____    ______ ____
ROOT
ATOM      1  N   UNL     1     -10.752  14.669  67.991  0.00  0.00    -0.273 NA
ENDROOT
BRANCH   1   2
ATOM      2  C   UNL     1     -11.529  16.030  67.714  0.00  0.00    +0.062 C 
ATOM      3  C   UNL     1     -10.502  16.921  68.667  0.00  0.00    +0.042 C 
ATOM      4  C   UNL     1      -9.970  18.008  67.827  0.00  0.00    -0.022 A 
ATOM      5  C   UNL     1      -8.887  17.508  67.096  0.00  0.00    +0.013 A 
ATOM      6  C   UNL     1      -8.132  18.345  66.284  0.00  0.00    +0.191 A 
ATOM      7  C   UNL     1      -8.312  19.688  66.465  0.00  0.00    +0.042 A 
ATOM      8  C   UNL     1      -9.347  20.195  67.240  0.00  0.00    +0.003 A 
ATOM      9  O   UNL     1      -7.105  17.750  65.594  0.00  0.00    -0.287 OA
ATOM     10  C   UNL     1      -9.233  16.110  66.654  0.00  0.00    +0.031 C 
ATOM     11  C   UNL     1     -10.091  19.348  68.052  0.00  0.00    -0.004 A 
ATOM     12  C   UNL     1     -10.688  16.264  66.299  0.00  0.00    +0.021 C 
ENDBRANCH   1   2
BRANCH   1  13
ATOM     13  C   UNL     1     -11.829  13.736  67.654  0.00  0.00    +0.072 C 
BRANCH  13  15
ATOM     14  C   UNL     1     -11.448  12.592  66.320  0.00  0.00    +0.001 C 
ATOM     15  C   UNL     1     -11.378  12.760  66.595  0.00  0.00    +0.017 C 
ENDBRANCH  13  15
ENDBRANCH   1  13
BRANCH   1  16
ATOM     16  C   UNL     1     -10.637  14.577  69.433  0.00  0.00    +0.077 C 
BRANCH  16  17
ATOM     17  C   UNL     1     -11.997  14.056  69.852  0.00  0.00    +0.050 C 
BRANCH  17  18
ATOM     18  C   UNL     1     -12.489  14.673  71.089  0.00  0.00    +0.009 A 
ATOM     19  S   UNL     1     -14.050  14.962  71.734  0.00  0.00    -0.091 S 
ATOM     20  C   UNL     1     -13.611  15.855  73.133  0.00  0.00    +0.035 A 
ATOM     21  C   UNL     1     -12.243  15.602  73.153  0.00  0.00    +0.007 A 
ATOM     22  C   UNL     1     -11.732  15.523  71.887  0.00  0.00    +0.003 A 
ENDBRANCH  17  18
ENDBRANCH  16  17
ENDBRANCH   1  16
TORSDOF 6
ENDMDL
MODEL 3
REMARK VINA RESULT:      -5.5      2.996      6.299
REMARK  Name = 
REMARK  6 active torsions:
REMARK  status: ('A' for Active; 'I' for Inactive)
REMARK    1  A    between atoms: C_2  and  C_3
REMARK    2  A    between atoms: C_3  and  N_4
REMARK    3  A    between atoms: N_4  and  C_5
REMARK    4  A    between atoms: N_4  and  C_12
REMARK    5  A    between atoms: C_5  and  C_6
REMARK    6  A    between atoms: C_6  and  C_7
REMARK                            x       y       z     vdW  Elec       q    Type
REMARK                         _______ _______ _______ _____ _____    ______ ____
ROOT
ATOM      1  N   UNL     1     -11.403  14.589  68.357  0.00  0.00    -0.273 NA
ENDROOT
BRANCH   1   2
ATOM      2  C   UNL     1      -9.838  14.520  68.082  0.00  0.00    +0.062 C 
ATOM      3  C   UNL     1      -9.930  15.518  66.758  0.00  0.00    +0.042 C 
ATOM      4  C   UNL     1      -9.007  16.641  67.001  0.00  0.00    -0.022 A 
ATOM      5  C   UNL     1      -9.671  17.591  67.786  0.00  0.00    +0.013 A 
ATOM      6  C   UNL     1      -9.066  18.804  68.093  0.00  0.00    +0.191 A 
ATOM      7  C   UNL     1      -7.955  19.129  67.366  0.00  0.00    +0.042 A 
ATOM      8  C   UNL     1      -7.325  18.212  66.535  0.00  0.00    +0.003 A 
ATOM      9  O   UNL     1      -9.794  19.656  68.887  0.00  0.00    -0.287 OA
ATOM     10  C   UNL     1     -10.487  16.853  68.814  0.00  0.00    +0.031 C 
ATOM     11  C   UNL     1      -7.943  17.004  66.231  0.00  0.00    -0.004 A 
ATOM     12  C   UNL     1      -9.553  15.731  69.185  0.00  0.00    +0.021 C 
ENDBRANCH   1   2
BRANCH   1  13
ATOM     13  C   UNL     1     -11.519  13.418  69.229  0.00  0.00    +0.072 C 
BRANCH  13  15
ATOM     14  C   UNL     1     -12.320  13.895  70.766  0.00  0.00    +0.001 C 
ATOM     15  C   UNL     1     -12.311  13.752  70.470  0.00  0.00    +0.017 C 
ENDBRANCH  13  15
ENDBRANCH   1  13
BRANCH   1  16
ATOM     16  C   UNL     1     -12.031  14.176  67.118  0.00  0.00    +0.077 C 
BRANCH  16  17
ATOM     17  C   UNL     1     -11.772  12.684  67.084  0.00  0.00    +0.050 C 
BRANCH  17  18
ATOM     18  C   UNL     1     -11.482  12.185  65.735  0.00  0.00    +0.009 A 
ATOM     19  S   UNL     1     -10.298  11.128  65.087  0.00  0.00    -0.091 S 
ATOM     20  C   UNL     1     -10.673  11.281  63.419  0.00  0.00    +0.035 A 
ATOM     21  C   UNL     1     -11.904  11.923  63.513  0.00  0.00    +0.007 A 
ATOM     22  C   UNL     1     -11.934  12.791  64.569  0.00  0.00    +0.003 A 
ENDBRANCH  17  18
ENDBRANCH  16  17
ENDBRANCH   1  16
TORSDOF 6
ENDMDL
MODEL 4
REMARK VINA RESULT:      -5.5      2.490      5.066
REMARK  Name = 
REMARK  6 active torsions:
REMARK  status: ('A' for Active; 'I' for Inactive)
REMARK    1  A    between atoms: C_2  and  C_3
REMARK    2  A    between atoms: C_3  and  N_4
REMARK    3  A    between atoms: N_4  and  C_5
REMARK    4  A    between atoms: N_4  and  C_12
REMARK    5  A    between atoms: C_5  and  C_6
REMARK    6  A    between atoms: C_6  and  C_7
REMARK                            x       y       z     vdW  Elec       q    Type
REMARK                         _______ _______ _______ _____ _____    ______ ____
ROOT
ATOM      1  N   UNL     1     -11.016  14.152  67.815  0.00  0.00    -0.273 NA
ENDROOT
BRANCH   1   2
ATOM      2  C   UNL     1     -10.642  15.395  66.895  0.00  0.00    +0.062 C 
ATOM      3  C   UNL     1     -10.630  16.457  68.171  0.00  0.00    +0.042 C 
ATOM      4  C   UNL     1      -9.308  17.108  68.176  0.00  0.00    -0.022 A 
ATOM      5  C   UNL     1      -8.408  16.268  68.842  0.00  0.00    +0.013 A 
ATOM      6  C   UNL     1      -7.100  16.674  69.078  0.00  0.00    +0.191 A 
ATOM      7  C   UNL     1      -6.836  18.004  68.897  0.00  0.00    +0.042 A 
ATOM      8  C   UNL     1      -7.748  18.860  68.293  0.00  0.00    +0.003 A 
ATOM      9  O   UNL     1      -6.294  15.768  69.720  0.00  0.00    -0.287 OA
ATOM     10  C   UNL     1      -8.715  14.849  68.442  0.00  0.00    +0.031 C 
ATOM     11  C   UNL     1      -9.055  18.444  68.069  0.00  0.00    -0.004 A 
ATOM     12  C   UNL     1      -9.025  15.016  66.977  0.00  0.00    +0.021 C 
ENDBRANCH   1   2
BRANCH   1  13
ATOM     13  C   UNL     1     -11.630  13.305  66.790  0.00  0.00    +0.072 C 
BRANCH  13  15
ATOM     14  C   UNL     1     -11.133  11.581  66.915  0.00  0.00    +0.001 C 
ATOM     15  C   UNL     1     -11.286  11.853  67.021  0.00  0.00    +0.017 C 
ENDBRANCH  13  15
ENDBRANCH   1  13
BRANCH   1  16
ATOM     16  C   UNL     1     -12.132  14.595  68.627  0.00  0.00    +0.077 C 
BRANCH  16  17
ATOM     17  C   UNL     1     -11.967  13.794  69.902  0.00  0.00    +0.050 C 
BRANCH  17  18
ATOM     18  C   UNL     1     -12.408  14.522  71.096  0.00  0.00    +0.009 A 
ATOM     19  S   UNL     1     -13.910  14.673  71.909  0.00  0.00    -0.091 S 
ATOM     20  C   UNL     1     -13.469  15.838  73.091  0.00  0.00    +0.035 A 
ATOM     21  C   UNL     1     -12.085  15.802  72.951  0.00  0.00    +0.007 A 
ATOM     22  C   UNL     1     -11.720  15.595  71.650  0.00  0.00    +0.003 A 
ENDBRANCH  17  18
ENDBRANCH  16  17
ENDBRANCH   1  16
TORSDOF 6
ENDMDL
MODEL 5
REMARK VINA RESULT:      -5.4      2.474      5.851
REMARK  Name = 
REMARK  6 active torsions:
REMARK  status: ('A' for Active; 'I' for Inactive)
REMARK    1  A    between atoms: C_2  and  C_3
REMARK    2  A    between atoms: C_3  and  N_4
REMARK    3  A    between atoms: N_4  and  C_5
REMARK    4  A    between atoms: N_4  and  C_12
REMARK    5  A    between atoms: C_5  and  C_6
REMARK    6  A    between atoms: C_6  and  C_7
REMARK                            x       y       z     vdW  Elec       q    Type
REMARK                         _______ _______ _______ _____ _____    ______ ____
ROOT
ATOM      1  N   UNL     1      -9.773  15.927  67.582  0.00  0.00    -0.273 NA
ENDROOT
BRANCH   1   2
ATOM      2  C   UNL     1     -10.093  16.429  69.057  0.00  0.00    +0.062 C 
ATOM      3  C   UNL     1     -11.721  16.145  68.903  0.00  0.00    +0.042 C 
ATOM      4  C   UNL     1     -12.108  15.247  70.006  0.00  0.00    -0.022 A 
ATOM      5  C   UNL     1     -11.823  13.932  69.621  0.00  0.00    +0.013 A 
ATOM      6  C   UNL     1     -12.172  12.863  70.437  0.00  0.00    +0.191 A 
ATOM      7  C   UNL     1     -13.044  13.136  71.454  0.00  0.00    +0.042 A 
ATOM      8  C   UNL     1     -13.382  14.437  71.804  0.00  0.00    +0.003 A 
ATOM      9  O   UNL     1     -11.829  11.616  69.976  0.00  0.00    -0.287 OA
ATOM     10  C   UNL     1     -10.512  13.940  68.879  0.00  0.00    +0.031 C 
ATOM     11  C   UNL     1     -13.032  15.497  70.976  0.00  0.00    -0.004 A 
ATOM     12  C   UNL     1      -9.721  14.936  69.686  0.00  0.00    +0.021 C 
ENDBRANCH   1   2
BRANCH   1  13
ATOM     13  C   UNL     1      -8.496  16.618  67.393  0.00  0.00    +0.072 C 
BRANCH  13  15
ATOM     14  C   UNL     1      -7.055  15.560  67.200  0.00  0.00    +0.001 C 
ATOM     15  C   UNL     1      -7.377  15.626  67.186  0.00  0.00    +0.017 C 
ENDBRANCH  13  15
ENDBRANCH   1  13
BRANCH   1  16
ATOM     16  C   UNL     1     -10.696  16.641  66.723  0.00  0.00    +0.077 C 
BRANCH  16  17
ATOM     17  C   UNL     1     -10.403  16.066  65.352  0.00  0.00    +0.050 C 
BRANCH  17  18
ATOM     18  C   UNL     1     -11.028  14.757  65.135  0.00  0.00    +0.009 A 
ATOM     19  S   UNL     1     -12.513  14.053  65.622  0.00  0.00    -0.091 S 
ATOM     20  C   UNL     1     -12.277  12.463  65.018  0.00  0.00    +0.035 A 
ATOM     21  C   UNL     1     -11.168  12.683  64.208  0.00  0.00    +0.007 A 
ATOM     22  C   UNL     1     -10.331  13.618  64.750  0.00  0.00    +0.003 A 
ENDBRANCH  17  18
ENDBRANCH  16  17
ENDBRANCH   1  16
TORSDOF 6
ENDMDL
MODEL 6
REMARK VINA RESULT:      -5.4      2.462      4.224
REMARK  Name = 
REMARK  6 active torsions:
REMARK  status: ('A' for Active; 'I' for Inactive)
REMARK    1  A    between atoms: C_2  and  C_3
REMARK    2  A    between atoms: C_3  and  N_4
REMARK    3  A    between atoms: N_4  and  C_5
REMARK    4  A    between atoms: N_4  and  C_12
REMARK    5  A    between atoms: C_5  and  C_6
REMARK    6  A    between atoms: C_6  and  C_7
REMARK                            x       y       z     vdW  Elec       q    Type
REMARK                         _______ _______ _______ _____ _____    ______ ____
ROOT
ATOM      1  N   UNL     1     -10.815  14.377  68.573  0.00  0.00    -0.273 NA
ENDROOT
BRANCH   1   2
ATOM      2  C   UNL     1     -11.636  14.359  67.211  0.00  0.00    +0.062 C 
ATOM      3  C   UNL     1     -10.273  14.159  66.283  0.00  0.00    +0.042 C 
ATOM      4  C   UNL     1     -10.481  12.948  65.470  0.00  0.00    -0.022 A 
ATOM      5  C   UNL     1     -10.138  11.835  66.246  0.00  0.00    +0.013 A 
ATOM      6  C   UNL     1     -10.150  10.557  65.699  0.00  0.00    +0.191 A 
ATOM      7  C   UNL     1     -10.220  10.483  64.336  0.00  0.00    +0.042 A 
ATOM      8  C   UNL     1     -10.498  11.594  63.551  0.00  0.00    +0.003 A 
ATOM      9  O   UNL     1      -9.817   9.534  66.551  0.00  0.00    -0.287 OA
ATOM     10  C   UNL     1     -10.631  12.078  67.648  0.00  0.00    +0.031 C 
ATOM     11  C   UNL     1     -10.477  12.867  64.109  0.00  0.00    -0.004 A 
ATOM     12  C   UNL     1     -11.959  12.738  67.384  0.00  0.00    +0.021 C 
ENDBRANCH   1   2
BRANCH   1  13
ATOM     13  C   UNL     1     -11.843  14.964  69.434  0.00  0.00    +0.072 C 
BRANCH  13  15
ATOM     14  C   UNL     1     -12.289  14.014  70.895  0.00  0.00    +0.001 C 
ATOM     15  C   UNL     1     -12.096  14.090  70.638  0.00  0.00    +0.017 C 
ENDBRANCH  13  15
ENDBRANCH   1  13
BRANCH   1  16
ATOM     16  C   UNL     1      -9.833  15.432  68.419  0.00  0.00    +0.077 C 
BRANCH  16  17
ATOM     17  C   UNL     1     -10.653  16.692  68.602  0.00  0.00    +0.050 C 
BRANCH  17  18
ATOM     18  C   UNL     1     -10.080  17.852  67.911  0.00  0.00    +0.009 A 
ATOM     19  S   UNL     1      -9.070  18.039  66.538  0.00  0.00    -0.091 S 
ATOM     20  C   UNL     1      -8.827  19.738  66.603  0.00  0.00    +0.035 A 
ATOM     21  C   UNL     1      -9.807  20.080  67.529  0.00  0.00    +0.007 A 
ATOM     22  C   UNL     1      -9.951  19.112  68.484  0.00  0.00    +0.003 A 
ENDBRANCH  17  18
ENDBRANCH  16  17
ENDBRANCH   1  16
TORSDOF 6
ENDMDL
MODEL 7
REMARK VINA RESULT:      -5.4      3.054      6.339
REMARK  Name = 
REMARK  6 active torsions:
REMARK  status: ('A' for Active; 'I' for Inactive)
REMARK    1  A    between atoms: C_2  and  C_3
REMARK    2  A    between atoms: C_3  and  N_4
REMARK    3  A    between atoms: N_4  and  C_5
REMARK    4  A    between atoms: N_4  and  C_12
REMARK    5  A    between atoms: C_5  and  C_6
REMARK    6  A    between atoms: C_6  and  C_7
REMARK                            x       y       z     vdW  Elec       q    Type
REMARK                         _______ _______ _______ _____ _____    ______ ____
ROOT
ATOM      1  N   UNL     1     -11.175  13.100  65.887  0.00  0.00    -0.273 NA
ENDROOT
BRANCH   1   2
ATOM      2  C   UNL     1     -12.010  14.332  66.449  0.00  0.00    +0.062 C 
ATOM      3  C   UNL     1     -11.001  14.545  67.750  0.00  0.00    +0.042 C 
ATOM      4  C   UNL     1     -10.529  15.940  67.705  0.00  0.00    -0.022 A 
ATOM      5  C   UNL     1      -9.442  16.007  66.827  0.00  0.00    +0.013 A 
ATOM      6  C   UNL     1      -8.736  17.192  66.660  0.00  0.00    +0.191 A 
ATOM      7  C   UNL     1      -8.965  18.170  67.588  0.00  0.00    +0.042 A 
ATOM      8  C   UNL     1     -10.004  18.085  68.506  0.00  0.00    +0.003 A 
ATOM      9  O   UNL     1      -7.700  17.156  65.760  0.00  0.00    -0.287 OA
ATOM     10  C   UNL     1      -9.741  15.115  65.650  0.00  0.00    +0.031 C 
ATOM     11  C   UNL     1     -10.698  16.891  68.667  0.00  0.00    -0.004 A 
ATOM     12  C   UNL     1     -11.208  15.383  65.441  0.00  0.00    +0.021 C 
ENDBRANCH   1   2
BRANCH   1  13
ATOM     13  C   UNL     1     -12.244  12.444  65.131  0.00  0.00    +0.072 C 
BRANCH  13  15
ATOM     14  C   UNL     1     -11.957  12.231  63.369  0.00  0.00    +0.001 C 
ATOM     15  C   UNL     1     -11.870  12.321  63.674  0.00  0.00    +0.017 C 
ENDBRANCH  13  15
ENDBRANCH   1  13
BRANCH   1  16
ATOM     16  C   UNL     1     -10.957  12.231  67.026  0.00  0.00    +0.077 C 
BRANCH  16  17
ATOM     17  C   UNL     1      -9.956  11.223  66.501  0.00  0.00    +0.050 C 
BRANCH  17  18
ATOM     18  C   UNL     1     -10.140   9.884  67.070  0.00  0.00    +0.009 A 
ATOM     19  S   UNL     1     -10.196   9.269  68.670  0.00  0.00    -0.091 S 
ATOM     20  C   UNL     1     -10.295   7.591  68.318  0.00  0.00    +0.035 A 
ATOM     21  C   UNL     1     -10.581   7.653  66.958  0.00  0.00    +0.007 A 
ATOM     22  C   UNL     1      -9.944   8.704  66.361  0.00  0.00    +0.003 A 
ENDBRANCH  17  18
ENDBRANCH  16  17
ENDBRANCH   1  16
TORSDOF 6
ENDMDL
MODEL 8
REMARK VINA RESULT:      -5.4      3.081      4.989
REMARK  Name = 
REMARK  6 active torsions:
REMARK  status: ('A' for Active; 'I' for Inactive)
REMARK    1  A    between atoms: C_2  and  C_3
REMARK    2  A    between atoms: C_3  and  N_4
REMARK    3  A    between atoms: N_4  and  C_5
REMARK    4  A    between atoms: N_4  and  C_12
REMARK    5  A    between atoms: C_5  and  C_6
REMARK    6  A    between atoms: C_6  and  C_7
REMARK                            x       y       z     vdW  Elec       q    Type
REMARK                         _______ _______ _______ _____ _____    ______ ____
ROOT
ATOM      1  N   UNL     1     -10.741  12.441  65.794  0.00  0.00    -0.273 NA
ENDROOT
BRANCH   1   2
ATOM      2  C   UNL     1      -9.432  11.547  65.929  0.00  0.00    +0.062 C 
ATOM      3  C   UNL     1      -9.039  12.177  67.414  0.00  0.00    +0.042 C 
ATOM      4  C   UNL     1      -8.918  11.042  68.345  0.00  0.00    -0.022 A 
ATOM      5  C   UNL     1     -10.198  10.713  68.804  0.00  0.00    +0.013 A 
ATOM      6  C   UNL     1     -10.375   9.730  69.771  0.00  0.00    +0.191 A 
ATOM      7  C   UNL     1      -9.252   9.331  70.441  0.00  0.00    +0.042 A 
ATOM      8  C   UNL     1      -7.978   9.704  70.032  0.00  0.00    +0.003 A 
ATOM      9  O   UNL     1     -11.672   9.469  70.135  0.00  0.00    -0.287 OA
ATOM     10  C   UNL     1     -11.151  10.832  67.643  0.00  0.00    +0.031 C 
ATOM     11  C   UNL     1      -7.815  10.692  69.067  0.00  0.00    -0.004 A 
ATOM     12  C   UNL     1     -10.320  10.271  66.519  0.00  0.00    +0.021 C 
ENDBRANCH   1   2
BRANCH   1  13
ATOM     13  C   UNL     1     -10.771  12.557  64.335  0.00  0.00    +0.072 C 
BRANCH  13  15
ATOM     14  C   UNL     1     -12.296  12.050  63.530  0.00  0.00    +0.001 C 
ATOM     15  C   UNL     1     -12.111  12.126  63.792  0.00  0.00    +0.017 C 
ENDBRANCH  13  15
ENDBRANCH   1  13
BRANCH   1  16
ATOM     16  C   UNL     1     -10.355  13.761  66.250  0.00  0.00    +0.077 C 
BRANCH  16  17
ATOM     17  C   UNL     1     -11.678  14.391  66.635  0.00  0.00    +0.050 C 
BRANCH  17  18
ATOM     18  C   UNL     1     -11.693  14.894  68.013  0.00  0.00    +0.009 A 
ATOM     19  S   UNL     1     -11.104  16.317  68.766  0.00  0.00    -0.091 S 
ATOM     20  C   UNL     1     -11.458  15.931  70.402  0.00  0.00    +0.035 A 
ATOM     21  C   UNL     1     -12.291  14.834  70.209  0.00  0.00    +0.007 A 
ATOM     22  C   UNL     1     -11.898  14.092  69.130  0.00  0.00    +0.003 A 
ENDBRANCH  17  18
ENDBRANCH  16  17
ENDBRANCH   1  16
TORSDOF 6
ENDMDL
MODEL 9
REMARK VINA RESULT:      -5.4      3.306      6.093
REMARK  Name = 
REMARK  6 active torsions:
REMARK  status: ('A' for Active; 'I' for Inactive)
REMARK    1  A    between atoms: C_2  and  C_3
REMARK    2  A    between atoms: C_3  and  N_4
REMARK    3  A    between atoms: N_4  and  C_5
REMARK    4  A    between atoms: N_4  and  C_12
REMARK    5  A    between atoms: C_5  and  C_6
REMARK    6  A    between atoms: C_6  and  C_7
REMARK                            x       y       z     vdW  Elec       q    Type
REMARK                         _______ _______ _______ _____ _____    ______ ____
ROOT
ATOM      1  N   UNL     1     -11.453  13.086  65.937  0.00  0.00    -0.273 NA
ENDROOT
BRANCH   1   2
ATOM      2  C   UNL     1     -12.153  14.470  66.288  0.00  0.00    +0.062 C 
ATOM      3  C   UNL     1     -11.357  14.614  67.738  0.00  0.00    +0.042 C 
ATOM      4  C   UNL     1     -10.658  15.911  67.718  0.00  0.00    -0.022 A 
ATOM      5  C   UNL     1      -9.442  15.743  67.047  0.00  0.00    +0.013 A 
ATOM      6  C   UNL     1      -8.530  16.788  66.958  0.00  0.00    +0.191 A 
ATOM      7  C   UNL     1      -8.746  17.853  67.788  0.00  0.00    +0.042 A 
ATOM      8  C   UNL     1      -9.925  17.998  68.508  0.00  0.00    +0.003 A 
ATOM      9  O   UNL     1      -7.378  16.525  66.260  0.00  0.00    -0.287 OA
ATOM     10  C   UNL     1      -9.682  14.828  65.875  0.00  0.00    +0.031 C 
ATOM     11  C   UNL     1     -10.826  16.942  68.594  0.00  0.00    -0.004 A 
ATOM     12  C   UNL     1     -11.027  15.308  65.396  0.00  0.00    +0.021 C 
ENDBRANCH   1   2
BRANCH   1  13
ATOM     13  C   UNL     1     -12.429  12.593  64.963  0.00  0.00    +0.072 C 
BRANCH  13  15
ATOM     14  C   UNL     1     -11.720  12.124  63.379  0.00  0.00    +0.001 C 
ATOM     15  C   UNL     1     -11.770  12.330  63.631  0.00  0.00    +0.017 C 
ENDBRANCH  13  15
ENDBRANCH   1  13
BRANCH   1  16
ATOM     16  C   UNL     1     -11.654  12.246  67.101  0.00  0.00    +0.077 C 
BRANCH  16  17
ATOM     17  C   UNL     1     -10.798  11.033  66.800  0.00  0.00    +0.050 C 
BRANCH  17  18
ATOM     18  C   UNL     1      -9.361  11.312  66.883  0.00  0.00    +0.009 A 
ATOM     19  S   UNL     1      -7.985  10.726  66.045  0.00  0.00    -0.091 S 
ATOM     20  C   UNL     1      -6.755  11.523  66.940  0.00  0.00    +0.035 A 
ATOM     21  C   UNL     1      -7.533  12.435  67.646  0.00  0.00    +0.007 A 
ATOM     22  C   UNL     1      -8.746  11.902  67.982  0.00  0.00    +0.003 A 
ENDBRANCH  17  18
ENDBRANCH  16  17
ENDBRANCH   1  16
TORSDOF 6
ENDMDL
