MODEL 1
REMARK VINA RESULT:      -5.1      0.000      0.000
REMARK  Name = 
REMARK  2 active torsions:
REMARK  status: ('A' for Active; 'I' for Inactive)
REMARK    1  A    between atoms: C_2  and  C_5
REMARK    2  A    between atoms: C_5  and  C_8
REMARK                            x       y       z     vdW  Elec       q    Type
REMARK                         _______ _______ _______ _____ _____    ______ ____
ROOT
ATOM      1  C   UNL     1     -13.287  15.266  72.702  0.00  0.00    +0.434 C 
ATOM      2  F   UNL     1     -14.187  16.236  73.131  0.00  0.00    -0.186 F 
ATOM      3  F   UNL     1     -12.869  14.560  73.825  0.00  0.00    -0.186 F 
ENDROOT
BRANCH   1   5
ATOM      4  F   UNL     1     -15.178  14.793  71.290  0.00  0.00    -0.165 F 
ATOM      5  C   UNL     1     -14.008  14.287  71.832  0.00  0.00    +0.463 C 
ATOM      6  F   UNL     1     -13.183  13.760  70.862  0.00  0.00    -0.165 F 
ATOM      7  F   UNL     1     -14.397  13.231  72.653  0.00  0.00    -0.165 F 
ENDBRANCH   1   5
BRANCH   1   8
ATOM      8  C   UNL     1     -12.126  15.948  72.043  0.00  0.00    +0.463 C 
ATOM      9  F   UNL     1     -11.067  15.045  72.063  0.00  0.00    -0.165 F 
ATOM     10  F   UNL     1     -11.704  17.036  72.802  0.00  0.00    -0.165 F 
ATOM     11  F   UNL     1     -12.354  16.277  70.731  0.00  0.00    -0.165 F 
ENDBRANCH   1   8
TORSDOF 2
ENDMDL
MODEL 2
REMARK VINA RESULT:      -5.1      0.035      3.106
REMARK  Name = 
REMARK  2 active torsions:
REMARK  status: ('A' for Active; 'I' for Inactive)
REMARK    1  A    between atoms: C_2  and  C_5
REMARK    2  A    between atoms: C_5  and  C_8
REMARK                            x       y       z     vdW  Elec       q    Type
REMARK                         _______ _______ _______ _____ _____    ______ ____
ROOT
ATOM      1  C   UNL     1     -13.286  15.250  72.729  0.00  0.00    +0.434 C 
ATOM      2  F   UNL     1     -12.823  14.566  73.848  0.00  0.00    -0.186 F 
ATOM      3  F   UNL     1     -14.142  16.251  73.177  0.00  0.00    -0.186 F 
ENDROOT
BRANCH   1   5
ATOM      4  F   UNL     1     -12.373  16.268  70.748  0.00  0.00    -0.165 F 
ATOM      5  C   UNL     1     -12.134  15.942  72.073  0.00  0.00    +0.463 C 
ATOM      6  F   UNL     1     -11.714  17.035  72.800  0.00  0.00    -0.165 F 
ATOM      7  F   UNL     1     -11.078  15.034  72.055  0.00  0.00    -0.165 F 
ENDBRANCH   1   5
BRANCH   1   8
ATOM      8  C   UNL     1     -14.018  14.284  71.846  0.00  0.00    +0.463 C 
ATOM      9  F   UNL     1     -14.404  13.217  72.653  0.00  0.00    -0.165 F 
ATOM     10  F   UNL     1     -13.157  13.743  70.896  0.00  0.00    -0.165 F 
ATOM     11  F   UNL     1     -15.159  14.805  71.289  0.00  0.00    -0.165 F 
ENDBRANCH   1   8
TORSDOF 2
ENDMDL
MODEL 3
REMARK VINA RESULT:      -5.1      0.261      3.220
REMARK  Name = 
REMARK  2 active torsions:
REMARK  status: ('A' for Active; 'I' for Inactive)
REMARK    1  A    between atoms: C_2  and  C_5
REMARK    2  A    between atoms: C_5  and  C_8
REMARK                            x       y       z     vdW  Elec       q    Type
REMARK                         _______ _______ _______ _____ _____    ______ ____
ROOT
ATOM      1  C   UNL     1     -13.310  15.194  72.754  0.00  0.00    +0.434 C 
ATOM      2  F   UNL     1     -12.867  14.696  73.975  0.00  0.00    -0.186 F 
ATOM      3  F   UNL     1     -14.202  16.226  73.025  0.00  0.00    -0.186 F 
ENDROOT
BRANCH   1   5
ATOM      4  F   UNL     1     -11.042  14.989  71.975  0.00  0.00    -0.165 F 
ATOM      5  C   UNL     1     -12.154  15.813  72.035  0.00  0.00    +0.463 C 
ATOM      6  F   UNL     1     -12.516  16.276  70.789  0.00  0.00    -0.165 F 
ATOM      7  F   UNL     1     -11.763  16.921  72.783  0.00  0.00    -0.165 F 
ENDBRANCH   1   5
BRANCH   1   8
ATOM      8  C   UNL     1     -13.991  14.089  72.004  0.00  0.00    +0.463 C 
ATOM      9  F   UNL     1     -13.281  13.911  70.820  0.00  0.00    -0.165 F 
ATOM     10  F   UNL     1     -15.271  14.476  71.619  0.00  0.00    -0.165 F 
ATOM     11  F   UNL     1     -13.980  12.887  72.667  0.00  0.00    -0.165 F 
ENDBRANCH   1   8
TORSDOF 2
ENDMDL
MODEL 4
REMARK VINA RESULT:      -5.1      0.745      2.291
REMARK  Name = 
REMARK  2 active torsions:
REMARK  status: ('A' for Active; 'I' for Inactive)
REMARK    1  A    between atoms: C_2  and  C_5
REMARK    2  A    between atoms: C_5  and  C_8
REMARK                            x       y       z     vdW  Elec       q    Type
REMARK                         _______ _______ _______ _____ _____    ______ ____
ROOT
ATOM      1  C   UNL     1     -13.369  15.528  72.301  0.00  0.00    +0.434 C 
ATOM      2  F   UNL     1     -13.045  16.155  71.102  0.00  0.00    -0.186 F 
ATOM      3  F   UNL     1     -14.454  16.207  72.846  0.00  0.00    -0.186 F 
ENDROOT
BRANCH   1   5
ATOM      4  F   UNL     1     -13.411  13.208  72.940  0.00  0.00    -0.165 F 
ATOM      5  C   UNL     1     -13.842  14.140  72.010  0.00  0.00    +0.463 C 
ATOM      6  F   UNL     1     -15.208  14.092  71.835  0.00  0.00    -0.165 F 
ATOM      7  F   UNL     1     -13.264  13.764  70.801  0.00  0.00    -0.165 F 
ENDBRANCH   1   5
BRANCH   1   8
ATOM      8  C   UNL     1     -12.184  15.604  73.216  0.00  0.00    +0.463 C 
ATOM      9  F   UNL     1     -11.810  16.943  73.277  0.00  0.00    -0.165 F 
ATOM     10  F   UNL     1     -11.095  14.936  72.662  0.00  0.00    -0.165 F 
ATOM     11  F   UNL     1     -12.453  15.199  74.500  0.00  0.00    -0.165 F 
ENDBRANCH   1   8
TORSDOF 2
ENDMDL
MODEL 5
REMARK VINA RESULT:      -4.8      0.821      3.314
REMARK  Name = 
REMARK  2 active torsions:
REMARK  status: ('A' for Active; 'I' for Inactive)
REMARK    1  A    between atoms: C_2  and  C_5
REMARK    2  A    between atoms: C_5  and  C_8
REMARK                            x       y       z     vdW  Elec       q    Type
REMARK                         _______ _______ _______ _____ _____    ______ ____
ROOT
ATOM      1  C   UNL     1     -13.006  15.108  71.290  0.00  0.00    +0.434 C 
ATOM      2  F   UNL     1     -13.026  15.912  70.155  0.00  0.00    -0.186 F 
ATOM      3  F   UNL     1     -12.742  13.807  70.874  0.00  0.00    -0.186 F 
ENDROOT
BRANCH   1   5
ATOM      4  F   UNL     1     -11.740  16.888  72.299  0.00  0.00    -0.165 F 
ATOM      5  C   UNL     1     -11.855  15.516  72.154  0.00  0.00    +0.463 C 
ATOM      6  F   UNL     1     -11.878  14.873  73.372  0.00  0.00    -0.165 F 
ATOM      7  F   UNL     1     -10.697  15.106  71.499  0.00  0.00    -0.165 F 
ENDBRANCH   1   5
BRANCH   1   8
ATOM      8  C   UNL     1     -14.346  15.188  71.958  0.00  0.00    +0.463 C 
ATOM      9  F   UNL     1     -14.594  13.935  72.511  0.00  0.00    -0.165 F 
ATOM     10  F   UNL     1     -15.350  15.387  71.014  0.00  0.00    -0.165 F 
ATOM     11  F   UNL     1     -14.396  16.101  72.982  0.00  0.00    -0.165 F 
ENDBRANCH   1   8
TORSDOF 2
ENDMDL
MODEL 6
REMARK VINA RESULT:      -4.8      0.737      2.557
REMARK  Name = 
REMARK  2 active torsions:
REMARK  status: ('A' for Active; 'I' for Inactive)
REMARK    1  A    between atoms: C_2  and  C_5
REMARK    2  A    between atoms: C_5  and  C_8
REMARK                            x       y       z     vdW  Elec       q    Type
REMARK                         _______ _______ _______ _____ _____    ______ ____
ROOT
ATOM      1  C   UNL     1     -12.362  15.266  71.964  0.00  0.00    +0.434 C 
ATOM      2  F   UNL     1     -11.026  14.895  71.857  0.00  0.00    -0.186 F 
ATOM      3  F   UNL     1     -12.619  16.191  70.957  0.00  0.00    -0.186 F 
ENDROOT
BRANCH   1   5
ATOM      4  F   UNL     1     -12.684  13.236  70.711  0.00  0.00    -0.165 F 
ATOM      5  C   UNL     1     -13.220  14.076  71.673  0.00  0.00    +0.463 C 
ATOM      6  F   UNL     1     -13.552  13.392  72.822  0.00  0.00    -0.165 F 
ATOM      7  F   UNL     1     -14.408  14.561  71.131  0.00  0.00    -0.165 F 
ENDBRANCH   1   5
BRANCH   1   8
ATOM      8  C   UNL     1     -12.583  15.878  73.315  0.00  0.00    +0.463 C 
ATOM      9  F   UNL     1     -13.929  16.228  73.381  0.00  0.00    -0.165 F 
ATOM     10  F   UNL     1     -11.879  17.074  73.429  0.00  0.00    -0.165 F 
ATOM     11  F   UNL     1     -12.336  15.018  74.355  0.00  0.00    -0.165 F 
ENDBRANCH   1   8
TORSDOF 2
ENDMDL
MODEL 7
REMARK VINA RESULT:      -4.7      1.025      2.721
REMARK  Name = 
REMARK  2 active torsions:
REMARK  status: ('A' for Active; 'I' for Inactive)
REMARK    1  A    between atoms: C_2  and  C_5
REMARK    2  A    between atoms: C_5  and  C_8
REMARK                            x       y       z     vdW  Elec       q    Type
REMARK                         _______ _______ _______ _____ _____    ______ ____
ROOT
ATOM      1  C   UNL     1     -12.064  15.584  72.138  0.00  0.00    +0.434 C 
ATOM      2  F   UNL     1     -10.861  14.886  72.147  0.00  0.00    -0.186 F 
ATOM      3  F   UNL     1     -11.760  16.938  72.244  0.00  0.00    -0.186 F 
ENDROOT
BRANCH   1   5
ATOM      4  F   UNL     1     -14.098  15.536  70.852  0.00  0.00    -0.165 F 
ATOM      5  C   UNL     1     -12.720  15.402  70.807  0.00  0.00    +0.463 C 
ATOM      6  F   UNL     1     -12.159  16.214  69.845  0.00  0.00    -0.165 F 
ATOM      7  F   UNL     1     -12.481  14.086  70.418  0.00  0.00    -0.165 F 
ENDBRANCH   1   5
BRANCH   1   8
ATOM      8  C   UNL     1     -12.888  15.134  73.306  0.00  0.00    +0.463 C 
ATOM      9  F   UNL     1     -13.854  16.113  73.516  0.00  0.00    -0.165 F 
ATOM     10  F   UNL     1     -12.119  15.112  74.466  0.00  0.00    -0.165 F 
ATOM     11  F   UNL     1     -13.550  13.951  73.089  0.00  0.00    -0.165 F 
ENDBRANCH   1   8
TORSDOF 2
ENDMDL
MODEL 8
REMARK VINA RESULT:      -4.6      0.908      2.708
REMARK  Name = 
REMARK  2 active torsions:
REMARK  status: ('A' for Active; 'I' for Inactive)
REMARK    1  A    between atoms: C_2  and  C_5
REMARK    2  A    between atoms: C_5  and  C_8
REMARK                            x       y       z     vdW  Elec       q    Type
REMARK                         _______ _______ _______ _____ _____    ______ ____
ROOT
ATOM      1  C   UNL     1     -13.360  14.734  71.940  0.00  0.00    +0.434 C 
ATOM      2  F   UNL     1     -13.306  13.447  72.463  0.00  0.00    -0.186 F 
ATOM      3  F   UNL     1     -14.666  14.957  71.517  0.00  0.00    -0.186 F 
ENDROOT
BRANCH   1   5
ATOM      4  F   UNL     1     -12.799  15.113  74.250  0.00  0.00    -0.165 F 
ATOM      5  C   UNL     1     -13.099  15.715  73.039  0.00  0.00    +0.463 C 
ATOM      6  F   UNL     1     -12.146  16.643  72.680  0.00  0.00    -0.165 F 
ATOM      7  F   UNL     1     -14.287  16.411  73.246  0.00  0.00    -0.165 F 
ENDBRANCH   1   5
BRANCH   1   8
ATOM      8  C   UNL     1     -12.407  14.823  70.786  0.00  0.00    +0.463 C 
ATOM      9  F   UNL     1     -12.594  13.674  70.023  0.00  0.00    -0.165 F 
ATOM     10  F   UNL     1     -11.091  14.766  71.234  0.00  0.00    -0.165 F 
ATOM     11  F   UNL     1     -12.639  15.897  69.964  0.00  0.00    -0.165 F 
ENDBRANCH   1   8
TORSDOF 2
ENDMDL
MODEL 9
REMARK VINA RESULT:      -4.5      0.956      2.402
REMARK  Name = 
REMARK  2 active torsions:
REMARK  status: ('A' for Active; 'I' for Inactive)
REMARK    1  A    between atoms: C_2  and  C_5
REMARK    2  A    between atoms: C_5  and  C_8
REMARK                            x       y       z     vdW  Elec       q    Type
REMARK                         _______ _______ _______ _____ _____    ______ ____
ROOT
ATOM      1  C   UNL     1     -13.343  14.742  71.743  0.00  0.00    +0.434 C 
ATOM      2  F   UNL     1     -14.621  14.912  71.223  0.00  0.00    -0.186 F 
ATOM      3  F   UNL     1     -13.253  13.433  72.206  0.00  0.00    -0.186 F 
ENDROOT
BRANCH   1   5
ATOM      4  F   UNL     1     -12.544  15.988  69.845  0.00  0.00    -0.165 F 
ATOM      5  C   UNL     1     -12.348  14.866  70.634  0.00  0.00    +0.463 C 
ATOM      6  F   UNL     1     -11.052  14.788  71.098  0.00  0.00    -0.165 F 
ATOM      7  F   UNL     1     -12.545  13.774  69.793  0.00  0.00    -0.165 F 
ENDBRANCH   1   5
BRANCH   1   8
ATOM      8  C   UNL     1     -13.149  15.716  72.866  0.00  0.00    +0.463 C 
ATOM      9  F   UNL     1     -12.835  14.966  73.997  0.00  0.00    -0.165 F 
ATOM     10  F   UNL     1     -14.345  16.361  73.166  0.00  0.00    -0.165 F 
ATOM     11  F   UNL     1     -12.113  16.592  72.661  0.00  0.00    -0.165 F 
ENDBRANCH   1   8
TORSDOF 2
ENDMDL
