MODEL 1
REMARK VINA RESULT:      -8.0      0.000      0.000
REMARK  Name = 
REMARK  1 active torsions:
REMARK  status: ('A' for Active; 'I' for Inactive)
REMARK    1  A    between atoms: C_12  and  C_13
REMARK                            x       y       z     vdW  Elec       q    Type
REMARK                         _______ _______ _______ _____ _____    ______ ____
ROOT
ATOM      1  C   UNL     1     -11.803  13.623  64.181  0.00  0.00    +0.306 C 
ATOM      2  N   UNL     1     -11.999  14.496  65.335  0.00  0.00    -0.024 NA
ATOM      3  C   UNL     1     -11.577  14.025  66.621  0.00  0.00    +0.419 C 
ATOM      4  C   UNL     1     -11.069  15.030  67.592  0.00  0.00    +0.450 C 
ATOM      5  N   UNL     1     -11.723  14.935  68.875  0.00  0.00    -0.172 N 
ATOM      6  O   UNL     1     -12.379  16.097  69.243  0.00  0.00    -0.623 OA
ATOM      7  C   UNL     1     -11.952  13.917  69.650  0.00  0.00    +0.235 C 
ATOM      8  C   UNL     1     -11.908  12.502  69.252  0.00  0.00    +0.108 A 
ATOM      9  C   UNL     1     -11.717  11.958  67.988  0.00  0.00    +0.199 A 
ATOM     10  C   UNL     1     -11.252  10.664  67.823  0.00  0.00    +0.048 A 
ATOM     11  C   UNL     1     -11.121   9.905  68.978  0.00  0.00    +0.015 A 
ATOM     12  C   UNL     1     -11.421  10.413  70.215  0.00  0.00    +0.058 A 
ATOM     13 CL   UNL     1     -11.448   9.366  71.608  0.00  0.00    -0.082 Cl
ATOM     14  C   UNL     1     -11.883  11.709  70.366  0.00  0.00    +0.021 A 
ATOM     15  N   UNL     1     -11.622  12.736  66.795  0.00  0.00    -0.034 NA
ENDROOT
BRANCH   7  16
ATOM     16  C   UNL     1     -12.355  14.236  71.011  0.00  0.00    +0.064 A 
ATOM     17  C   UNL     1     -11.527  15.103  71.711  0.00  0.00    +0.006 A 
ATOM     18  C   UNL     1     -11.986  15.859  72.757  0.00  0.00    +0.000 A 
ATOM     19  C   UNL     1     -13.348  15.939  73.006  0.00  0.00    +0.000 A 
ATOM     20  C   UNL     1     -14.203  15.092  72.333  0.00  0.00    +0.000 A 
ATOM     21  C   UNL     1     -13.711  14.408  71.231  0.00  0.00    +0.006 A 
ENDBRANCH   7  16
TORSDOF 1
ENDMDL
MODEL 2
REMARK VINA RESULT:      -7.3      3.365      4.879
REMARK  Name = 
REMARK  1 active torsions:
REMARK  status: ('A' for Active; 'I' for Inactive)
REMARK    1  A    between atoms: C_12  and  C_13
REMARK                            x       y       z     vdW  Elec       q    Type
REMARK                         _______ _______ _______ _____ _____    ______ ____
ROOT
ATOM      1  C   UNL     1     -11.867  12.089  64.832  0.00  0.00    +0.306 C 
ATOM      2  N   UNL     1     -11.154  13.362  64.761  0.00  0.00    -0.024 NA
ATOM      3  C   UNL     1     -10.731  13.972  65.985  0.00  0.00    +0.419 C 
ATOM      4  C   UNL     1      -9.467  14.754  65.966  0.00  0.00    +0.450 C 
ATOM      5  N   UNL     1      -9.629  16.077  66.522  0.00  0.00    -0.172 N 
ATOM      6  O   UNL     1      -9.325  17.088  65.626  0.00  0.00    -0.623 OA
ATOM      7  C   UNL     1     -10.169  16.482  67.632  0.00  0.00    +0.235 C 
ATOM      8  C   UNL     1     -11.090  15.708  68.478  0.00  0.00    +0.108 A 
ATOM      9  C   UNL     1     -11.646  14.456  68.242  0.00  0.00    +0.199 A 
ATOM     10  C   UNL     1     -12.110  13.666  69.279  0.00  0.00    +0.048 A 
ATOM     11  C   UNL     1     -12.114  14.247  70.541  0.00  0.00    +0.015 A 
ATOM     12  C   UNL     1     -11.669  15.526  70.750  0.00  0.00    +0.058 A 
ATOM     13 CL   UNL     1     -11.890  16.288  72.301  0.00  0.00    -0.082 Cl
ATOM     14  C   UNL     1     -11.206  16.305  69.702  0.00  0.00    +0.021 A 
ATOM     15  N   UNL     1     -11.473  13.727  67.026  0.00  0.00    -0.034 NA
ENDROOT
BRANCH   7  16
ATOM     16  C   UNL     1      -9.877  17.855  68.014  0.00  0.00    +0.064 A 
ATOM     17  C   UNL     1      -8.552  18.141  68.314  0.00  0.00    +0.006 A 
ATOM     18  C   UNL     1      -8.041  19.408  68.210  0.00  0.00    +0.000 A 
ATOM     19  C   UNL     1      -8.784  20.404  67.592  0.00  0.00    +0.000 A 
ATOM     20  C   UNL     1     -10.104  20.159  67.281  0.00  0.00    +0.000 A 
ATOM     21  C   UNL     1     -10.553  18.848  67.324  0.00  0.00    +0.006 A 
ENDBRANCH   7  16
TORSDOF 1
ENDMDL
MODEL 3
REMARK VINA RESULT:      -7.0      3.093      6.478
REMARK  Name = 
REMARK  1 active torsions:
REMARK  status: ('A' for Active; 'I' for Inactive)
REMARK    1  A    between atoms: C_12  and  C_13
REMARK                            x       y       z     vdW  Elec       q    Type
REMARK                         _______ _______ _______ _____ _____    ______ ____
ROOT
ATOM      1  C   UNL     1     -13.413  13.304  72.500  0.00  0.00    +0.306 C 
ATOM      2  N   UNL     1     -13.185  12.511  71.295  0.00  0.00    -0.024 NA
ATOM      3  C   UNL     1     -12.234  12.992  70.338  0.00  0.00    +0.419 C 
ATOM      4  C   UNL     1     -11.452  11.982  69.574  0.00  0.00    +0.450 C 
ATOM      5  N   UNL     1     -11.508  12.206  68.149  0.00  0.00    -0.172 N 
ATOM      6  O   UNL     1     -12.045  11.140  67.447  0.00  0.00    -0.623 OA
ATOM      7  C   UNL     1     -11.314  13.278  67.439  0.00  0.00    +0.235 C 
ATOM      8  C   UNL     1     -11.324  14.660  67.940  0.00  0.00    +0.108 A 
ATOM      9  C   UNL     1     -11.629  15.122  69.215  0.00  0.00    +0.199 A 
ATOM     10  C   UNL     1     -11.173  16.348  69.666  0.00  0.00    +0.048 A 
ATOM     11  C   UNL     1     -10.515  17.140  68.733  0.00  0.00    +0.015 A 
ATOM     12  C   UNL     1     -10.317  16.725  67.442  0.00  0.00    +0.058 A 
ATOM     13 CL   UNL     1      -9.683  17.831  66.254  0.00  0.00    -0.082 Cl
ATOM     14  C   UNL     1     -10.779  15.495  67.005  0.00  0.00    +0.021 A 
ATOM     15  N   UNL     1     -12.098  14.284  70.272  0.00  0.00    -0.034 NA
ENDROOT
BRANCH   7  16
ATOM     16  C   UNL     1     -11.144  13.066  66.010  0.00  0.00    +0.064 A 
ATOM     17  C   UNL     1     -10.111  12.219  65.631  0.00  0.00    +0.006 A 
ATOM     18  C   UNL     1     -10.121  11.552  64.434  0.00  0.00    +0.000 A 
ATOM     19  C   UNL     1     -11.272  11.540  63.660  0.00  0.00    +0.000 A 
ATOM     20  C   UNL     1     -12.317  12.371  64.002  0.00  0.00    +0.000 A 
ATOM     21  C   UNL     1     -12.301  12.960  65.257  0.00  0.00    +0.006 A 
ENDBRANCH   7  16
TORSDOF 1
ENDMDL
MODEL 4
REMARK VINA RESULT:      -6.9      3.006      4.427
REMARK  Name = 
REMARK  1 active torsions:
REMARK  status: ('A' for Active; 'I' for Inactive)
REMARK    1  A    between atoms: C_12  and  C_13
REMARK                            x       y       z     vdW  Elec       q    Type
REMARK                         _______ _______ _______ _____ _____    ______ ____
ROOT
ATOM      1  C   UNL     1      -8.783  11.015  66.163  0.00  0.00    +0.306 C 
ATOM      2  N   UNL     1      -9.648  11.186  67.327  0.00  0.00    -0.024 NA
ATOM      3  C   UNL     1     -10.359  12.421  67.468  0.00  0.00    +0.419 C 
ATOM      4  C   UNL     1     -11.701  12.377  68.108  0.00  0.00    +0.450 C 
ATOM      5  N   UNL     1     -11.829  13.328  69.186  0.00  0.00    -0.172 N 
ATOM      6  O   UNL     1     -12.116  12.739  70.405  0.00  0.00    -0.623 OA
ATOM      7  C   UNL     1     -11.552  14.597  69.250  0.00  0.00    +0.235 C 
ATOM      8  C   UNL     1     -10.689  15.340  68.320  0.00  0.00    +0.108 A 
ATOM      9  C   UNL     1      -9.927  14.857  67.264  0.00  0.00    +0.199 A 
ATOM     10  C   UNL     1      -9.539  15.679  66.219  0.00  0.00    +0.048 A 
ATOM     11  C   UNL     1      -9.837  17.028  66.355  0.00  0.00    +0.015 A 
ATOM     12  C   UNL     1     -10.490  17.518  67.456  0.00  0.00    +0.058 A 
ATOM     13 CL   UNL     1     -10.652  19.238  67.685  0.00  0.00    -0.082 Cl
ATOM     14  C   UNL     1     -10.873  16.684  68.493  0.00  0.00    +0.021 A 
ATOM     15  N   UNL     1      -9.781  13.470  66.959  0.00  0.00    -0.034 NA
ENDROOT
BRANCH   7  16
ATOM     16  C   UNL     1     -12.101  15.307  70.394  0.00  0.00    +0.064 A 
ATOM     17  C   UNL     1     -13.474  15.210  70.579  0.00  0.00    +0.006 A 
ATOM     18  C   UNL     1     -14.056  15.386  71.806  0.00  0.00    +0.000 A 
ATOM     19  C   UNL     1     -13.264  15.451  72.943  0.00  0.00    +0.000 A 
ATOM     20  C   UNL     1     -11.896  15.552  72.801  0.00  0.00    +0.000 A 
ATOM     21  C   UNL     1     -11.347  15.287  71.556  0.00  0.00    +0.006 A 
ENDBRANCH   7  16
TORSDOF 1
ENDMDL
MODEL 5
REMARK VINA RESULT:      -6.6      2.160      4.255
REMARK  Name = 
REMARK  1 active torsions:
REMARK  status: ('A' for Active; 'I' for Inactive)
REMARK    1  A    between atoms: C_12  and  C_13
REMARK                            x       y       z     vdW  Elec       q    Type
REMARK                         _______ _______ _______ _____ _____    ______ ____
ROOT
ATOM      1  C   UNL     1     -10.164  16.200  65.347  0.00  0.00    +0.306 C 
ATOM      2  N   UNL     1     -10.291  14.753  65.494  0.00  0.00    -0.024 NA
ATOM      3  C   UNL     1     -11.145  14.248  66.527  0.00  0.00    +0.419 C 
ATOM      4  C   UNL     1     -11.866  12.974  66.267  0.00  0.00    +0.450 C 
ATOM      5  N   UNL     1     -11.678  12.009  67.324  0.00  0.00    -0.172 N 
ATOM      6  O   UNL     1     -11.091  10.831  66.893  0.00  0.00    -0.623 OA
ATOM      7  C   UNL     1     -11.793  12.114  68.615  0.00  0.00    +0.235 C 
ATOM      8  C   UNL     1     -11.812  13.370  69.380  0.00  0.00    +0.108 A 
ATOM      9  C   UNL     1     -11.619  14.669  68.927  0.00  0.00    +0.199 A 
ATOM     10  C   UNL     1     -12.100  15.758  69.634  0.00  0.00    +0.048 A 
ATOM     11  C   UNL     1     -12.661  15.486  70.876  0.00  0.00    +0.015 A 
ATOM     12  C   UNL     1     -12.745  14.210  71.368  0.00  0.00    +0.058 A 
ATOM     13 CL   UNL     1     -13.255  13.937  73.012  0.00  0.00    -0.082 Cl
ATOM     14  C   UNL     1     -12.260  13.130  70.649  0.00  0.00    +0.021 A 
ATOM     15  N   UNL     1     -11.259  14.997  67.585  0.00  0.00    -0.034 NA
ENDROOT
BRANCH   7  16
ATOM     16  C   UNL     1     -11.835  10.860  69.350  0.00  0.00    +0.064 A 
ATOM     17  C   UNL     1     -10.627  10.406  69.861  0.00  0.00    +0.006 A 
ATOM     18  C   UNL     1     -10.565   9.560  70.937  0.00  0.00    +0.000 A 
ATOM     19  C   UNL     1     -11.708   9.307  71.682  0.00  0.00    +0.000 A 
ATOM     20  C   UNL     1     -12.927   9.739  71.206  0.00  0.00    +0.000 A 
ATOM     21  C   UNL     1     -12.935  10.657  70.167  0.00  0.00    +0.006 A 
ENDBRANCH   7  16
TORSDOF 1
ENDMDL
MODEL 6
REMARK VINA RESULT:      -6.6      2.561      5.624
REMARK  Name = 
REMARK  1 active torsions:
REMARK  status: ('A' for Active; 'I' for Inactive)
REMARK    1  A    between atoms: C_12  and  C_13
REMARK                            x       y       z     vdW  Elec       q    Type
REMARK                         _______ _______ _______ _____ _____    ______ ____
ROOT
ATOM      1  C   UNL     1      -8.436  19.301  68.675  0.00  0.00    +0.306 C 
ATOM      2  N   UNL     1      -8.725  18.411  67.554  0.00  0.00    -0.024 NA
ATOM      3  C   UNL     1      -9.777  17.451  67.705  0.00  0.00    +0.419 C 
ATOM      4  C   UNL     1     -10.568  17.097  66.496  0.00  0.00    +0.450 C 
ATOM      5  N   UNL     1     -10.645  15.671  66.286  0.00  0.00    -0.172 N 
ATOM      6  O   UNL     1     -10.115  15.266  65.072  0.00  0.00    -0.623 OA
ATOM      7  C   UNL     1     -10.953  14.698  67.092  0.00  0.00    +0.235 C 
ATOM      8  C   UNL     1     -10.970  14.767  68.561  0.00  0.00    +0.108 A 
ATOM      9  C   UNL     1     -10.583  15.814  69.388  0.00  0.00    +0.199 A 
ATOM     10  C   UNL     1     -11.062  15.925  70.682  0.00  0.00    +0.048 A 
ATOM     11  C   UNL     1     -11.836  14.869  71.145  0.00  0.00    +0.015 A 
ATOM     12  C   UNL     1     -12.121  13.782  70.360  0.00  0.00    +0.058 A 
ATOM     13 CL   UNL     1     -12.909  12.388  71.045  0.00  0.00    -0.082 Cl
ATOM     14  C   UNL     1     -11.635  13.685  69.066  0.00  0.00    +0.021 A 
ATOM     15  N   UNL     1      -9.984  17.020  68.915  0.00  0.00    -0.034 NA
ENDROOT
BRANCH   7  16
ATOM     16  C   UNL     1     -11.232  13.418  66.461  0.00  0.00    +0.064 A 
ATOM     17  C   UNL     1     -12.307  13.387  65.582  0.00  0.00    +0.006 A 
ATOM     18  C   UNL     1     -12.400  12.456  64.581  0.00  0.00    +0.000 A 
ATOM     19  C   UNL     1     -11.310  11.651  64.284  0.00  0.00    +0.000 A 
ATOM     20  C   UNL     1     -10.225  11.652  65.134  0.00  0.00    +0.000 A 
ATOM     21  C   UNL     1     -10.136  12.662  66.079  0.00  0.00    +0.006 A 
ENDBRANCH   7  16
TORSDOF 1
ENDMDL
MODEL 7
REMARK VINA RESULT:      -6.5      2.871      4.336
REMARK  Name = 
REMARK  1 active torsions:
REMARK  status: ('A' for Active; 'I' for Inactive)
REMARK    1  A    between atoms: C_12  and  C_13
REMARK                            x       y       z     vdW  Elec       q    Type
REMARK                         _______ _______ _______ _____ _____    ______ ____
ROOT
ATOM      1  C   UNL     1     -10.653   7.673  70.211  0.00  0.00    +0.306 C 
ATOM      2  N   UNL     1     -11.318   8.673  71.042  0.00  0.00    -0.024 NA
ATOM      3  C   UNL     1     -11.810   9.861  70.410  0.00  0.00    +0.419 C 
ATOM      4  C   UNL     1     -13.045  10.477  70.965  0.00  0.00    +0.450 C 
ATOM      5  N   UNL     1     -12.882  11.885  71.239  0.00  0.00    -0.172 N 
ATOM      6  O   UNL     1     -13.087  12.212  72.569  0.00  0.00    -0.623 OA
ATOM      7  C   UNL     1     -12.412  12.854  70.511  0.00  0.00    +0.235 C 
ATOM      8  C   UNL     1     -11.580  12.705  69.307  0.00  0.00    +0.108 A 
ATOM      9  C   UNL     1     -11.048  11.546  68.754  0.00  0.00    +0.199 A 
ATOM     10  C   UNL     1     -10.686  11.485  67.420  0.00  0.00    +0.048 A 
ATOM     11  C   UNL     1     -10.757  12.676  66.708  0.00  0.00    +0.015 A 
ATOM     12  C   UNL     1     -11.174  13.843  67.290  0.00  0.00    +0.058 A 
ATOM     13 CL   UNL     1     -11.043  15.350  66.425  0.00  0.00    -0.082 Cl
ATOM     14  C   UNL     1     -11.535  13.890  68.627  0.00  0.00    +0.021 A 
ATOM     15  N   UNL     1     -11.155  10.257  69.358  0.00  0.00    -0.034 NA
ENDROOT
BRANCH   7  16
ATOM     16  C   UNL     1     -12.688  14.198  70.992  0.00  0.00    +0.064 A 
ATOM     17  C   UNL     1     -14.013  14.486  71.289  0.00  0.00    +0.006 A 
ATOM     18  C   UNL     1     -14.363  15.473  72.172  0.00  0.00    +0.000 A 
ATOM     19  C   UNL     1     -13.389  16.071  72.960  0.00  0.00    +0.000 A 
ATOM     20  C   UNL     1     -12.061  15.813  72.694  0.00  0.00    +0.000 A 
ATOM     21  C   UNL     1     -11.757  14.751  71.856  0.00  0.00    +0.006 A 
ENDBRANCH   7  16
TORSDOF 1
ENDMDL
MODEL 8
REMARK VINA RESULT:      -6.4      2.368      5.274
REMARK  Name = 
REMARK  1 active torsions:
REMARK  status: ('A' for Active; 'I' for Inactive)
REMARK    1  A    between atoms: C_12  and  C_13
REMARK                            x       y       z     vdW  Elec       q    Type
REMARK                         _______ _______ _______ _____ _____    ______ ____
ROOT
ATOM      1  C   UNL     1      -9.769  19.324  68.715  0.00  0.00    +0.306 C 
ATOM      2  N   UNL     1      -9.520  18.130  67.913  0.00  0.00    -0.024 NA
ATOM      3  C   UNL     1     -10.369  16.993  68.108  0.00  0.00    +0.419 C 
ATOM      4  C   UNL     1     -10.657  16.136  66.927  0.00  0.00    +0.450 C 
ATOM      5  N   UNL     1     -10.399  14.739  67.183  0.00  0.00    -0.172 N 
ATOM      6  O   UNL     1      -9.448  14.194  66.337  0.00  0.00    -0.623 OA
ATOM      7  C   UNL     1     -10.760  13.964  68.162  0.00  0.00    +0.235 C 
ATOM      8  C   UNL     1     -11.252  14.404  69.476  0.00  0.00    +0.108 A 
ATOM      9  C   UNL     1     -11.347  15.694  69.984  0.00  0.00    +0.199 A 
ATOM     10  C   UNL     1     -12.221  16.002  71.011  0.00  0.00    +0.048 A 
ATOM     11  C   UNL     1     -12.892  14.932  71.590  0.00  0.00    +0.015 A 
ATOM     12  C   UNL     1     -12.708  13.644  71.159  0.00  0.00    +0.058 A 
ATOM     13 CL   UNL     1     -13.400  12.316  72.049  0.00  0.00    -0.082 Cl
ATOM     14  C   UNL     1     -11.830  13.351  70.129  0.00  0.00    +0.021 A 
ATOM     15  N   UNL     1     -10.863  16.852  69.303  0.00  0.00    -0.034 NA
ENDROOT
BRANCH   7  16
ATOM     16  C   UNL     1     -10.584  12.538  67.936  0.00  0.00    +0.064 A 
ATOM     17  C   UNL     1     -11.255  11.999  66.847  0.00  0.00    +0.006 A 
ATOM     18  C   UNL     1     -10.833  10.853  66.228  0.00  0.00    +0.000 A 
ATOM     19  C   UNL     1      -9.592  10.315  66.541  0.00  0.00    +0.000 A 
ATOM     20  C   UNL     1      -8.897  10.821  67.619  0.00  0.00    +0.000 A 
ATOM     21  C   UNL     1      -9.317  12.026  68.160  0.00  0.00    +0.006 A 
ENDBRANCH   7  16
TORSDOF 1
ENDMDL
MODEL 9
REMARK VINA RESULT:      -6.3      3.166      5.708
REMARK  Name = 
REMARK  1 active torsions:
REMARK  status: ('A' for Active; 'I' for Inactive)
REMARK    1  A    between atoms: C_12  and  C_13
REMARK                            x       y       z     vdW  Elec       q    Type
REMARK                         _______ _______ _______ _____ _____    ______ ____
ROOT
ATOM      1  C   UNL     1     -12.468   7.059  71.737  0.00  0.00    +0.306 C 
ATOM      2  N   UNL     1     -11.685   7.570  70.615  0.00  0.00    -0.024 NA
ATOM      3  C   UNL     1     -11.379   8.969  70.582  0.00  0.00    +0.419 C 
ATOM      4  C   UNL     1     -10.081   9.377  69.982  0.00  0.00    +0.450 C 
ATOM      5  N   UNL     1     -10.237  10.403  68.978  0.00  0.00    -0.172 N 
ATOM      6  O   UNL     1      -9.777  10.022  67.729  0.00  0.00    -0.623 OA
ATOM      7  C   UNL     1     -10.883  11.531  68.995  0.00  0.00    +0.235 C 
ATOM      8  C   UNL     1     -11.938  11.908  69.948  0.00  0.00    +0.108 A 
ATOM      9  C   UNL     1     -12.527  11.140  70.944  0.00  0.00    +0.199 A 
ATOM     10  C   UNL     1     -13.153  11.725  72.031  0.00  0.00    +0.048 A 
ATOM     11  C   UNL     1     -13.274  13.108  72.000  0.00  0.00    +0.015 A 
ATOM     12  C   UNL     1     -12.791  13.854  70.957  0.00  0.00    +0.058 A 
ATOM     13 CL   UNL     1     -13.153  15.555  70.853  0.00  0.00    -0.082 Cl
ATOM     14  C   UNL     1     -12.166  13.254  69.875  0.00  0.00    +0.021 A 
ATOM     15  N   UNL     1     -12.250   9.753  71.146  0.00  0.00    -0.034 NA
ENDROOT
BRANCH   7  16
ATOM     16  C   UNL     1     -10.565  12.458  67.920  0.00  0.00    +0.064 A 
ATOM     17  C   UNL     1     -11.598  12.763  67.044  0.00  0.00    +0.006 A 
ATOM     18  C   UNL     1     -11.617  13.926  66.320  0.00  0.00    +0.000 A 
ATOM     19  C   UNL     1     -10.708  14.933  66.609  0.00  0.00    +0.000 A 
ATOM     20  C   UNL     1      -9.666  14.668  67.471  0.00  0.00    +0.000 A 
ATOM     21  C   UNL     1      -9.731  13.516  68.241  0.00  0.00    +0.006 A 
ENDBRANCH   7  16
TORSDOF 1
ENDMDL
