MODEL 1
REMARK VINA RESULT:      -5.9      0.000      0.000
REMARK  Name = 
REMARK  4 active torsions:
REMARK  status: ('A' for Active; 'I' for Inactive)
REMARK    1  A    between atoms: O_2  and  C_3
REMARK    2  A    between atoms: C_3  and  C_5
REMARK    3  A    between atoms: C_5  and  C_6
REMARK    4  A    between atoms: C_5  and  C_12
REMARK                            x       y       z     vdW  Elec       q    Type
REMARK                         _______ _______ _______ _____ _____    ______ ____
ROOT
ATOM      1  C   UNL     1     -11.339  14.906  70.687  0.00  0.00    +0.137 C 
ENDROOT
BRANCH   1   2
ATOM      2  C   UNL     1     -11.689  15.640  69.183  0.00  0.00    +0.087 C 
ATOM      3  N   UNL     1     -10.957  16.960  69.589  0.00  0.00    -0.219 NA
ATOM      4  C   UNL     1     -10.307  17.452  68.374  0.00  0.00    +0.089 C 
ATOM      5  C   UNL     1      -8.926  16.806  68.261  0.00  0.00    +0.019 C 
ATOM      6  C   UNL     1      -9.137  15.493  69.021  0.00  0.00    +0.003 C 
ATOM      7  C   UNL     1     -10.402  14.992  68.443  0.00  0.00    +0.018 C 
ENDBRANCH   1   2
BRANCH   1   8
ATOM      8  C   UNL     1     -12.377  13.696  70.508  0.00  0.00    -0.011 A 
ATOM      9  C   UNL     1     -11.942  12.668  69.677  0.00  0.00    -0.004 A 
ATOM     10  C   UNL     1     -11.828  11.361  70.041  0.00  0.00    -0.000 A 
ATOM     11  C   UNL     1     -12.701  10.930  71.008  0.00  0.00    -0.000 A 
ATOM     12  C   UNL     1     -13.193  11.863  71.887  0.00  0.00    -0.000 A 
ATOM     13  C   UNL     1     -12.893  13.187  71.698  0.00  0.00    -0.004 A 
ENDBRANCH   1   8
BRANCH   1  14
ATOM     14  C   UNL     1     -12.369  15.838  71.467  0.00  0.00    +0.322 C 
ATOM     15  O   UNL     1     -13.580  15.635  71.170  0.00  0.00    -0.250 OA
BRANCH  14  17
ATOM     16  C   UNL     1     -12.737  16.066  73.622  0.00  0.00    +0.256 C 
ATOM     17  O   UNL     1     -12.098  16.371  72.681  0.00  0.00    -0.444 OA
ENDBRANCH  14  17
ENDBRANCH   1  14
TORSDOF 4
ENDMDL
MODEL 2
REMARK VINA RESULT:      -5.9      2.518      4.811
REMARK  Name = 
REMARK  4 active torsions:
REMARK  status: ('A' for Active; 'I' for Inactive)
REMARK    1  A    between atoms: O_2  and  C_3
REMARK    2  A    between atoms: C_3  and  C_5
REMARK    3  A    between atoms: C_5  and  C_6
REMARK    4  A    between atoms: C_5  and  C_12
REMARK                            x       y       z     vdW  Elec       q    Type
REMARK                         _______ _______ _______ _____ _____    ______ ____
ROOT
ATOM      1  C   UNL     1     -11.666  15.887  68.547  0.00  0.00    +0.137 C 
ENDROOT
BRANCH   1   2
ATOM      2  C   UNL     1     -10.838  15.211  69.881  0.00  0.00    +0.087 C 
ATOM      3  N   UNL     1     -11.404  16.294  70.857  0.00  0.00    -0.219 NA
ATOM      4  C   UNL     1     -11.641  15.608  72.127  0.00  0.00    +0.089 C 
ATOM      5  C   UNL     1     -13.045  15.002  72.101  0.00  0.00    +0.019 C 
ATOM      6  C   UNL     1     -13.258  14.784  70.601  0.00  0.00    +0.003 C 
ATOM      7  C   UNL     1     -12.000  14.126  70.193  0.00  0.00    +0.018 C 
ENDBRANCH   1   2
BRANCH   1   8
ATOM      8  C   UNL     1     -11.119  14.824  67.478  0.00  0.00    -0.011 A 
ATOM      9  C   UNL     1     -12.057  13.888  67.049  0.00  0.00    -0.004 A 
ATOM     10  C   UNL     1     -12.427  13.686  65.754  0.00  0.00    -0.000 A 
ATOM     11  C   UNL     1     -11.467  13.949  64.809  0.00  0.00    -0.000 A 
ATOM     12  C   UNL     1     -10.491  14.861  65.126  0.00  0.00    -0.000 A 
ATOM     13  C   UNL     1     -10.442  15.379  66.394  0.00  0.00    -0.004 A 
ENDBRANCH   1   8
BRANCH   1  14
ATOM     14  C   UNL     1     -10.509  16.946  68.270  0.00  0.00    +0.322 C 
ATOM     15  O   UNL     1     -10.922  18.118  68.044  0.00  0.00    -0.250 OA
BRANCH  14  17
ATOM     16  C   UNL     1      -8.417  17.586  68.485  0.00  0.00    +0.256 C 
ATOM     17  O   UNL     1      -9.254  16.802  68.755  0.00  0.00    -0.444 OA
ENDBRANCH  14  17
ENDBRANCH   1  14
TORSDOF 4
ENDMDL
MODEL 3
REMARK VINA RESULT:      -5.8      4.368      6.175
REMARK  Name = 
REMARK  4 active torsions:
REMARK  status: ('A' for Active; 'I' for Inactive)
REMARK    1  A    between atoms: O_2  and  C_3
REMARK    2  A    between atoms: C_3  and  C_5
REMARK    3  A    between atoms: C_5  and  C_6
REMARK    4  A    between atoms: C_5  and  C_12
REMARK                            x       y       z     vdW  Elec       q    Type
REMARK                         _______ _______ _______ _____ _____    ______ ____
ROOT
ATOM      1  C   UNL     1     -11.690  12.539  66.331  0.00  0.00    +0.137 C 
ENDROOT
BRANCH   1   2
ATOM      2  C   UNL     1     -10.814  13.366  67.543  0.00  0.00    +0.087 C 
ATOM      3  N   UNL     1     -12.123  13.780  68.291  0.00  0.00    -0.219 NA
ATOM      4  C   UNL     1     -11.807  13.724  69.718  0.00  0.00    +0.089 C 
ATOM      5  C   UNL     1     -12.057  12.301  70.220  0.00  0.00    +0.019 C 
ATOM      6  C   UNL     1     -11.838  11.482  68.944  0.00  0.00    +0.003 C 
ATOM      7  C   UNL     1     -10.567  12.032  68.429  0.00  0.00    +0.018 C 
ENDBRANCH   1   2
BRANCH   1   8
ATOM      8  C   UNL     1     -10.399  12.103  65.484  0.00  0.00    -0.011 A 
ATOM      9  C   UNL     1      -9.933  10.818  65.745  0.00  0.00    -0.004 A 
ATOM     10  C   UNL     1      -9.792   9.831  64.817  0.00  0.00    -0.000 A 
ATOM     11  C   UNL     1      -9.518  10.247  63.538  0.00  0.00    -0.000 A 
ATOM     12  C   UNL     1      -9.935  11.503  63.171  0.00  0.00    -0.000 A 
ATOM     13  C   UNL     1     -10.496  12.326  64.112  0.00  0.00    -0.004 A 
ENDBRANCH   1   8
BRANCH   1  14
ATOM     14  C   UNL     1     -11.939  13.872  65.496  0.00  0.00    +0.322 C 
ATOM     15  O   UNL     1     -13.148  14.076  65.191  0.00  0.00    -0.250 OA
BRANCH  14  17
ATOM     16  C   UNL     1     -11.202  15.817  64.783  0.00  0.00    +0.256 C 
ATOM     17  O   UNL     1     -11.119  14.946  65.572  0.00  0.00    -0.444 OA
ENDBRANCH  14  17
ENDBRANCH   1  14
TORSDOF 4
ENDMDL
MODEL 4
REMARK VINA RESULT:      -5.6      2.422      3.813
REMARK  Name = 
REMARK  4 active torsions:
REMARK  status: ('A' for Active; 'I' for Inactive)
REMARK    1  A    between atoms: O_2  and  C_3
REMARK    2  A    between atoms: C_3  and  C_5
REMARK    3  A    between atoms: C_5  and  C_6
REMARK    4  A    between atoms: C_5  and  C_12
REMARK                            x       y       z     vdW  Elec       q    Type
REMARK                         _______ _______ _______ _____ _____    ______ ____
ROOT
ATOM      1  C   UNL     1     -10.699  14.762  69.028  0.00  0.00    +0.137 C 
ENDROOT
BRANCH   1   2
ATOM      2  C   UNL     1     -11.525  15.012  67.552  0.00  0.00    +0.087 C 
ATOM      3  N   UNL     1     -10.232  14.744  66.715  0.00  0.00    -0.219 NA
ATOM      4  C   UNL     1     -10.671  14.037  65.511  0.00  0.00    +0.089 C 
ATOM      5  C   UNL     1     -10.703  12.537  65.808  0.00  0.00    +0.019 C 
ATOM      6  C   UNL     1     -10.947  12.528  67.320  0.00  0.00    +0.003 C 
ATOM      7  C   UNL     1     -12.062  13.486  67.468  0.00  0.00    +0.018 C 
ENDBRANCH   1   2
BRANCH   1   8
ATOM      8  C   UNL     1     -11.955  15.110  69.963  0.00  0.00    -0.011 A 
ATOM      9  C   UNL     1     -12.660  14.005  70.434  0.00  0.00    -0.004 A 
ATOM     10  C   UNL     1     -12.875  13.715  71.747  0.00  0.00    -0.000 A 
ATOM     11  C   UNL     1     -12.945  14.791  72.595  0.00  0.00    -0.000 A 
ATOM     12  C   UNL     1     -12.282  15.937  72.230  0.00  0.00    -0.000 A 
ATOM     13  C   UNL     1     -11.685  16.003  70.998  0.00  0.00    -0.004 A 
ENDBRANCH   1   8
BRANCH   1  14
ATOM     14  C   UNL     1     -10.120  16.246  69.043  0.00  0.00    +0.322 C 
ATOM     15  O   UNL     1      -8.861  16.311  69.125  0.00  0.00    -0.250 OA
BRANCH  14  17
ATOM     16  C   UNL     1     -10.188  18.276  68.200  0.00  0.00    +0.256 C 
ATOM     17  O   UNL     1     -10.770  17.289  68.478  0.00  0.00    -0.444 OA
ENDBRANCH  14  17
ENDBRANCH   1  14
TORSDOF 4
ENDMDL
MODEL 5
REMARK VINA RESULT:      -5.6      2.596      3.774
REMARK  Name = 
REMARK  4 active torsions:
REMARK  status: ('A' for Active; 'I' for Inactive)
REMARK    1  A    between atoms: O_2  and  C_3
REMARK    2  A    between atoms: C_3  and  C_5
REMARK    3  A    between atoms: C_5  and  C_6
REMARK    4  A    between atoms: C_5  and  C_12
REMARK                            x       y       z     vdW  Elec       q    Type
REMARK                         _______ _______ _______ _____ _____    ______ ____
ROOT
ATOM      1  C   UNL     1     -11.738  13.767  68.609  0.00  0.00    +0.137 C 
ENDROOT
BRANCH   1   2
ATOM      2  C   UNL     1     -10.049  14.031  68.613  0.00  0.00    +0.087 C 
ATOM      3  N   UNL     1      -9.957  13.853  67.063  0.00  0.00    -0.219 NA
ATOM      4  C   UNL     1      -8.943  14.804  66.607  0.00  0.00    +0.089 C 
ATOM      5  C   UNL     1      -9.618  16.149  66.339  0.00  0.00    +0.019 C 
ATOM      6  C   UNL     1     -10.814  16.088  67.294  0.00  0.00    +0.003 C 
ATOM      7  C   UNL     1     -10.189  15.644  68.558  0.00  0.00    +0.018 C 
ENDBRANCH   1   2
BRANCH   1   8
ATOM      8  C   UNL     1     -11.920  13.941  70.193  0.00  0.00    -0.011 A 
ATOM      9  C   UNL     1     -12.528  15.130  70.587  0.00  0.00    -0.004 A 
ATOM     10  C   UNL     1     -13.667  15.219  71.328  0.00  0.00    -0.000 A 
ATOM     11  C   UNL     1     -13.892  14.190  72.208  0.00  0.00    -0.000 A 
ATOM     12  C   UNL     1     -13.339  12.967  71.916  0.00  0.00    -0.000 A 
ATOM     13  C   UNL     1     -12.499  12.850  70.839  0.00  0.00    -0.004 A 
ENDBRANCH   1   8
BRANCH   1  14
ATOM     14  C   UNL     1     -11.567  12.186  68.677  0.00  0.00    +0.322 C 
ATOM     15  O   UNL     1     -12.217  11.555  67.797  0.00  0.00    -0.250 OA
BRANCH  14  17
ATOM     16  C   UNL     1     -10.330  10.423  69.121  0.00  0.00    +0.256 C 
ATOM     17  O   UNL     1     -10.469  11.591  69.198  0.00  0.00    -0.444 OA
ENDBRANCH  14  17
ENDBRANCH   1  14
TORSDOF 4
ENDMDL
MODEL 6
REMARK VINA RESULT:      -5.6      2.658      4.134
REMARK  Name = 
REMARK  4 active torsions:
REMARK  status: ('A' for Active; 'I' for Inactive)
REMARK    1  A    between atoms: O_2  and  C_3
REMARK    2  A    between atoms: C_3  and  C_5
REMARK    3  A    between atoms: C_5  and  C_6
REMARK    4  A    between atoms: C_5  and  C_12
REMARK                            x       y       z     vdW  Elec       q    Type
REMARK                         _______ _______ _______ _____ _____    ______ ____
ROOT
ATOM      1  C   UNL     1      -9.972  16.177  67.689  0.00  0.00    +0.137 C 
ENDROOT
BRANCH   1   2
ATOM      2  C   UNL     1     -10.829  17.656  67.684  0.00  0.00    +0.087 C 
ATOM      3  N   UNL     1      -9.790  18.329  68.639  0.00  0.00    -0.219 NA
ATOM      4  C   UNL     1      -9.677  19.719  68.197  0.00  0.00    +0.089 C 
ATOM      5  C   UNL     1      -8.614  19.800  67.101  0.00  0.00    +0.019 C 
ATOM      6  C   UNL     1      -8.675  18.389  66.509  0.00  0.00    +0.003 C 
ATOM      7  C   UNL     1     -10.127  18.185  66.323  0.00  0.00    +0.018 C 
ENDBRANCH   1   2
BRANCH   1   8
ATOM      8  C   UNL     1     -10.992  15.410  66.717  0.00  0.00    -0.011 A 
ATOM      9  C   UNL     1     -10.515  15.180  65.429  0.00  0.00    -0.004 A 
ATOM     10  C   UNL     1     -10.405  13.956  64.841  0.00  0.00    -0.000 A 
ATOM     11  C   UNL     1     -11.314  13.012  65.249  0.00  0.00    -0.000 A 
ATOM     12  C   UNL     1     -11.849  13.140  66.507  0.00  0.00    -0.000 A 
ATOM     13  C   UNL     1     -11.552  14.251  67.252  0.00  0.00    -0.004 A 
ENDBRANCH   1   8
BRANCH   1  14
ATOM     14  C   UNL     1     -10.681  15.683  69.026  0.00  0.00    +0.322 C 
ATOM     15  O   UNL     1      -9.884  15.278  69.918  0.00  0.00    -0.250 OA
BRANCH  14  17
ATOM     16  C   UNL     1     -12.371  15.762  70.432  0.00  0.00    +0.256 C 
ATOM     17  O   UNL     1     -11.892  16.140  69.423  0.00  0.00    -0.444 OA
ENDBRANCH  14  17
ENDBRANCH   1  14
TORSDOF 4
ENDMDL
MODEL 7
REMARK VINA RESULT:      -5.5      2.731      5.654
REMARK  Name = 
REMARK  4 active torsions:
REMARK  status: ('A' for Active; 'I' for Inactive)
REMARK    1  A    between atoms: O_2  and  C_3
REMARK    2  A    between atoms: C_3  and  C_5
REMARK    3  A    between atoms: C_5  and  C_6
REMARK    4  A    between atoms: C_5  and  C_12
REMARK                            x       y       z     vdW  Elec       q    Type
REMARK                         _______ _______ _______ _____ _____    ______ ____
ROOT
ATOM      1  C   UNL     1     -10.890  15.970  67.934  0.00  0.00    +0.137 C 
ENDROOT
BRANCH   1   2
ATOM      2  C   UNL     1      -9.909  14.851  67.093  0.00  0.00    +0.087 C 
ATOM      3  N   UNL     1     -10.573  13.634  67.818  0.00  0.00    -0.219 NA
ATOM      4  C   UNL     1     -10.648  12.564  66.824  0.00  0.00    +0.089 C 
ATOM      5  C   UNL     1     -11.951  12.715  66.039  0.00  0.00    +0.019 C 
ATOM      6  C   UNL     1     -12.206  14.220  66.152  0.00  0.00    +0.003 C 
ATOM      7  C   UNL     1     -10.889  14.793  65.804  0.00  0.00    +0.018 C 
ENDBRANCH   1   2
BRANCH   1   8
ATOM      8  C   UNL     1      -9.975  17.247  67.604  0.00  0.00    -0.011 A 
ATOM      9  C   UNL     1     -10.142  17.774  66.327  0.00  0.00    -0.004 A 
ATOM     10  C   UNL     1     -10.505  19.056  66.049  0.00  0.00    -0.000 A 
ATOM     11  C   UNL     1     -10.118  20.000  66.968  0.00  0.00    -0.000 A 
ATOM     12  C   UNL     1      -9.926  19.590  68.264  0.00  0.00    -0.000 A 
ATOM     13  C   UNL     1     -10.010  18.255  68.565  0.00  0.00    -0.004 A 
ENDBRANCH   1   8
BRANCH   1  14
ATOM     14  C   UNL     1     -10.177  15.665  69.325  0.00  0.00    +0.322 C 
ATOM     15  O   UNL     1      -8.947  15.948  69.352  0.00  0.00    -0.250 OA
BRANCH  14  17
ATOM     16  C   UNL     1     -12.021  15.752  70.521  0.00  0.00    +0.256 C 
ATOM     17  O   UNL     1     -10.847  15.651  70.501  0.00  0.00    -0.444 OA
ENDBRANCH  14  17
ENDBRANCH   1  14
TORSDOF 4
ENDMDL
MODEL 8
REMARK VINA RESULT:      -5.5      3.354      4.634
REMARK  Name = 
REMARK  4 active torsions:
REMARK  status: ('A' for Active; 'I' for Inactive)
REMARK    1  A    between atoms: O_2  and  C_3
REMARK    2  A    between atoms: C_3  and  C_5
REMARK    3  A    between atoms: C_5  and  C_6
REMARK    4  A    between atoms: C_5  and  C_12
REMARK                            x       y       z     vdW  Elec       q    Type
REMARK                         _______ _______ _______ _____ _____    ______ ____
ROOT
ATOM      1  C   UNL     1     -11.676  14.331  67.082  0.00  0.00    +0.137 C 
ENDROOT
BRANCH   1   2
ATOM      2  C   UNL     1     -10.153  14.970  66.642  0.00  0.00    +0.087 C 
ATOM      3  N   UNL     1     -10.807  16.216  65.960  0.00  0.00    -0.219 NA
ATOM      4  C   UNL     1      -9.912  17.341  66.234  0.00  0.00    +0.089 C 
ATOM      5  C   UNL     1     -10.301  17.962  67.576  0.00  0.00    +0.019 C 
ATOM      6  C   UNL     1     -10.923  16.764  68.300  0.00  0.00    +0.003 C 
ATOM      7  C   UNL     1      -9.923  15.700  68.070  0.00  0.00    +0.018 C 
ENDBRANCH   1   2
BRANCH   1   8
ATOM      8  C   UNL     1     -11.084  13.095  67.917  0.00  0.00    -0.011 A 
ATOM      9  C   UNL     1     -11.354  13.126  69.282  0.00  0.00    -0.004 A 
ATOM     10  C   UNL     1     -12.005  12.150  69.974  0.00  0.00    -0.000 A 
ATOM     11  C   UNL     1     -11.863  10.875  69.488  0.00  0.00    -0.000 A 
ATOM     12  C   UNL     1     -11.596  10.726  68.149  0.00  0.00    -0.000 A 
ATOM     13  C   UNL     1     -11.367  11.839  67.383  0.00  0.00    -0.004 A 
ENDBRANCH   1   8
BRANCH   1  14
ATOM     14  C   UNL     1     -11.809  13.510  65.724  0.00  0.00    +0.322 C 
ATOM     15  O   UNL     1     -12.944  13.595  65.175  0.00  0.00    -0.250 OA
BRANCH  14  17
ATOM     16  C   UNL     1     -10.898  12.659  63.913  0.00  0.00    +0.256 C 
ATOM     17  O   UNL     1     -10.747  13.225  64.936  0.00  0.00    -0.444 OA
ENDBRANCH  14  17
ENDBRANCH   1  14
TORSDOF 4
ENDMDL
MODEL 9
REMARK VINA RESULT:      -5.4      3.423      4.906
REMARK  Name = 
REMARK  4 active torsions:
REMARK  status: ('A' for Active; 'I' for Inactive)
REMARK    1  A    between atoms: O_2  and  C_3
REMARK    2  A    between atoms: C_3  and  C_5
REMARK    3  A    between atoms: C_5  and  C_6
REMARK    4  A    between atoms: C_5  and  C_12
REMARK                            x       y       z     vdW  Elec       q    Type
REMARK                         _______ _______ _______ _____ _____    ______ ____
ROOT
ATOM      1  C   UNL     1     -10.415  14.271  67.430  0.00  0.00    +0.137 C 
ENDROOT
BRANCH   1   2
ATOM      2  C   UNL     1     -11.391  14.277  66.027  0.00  0.00    +0.087 C 
ATOM      3  N   UNL     1     -10.199  13.822  65.123  0.00  0.00    -0.219 NA
ATOM      4  C   UNL     1     -10.773  12.924  64.121  0.00  0.00    +0.089 C 
ATOM      5  C   UNL     1     -10.790  11.504  64.687  0.00  0.00    +0.019 C 
ATOM      6  C   UNL     1     -10.870  11.775  66.193  0.00  0.00    +0.003 C 
ATOM      7  C   UNL     1     -11.953  12.778  66.277  0.00  0.00    +0.018 C 
ENDBRANCH   1   2
BRANCH   1   8
ATOM      8  C   UNL     1     -11.586  14.722  68.429  0.00  0.00    -0.011 A 
ATOM      9  C   UNL     1     -12.127  13.696  69.200  0.00  0.00    -0.004 A 
ATOM     10  C   UNL     1     -12.167  13.676  70.560  0.00  0.00    -0.000 A 
ATOM     11  C   UNL     1     -12.243  14.901  71.176  0.00  0.00    -0.000 A 
ATOM     12  C   UNL     1     -11.735  15.986  70.505  0.00  0.00    -0.000 A 
ATOM     13  C   UNL     1     -11.287  15.830  69.219  0.00  0.00    -0.004 A 
ENDBRANCH   1   8
BRANCH   1  14
ATOM     14  C   UNL     1      -9.898  15.754  67.169  0.00  0.00    +0.322 C 
ATOM     15  O   UNL     1      -8.647  15.894  67.272  0.00  0.00    -0.250 OA
BRANCH  14  17
ATOM     16  C   UNL     1     -10.193  17.748  66.289  0.00  0.00    +0.256 C 
ATOM     17  O   UNL     1     -10.569  16.635  66.390  0.00  0.00    -0.444 OA
ENDBRANCH  14  17
ENDBRANCH   1  14
TORSDOF 4
ENDMDL
