MODEL 1
REMARK VINA RESULT:      -7.5      0.000      0.000
REMARK  Name = 
REMARK  6 active torsions:
REMARK  status: ('A' for Active; 'I' for Inactive)
REMARK    1  A    between atoms: C_5  and  C_6
REMARK    2  A    between atoms: C_6  and  C_14
REMARK    3  A    between atoms: C_7  and  C_8
REMARK    4  A    between atoms: C_8  and  N_9
REMARK    5  A    between atoms: C_18  and  C_19
REMARK    6  A    between atoms: C_20  and  C_21
REMARK                            x       y       z     vdW  Elec       q    Type
REMARK                         _______ _______ _______ _____ _____    ______ ____
ROOT
ATOM      1  C   UNL     1     -11.105  14.193  69.195  0.00  0.00    +0.015 C 
ATOM      2  C   UNL     1     -11.737  13.240  68.508  0.00  0.00    -0.007 C 
ENDROOT
BRANCH   1   7
ATOM      3  C   UNL     1     -12.436  15.263  74.456  0.00  0.00    +0.031 C 
ATOM      4  C   UNL     1     -12.676  15.314  72.981  0.00  0.00    -0.022 A 
ATOM      5  C   UNL     1     -12.052  16.255  72.170  0.00  0.00    -0.004 A 
ATOM      6  C   UNL     1     -11.720  15.954  70.856  0.00  0.00    -0.000 A 
ATOM      7  C   UNL     1     -11.791  14.640  70.411  0.00  0.00    +0.001 A 
ATOM      8  C   UNL     1     -12.730  13.850  71.061  0.00  0.00    -0.000 A 
ATOM      9  C   UNL     1     -13.213  14.222  72.309  0.00  0.00    -0.004 A 
ENDBRANCH   1   7
BRANCH   1  10
ATOM     10  C   UNL     1     -10.213  15.073  68.429  0.00  0.00    +0.081 A 
ATOM     11  N   UNL     1     -10.702  15.960  67.533  0.00  0.00    -0.245 NA
ATOM     12  C   UNL     1      -9.939  16.609  66.642  0.00  0.00    +0.082 A 
ATOM     13  C   UNL     1      -8.748  15.988  66.284  0.00  0.00    +0.019 A 
ATOM     14  C   UNL     1      -8.249  14.927  67.003  0.00  0.00    +0.003 A 
ATOM     15  C   UNL     1      -8.935  14.594  68.165  0.00  0.00    +0.019 A 
BRANCH  12  16
ATOM     16  C   UNL     1     -10.458  17.715  65.832  0.00  0.00    +0.026 C 
ATOM     17  C   UNL     1     -10.193  18.951  66.186  0.00  0.00    +0.088 C 
BRANCH  17  18
ATOM     18  C   UNL     1      -9.553  19.302  67.460  0.00  0.00    +0.388 C 
ATOM     19  O   UNL     1     -10.430  19.647  68.493  0.00  0.00    -0.241 OA
ATOM     20  O   UNL     1      -8.426  19.875  67.499  0.00  0.00    -0.241 OA
ENDBRANCH  17  18
ENDBRANCH  12  16
ENDBRANCH   1  10
BRANCH   2  21
ATOM     21  C   UNL     1     -11.079  12.570  67.367  0.00  0.00    +0.099 C 
BRANCH  21  22
ATOM     22  N   UNL     1     -12.034  12.535  66.265  0.00  0.00    -0.269 NA
ATOM     23  C   UNL     1     -12.584  13.828  65.962  0.00  0.00    +0.072 C 
ATOM     24  C   UNL     1     -12.199  14.171  64.547  0.00  0.00    +0.019 C 
ATOM     25  C   UNL     1     -11.013  13.267  64.315  0.00  0.00    +0.019 C 
ATOM     26  C   UNL     1     -11.407  12.028  65.070  0.00  0.00    +0.072 C 
ENDBRANCH  21  22
ENDBRANCH   2  21
TORSDOF 6
ENDMDL
MODEL 2
REMARK VINA RESULT:      -7.4      3.390      5.853
REMARK  Name = 
REMARK  6 active torsions:
REMARK  status: ('A' for Active; 'I' for Inactive)
REMARK    1  A    between atoms: C_5  and  C_6
REMARK    2  A    between atoms: C_6  and  C_14
REMARK    3  A    between atoms: C_7  and  C_8
REMARK    4  A    between atoms: C_8  and  N_9
REMARK    5  A    between atoms: C_18  and  C_19
REMARK    6  A    between atoms: C_20  and  C_21
REMARK                            x       y       z     vdW  Elec       q    Type
REMARK                         _______ _______ _______ _____ _____    ______ ____
ROOT
ATOM      1  C   UNL     1     -11.925  11.969  69.520  0.00  0.00    +0.015 C 
ATOM      2  C   UNL     1     -12.099  12.987  70.364  0.00  0.00    -0.007 C 
ENDROOT
BRANCH   1   7
ATOM      3  C   UNL     1     -10.842   7.717  72.887  0.00  0.00    +0.031 C 
ATOM      4  C   UNL     1     -11.506   8.349  71.705  0.00  0.00    -0.022 A 
ATOM      5  C   UNL     1     -12.653   9.123  71.837  0.00  0.00    -0.004 A 
ATOM      6  C   UNL     1     -12.893  10.191  70.984  0.00  0.00    -0.000 A 
ATOM      7  C   UNL     1     -11.881  10.645  70.145  0.00  0.00    +0.001 A 
ATOM      8  C   UNL     1     -10.958   9.680  69.766  0.00  0.00    -0.000 A 
ATOM      9  C   UNL     1     -10.820   8.513  70.508  0.00  0.00    -0.004 A 
ENDBRANCH   1   7
BRANCH   1  10
ATOM     10  C   UNL     1     -11.219  12.269  68.267  0.00  0.00    +0.081 A 
ATOM     11  N   UNL     1     -11.711  11.872  67.071  0.00  0.00    -0.245 NA
ATOM     12  C   UNL     1     -11.004  11.903  65.934  0.00  0.00    +0.082 A 
ATOM     13  C   UNL     1      -9.621  11.838  66.066  0.00  0.00    +0.019 A 
ATOM     14  C   UNL     1      -9.010  12.019  67.284  0.00  0.00    +0.003 A 
ATOM     15  C   UNL     1      -9.836  12.386  68.340  0.00  0.00    +0.019 A 
BRANCH  12  16
ATOM     16  C   UNL     1     -11.623  11.671  64.625  0.00  0.00    +0.026 C 
ATOM     17  C   UNL     1     -12.201  12.671  64.001  0.00  0.00    +0.088 C 
BRANCH  17  18
ATOM     18  C   UNL     1     -12.427  13.983  64.621  0.00  0.00    +0.388 C 
ATOM     19  O   UNL     1     -13.556  14.069  65.441  0.00  0.00    -0.241 OA
ATOM     20  O   UNL     1     -12.106  15.056  64.033  0.00  0.00    -0.241 OA
ENDBRANCH  17  18
ENDBRANCH  12  16
ENDBRANCH   1  10
BRANCH   2  21
ATOM     21  C   UNL     1     -12.343  14.354  69.859  0.00  0.00    +0.099 C 
BRANCH  21  22
ATOM     22  N   UNL     1     -13.116  15.068  70.870  0.00  0.00    -0.269 NA
ATOM     23  C   UNL     1     -13.630  14.199  71.894  0.00  0.00    +0.072 C 
ATOM     24  C   UNL     1     -13.036  14.638  73.207  0.00  0.00    +0.019 C 
ATOM     25  C   UNL     1     -11.818  15.408  72.761  0.00  0.00    +0.019 C 
ATOM     26  C   UNL     1     -12.307  16.076  71.506  0.00  0.00    +0.072 C 
ENDBRANCH  21  22
ENDBRANCH   2  21
TORSDOF 6
ENDMDL
MODEL 3
REMARK VINA RESULT:      -7.2      1.337      5.328
REMARK  Name = 
REMARK  6 active torsions:
REMARK  status: ('A' for Active; 'I' for Inactive)
REMARK    1  A    between atoms: C_5  and  C_6
REMARK    2  A    between atoms: C_6  and  C_14
REMARK    3  A    between atoms: C_7  and  C_8
REMARK    4  A    between atoms: C_8  and  N_9
REMARK    5  A    between atoms: C_18  and  C_19
REMARK    6  A    between atoms: C_20  and  C_21
REMARK                            x       y       z     vdW  Elec       q    Type
REMARK                         _______ _______ _______ _____ _____    ______ ____
ROOT
ATOM      1  C   UNL     1     -11.515  14.696  67.621  0.00  0.00    +0.015 C 
ATOM      2  C   UNL     1     -11.927  14.458  68.867  0.00  0.00    -0.007 C 
ENDROOT
BRANCH   1   7
ATOM      3  C   UNL     1     -10.725  11.074  63.516  0.00  0.00    +0.031 C 
ATOM      4  C   UNL     1     -11.442  11.588  64.725  0.00  0.00    -0.022 A 
ATOM      5  C   UNL     1     -10.961  11.365  66.009  0.00  0.00    -0.004 A 
ATOM      6  C   UNL     1     -11.165  12.297  67.018  0.00  0.00    -0.000 A 
ATOM      7  C   UNL     1     -11.641  13.564  66.700  0.00  0.00    +0.001 A 
ATOM      8  C   UNL     1     -12.436  13.623  65.562  0.00  0.00    -0.000 A 
ATOM      9  C   UNL     1     -12.379  12.608  64.616  0.00  0.00    -0.004 A 
ENDBRANCH   1   7
BRANCH   1  10
ATOM     10  C   UNL     1     -10.486  15.731  67.457  0.00  0.00    +0.081 A 
ATOM     11  N   UNL     1     -10.779  16.932  66.909  0.00  0.00    -0.245 NA
ATOM     12  C   UNL     1      -9.848  17.812  66.515  0.00  0.00    +0.082 A 
ATOM     13  C   UNL     1      -8.605  17.287  66.182  0.00  0.00    +0.019 A 
ATOM     14  C   UNL     1      -8.264  15.995  66.505  0.00  0.00    +0.003 A 
ATOM     15  C   UNL     1      -9.178  15.292  67.281  0.00  0.00    +0.019 A 
BRANCH  12  16
ATOM     16  C   UNL     1     -10.189  19.184  66.125  0.00  0.00    +0.026 C 
ATOM     17  C   UNL     1      -9.808  20.183  66.885  0.00  0.00    +0.088 C 
BRANCH  17  18
ATOM     18  C   UNL     1      -9.209  19.999  68.214  0.00  0.00    +0.388 C 
ATOM     19  O   UNL     1      -7.816  19.886  68.230  0.00  0.00    -0.241 OA
ATOM     20  O   UNL     1      -9.810  19.366  69.129  0.00  0.00    -0.241 OA
ENDBRANCH  17  18
ENDBRANCH  12  16
ENDBRANCH   1  10
BRANCH   2  21
ATOM     21  C   UNL     1     -12.027  15.555  69.852  0.00  0.00    +0.099 C 
BRANCH  21  22
ATOM     22  N   UNL     1     -11.998  14.960  71.183  0.00  0.00    -0.269 NA
ATOM     23  C   UNL     1     -12.062  15.939  72.233  0.00  0.00    +0.072 C 
ATOM     24  C   UNL     1     -13.313  15.676  73.030  0.00  0.00    +0.019 C 
ATOM     25  C   UNL     1     -14.144  14.877  72.057  0.00  0.00    +0.019 C 
ATOM     26  C   UNL     1     -13.103  14.051  71.354  0.00  0.00    +0.072 C 
ENDBRANCH  21  22
ENDBRANCH   2  21
TORSDOF 6
ENDMDL
MODEL 4
REMARK VINA RESULT:      -7.2      3.439      4.994
REMARK  Name = 
REMARK  6 active torsions:
REMARK  status: ('A' for Active; 'I' for Inactive)
REMARK    1  A    between atoms: C_5  and  C_6
REMARK    2  A    between atoms: C_6  and  C_14
REMARK    3  A    between atoms: C_7  and  C_8
REMARK    4  A    between atoms: C_8  and  N_9
REMARK    5  A    between atoms: C_18  and  C_19
REMARK    6  A    between atoms: C_20  and  C_21
REMARK                            x       y       z     vdW  Elec       q    Type
REMARK                         _______ _______ _______ _____ _____    ______ ____
ROOT
ATOM      1  C   UNL     1     -11.603  12.155  69.704  0.00  0.00    +0.015 C 
ATOM      2  C   UNL     1     -11.967  10.887  69.898  0.00  0.00    -0.007 C 
ENDROOT
BRANCH   1   7
ATOM      3  C   UNL     1     -12.980  15.936  73.500  0.00  0.00    +0.031 C 
ATOM      4  C   UNL     1     -13.259  15.078  72.306  0.00  0.00    -0.022 A 
ATOM      5  C   UNL     1     -12.826  15.432  71.034  0.00  0.00    -0.004 A 
ATOM      6  C   UNL     1     -12.477  14.460  70.105  0.00  0.00    -0.000 A 
ATOM      7  C   UNL     1     -12.328  13.140  70.511  0.00  0.00    +0.001 A 
ATOM      8  C   UNL     1     -13.100  12.772  71.605  0.00  0.00    -0.000 A 
ATOM      9  C   UNL     1     -13.613  13.743  72.458  0.00  0.00    -0.004 A 
ENDBRANCH   1   7
BRANCH   1  10
ATOM     10  C   UNL     1     -11.039  12.482  68.388  0.00  0.00    +0.081 A 
ATOM     11  N   UNL     1     -11.581  11.990  67.250  0.00  0.00    -0.245 NA
ATOM     12  C   UNL     1     -10.977  12.054  66.056  0.00  0.00    +0.082 A 
ATOM     13  C   UNL     1      -9.590  12.142  66.071  0.00  0.00    +0.019 A 
ATOM     14  C   UNL     1      -8.904  12.433  67.226  0.00  0.00    +0.003 A 
ATOM     15  C   UNL     1      -9.676  12.749  68.338  0.00  0.00    +0.019 A 
BRANCH  12  16
ATOM     16  C   UNL     1     -11.673  11.708  64.812  0.00  0.00    +0.026 C 
ATOM     17  C   UNL     1     -12.287  12.650  64.136  0.00  0.00    +0.088 C 
BRANCH  17  18
ATOM     18  C   UNL     1     -12.478  14.013  64.648  0.00  0.00    +0.388 C 
ATOM     19  O   UNL     1     -13.558  14.179  65.519  0.00  0.00    -0.241 OA
ATOM     20  O   UNL     1     -12.191  15.028  63.950  0.00  0.00    -0.241 OA
ENDBRANCH  17  18
ENDBRANCH  12  16
ENDBRANCH   1  10
BRANCH   2  21
ATOM     21  C   UNL     1     -11.201   9.780  69.290  0.00  0.00    +0.099 C 
BRANCH  21  22
ATOM     22  N   UNL     1     -10.579   9.025  70.372  0.00  0.00    -0.269 NA
ATOM     23  C   UNL     1     -11.253   9.198  71.631  0.00  0.00    +0.072 C 
ATOM     24  C   UNL     1     -11.756   7.847  72.070  0.00  0.00    +0.019 C 
ATOM     25  C   UNL     1     -11.781   7.082  70.771  0.00  0.00    +0.019 C 
ATOM     26  C   UNL     1     -10.566   7.617  70.064  0.00  0.00    +0.072 C 
ENDBRANCH  21  22
ENDBRANCH   2  21
TORSDOF 6
ENDMDL
MODEL 5
REMARK VINA RESULT:      -7.2      1.973      5.477
REMARK  Name = 
REMARK  6 active torsions:
REMARK  status: ('A' for Active; 'I' for Inactive)
REMARK    1  A    between atoms: C_5  and  C_6
REMARK    2  A    between atoms: C_6  and  C_14
REMARK    3  A    between atoms: C_7  and  C_8
REMARK    4  A    between atoms: C_8  and  N_9
REMARK    5  A    between atoms: C_18  and  C_19
REMARK    6  A    between atoms: C_20  and  C_21
REMARK                            x       y       z     vdW  Elec       q    Type
REMARK                         _______ _______ _______ _____ _____    ______ ____
ROOT
ATOM      1  C   UNL     1     -10.803  15.742  68.563  0.00  0.00    +0.015 C 
ATOM      2  C   UNL     1     -11.561  15.326  69.578  0.00  0.00    -0.007 C 
ENDROOT
BRANCH   1   7
ATOM      3  C   UNL     1     -10.499  12.531  64.069  0.00  0.00    +0.031 C 
ATOM      4  C   UNL     1     -11.156  13.560  64.933  0.00  0.00    -0.022 A 
ATOM      5  C   UNL     1     -11.913  13.207  66.044  0.00  0.00    -0.004 A 
ATOM      6  C   UNL     1     -11.962  14.029  67.163  0.00  0.00    -0.000 A 
ATOM      7  C   UNL     1     -11.071  15.089  67.279  0.00  0.00    +0.001 A 
ATOM      8  C   UNL     1     -10.638  15.625  66.073  0.00  0.00    -0.000 A 
ATOM      9  C   UNL     1     -10.740  14.886  64.902  0.00  0.00    -0.004 A 
ENDBRANCH   1   7
BRANCH   1  10
ATOM     10  C   UNL     1      -9.480  16.278  68.909  0.00  0.00    +0.081 A 
ATOM     11  N   UNL     1      -9.144  17.558  68.625  0.00  0.00    -0.245 NA
ATOM     12  C   UNL     1      -7.891  18.026  68.695  0.00  0.00    +0.082 A 
ATOM     13  C   UNL     1      -6.874  17.090  68.543  0.00  0.00    +0.019 A 
ATOM     14  C   UNL     1      -7.128  15.740  68.603  0.00  0.00    +0.003 A 
ATOM     15  C   UNL     1      -8.426  15.373  68.942  0.00  0.00    +0.019 A 
BRANCH  12  16
ATOM     16  C   UNL     1      -7.587  19.457  68.591  0.00  0.00    +0.026 C 
ATOM     17  C   UNL     1      -7.784  20.074  67.450  0.00  0.00    +0.088 C 
BRANCH  17  18
ATOM     18  C   UNL     1      -8.122  19.374  66.205  0.00  0.00    +0.388 C 
ATOM     19  O   UNL     1      -7.126  19.385  65.224  0.00  0.00    -0.241 OA
ATOM     20  O   UNL     1      -9.308  19.341  65.765  0.00  0.00    -0.241 OA
ENDBRANCH  17  18
ENDBRANCH  12  16
ENDBRANCH   1  10
BRANCH   2  21
ATOM     21  C   UNL     1     -11.526  16.020  70.881  0.00  0.00    +0.099 C 
BRANCH  21  22
ATOM     22  N   UNL     1     -12.862  15.942  71.461  0.00  0.00    -0.269 NA
ATOM     23  C   UNL     1     -13.548  14.726  71.117  0.00  0.00    +0.072 C 
ATOM     24  C   UNL     1     -13.834  13.983  72.396  0.00  0.00    +0.019 C 
ATOM     25  C   UNL     1     -12.827  14.587  73.343  0.00  0.00    +0.019 C 
ATOM     26  C   UNL     1     -12.795  16.023  72.898  0.00  0.00    +0.072 C 
ENDBRANCH  21  22
ENDBRANCH   2  21
TORSDOF 6
ENDMDL
MODEL 6
REMARK VINA RESULT:      -7.0      2.980      3.951
REMARK  Name = 
REMARK  6 active torsions:
REMARK  status: ('A' for Active; 'I' for Inactive)
REMARK    1  A    between atoms: C_5  and  C_6
REMARK    2  A    between atoms: C_6  and  C_14
REMARK    3  A    between atoms: C_7  and  C_8
REMARK    4  A    between atoms: C_8  and  N_9
REMARK    5  A    between atoms: C_18  and  C_19
REMARK    6  A    between atoms: C_20  and  C_21
REMARK                            x       y       z     vdW  Elec       q    Type
REMARK                         _______ _______ _______ _____ _____    ______ ____
ROOT
ATOM      1  C   UNL     1     -11.381  13.697  69.484  0.00  0.00    +0.015 C 
ATOM      2  C   UNL     1     -11.933  12.528  69.155  0.00  0.00    -0.007 C 
ENDROOT
BRANCH   1   7
ATOM      3  C   UNL     1     -12.449  15.589  74.571  0.00  0.00    +0.031 C 
ATOM      4  C   UNL     1     -12.730  15.461  73.107  0.00  0.00    -0.022 A 
ATOM      5  C   UNL     1     -12.050  16.222  72.163  0.00  0.00    -0.004 A 
ATOM      6  C   UNL     1     -11.787  15.716  70.897  0.00  0.00    -0.000 A 
ATOM      7  C   UNL     1     -11.987  14.366  70.639  0.00  0.00    +0.001 A 
ATOM      8  C   UNL     1     -12.971  13.761  71.410  0.00  0.00    -0.000 A 
ATOM      9  C   UNL     1     -13.380  14.342  72.603  0.00  0.00    -0.004 A 
ENDBRANCH   1   7
BRANCH   1  10
ATOM     10  C   UNL     1     -10.726  14.442  68.401  0.00  0.00    +0.081 A 
ATOM     11  N   UNL     1     -11.351  14.660  67.221  0.00  0.00    -0.245 NA
ATOM     12  C   UNL     1     -10.725  15.114  66.126  0.00  0.00    +0.082 A 
ATOM     13  C   UNL     1      -9.361  14.858  66.046  0.00  0.00    +0.019 A 
ATOM     14  C   UNL     1      -8.648  14.426  67.139  0.00  0.00    +0.003 A 
ATOM     15  C   UNL     1      -9.339  14.375  68.344  0.00  0.00    +0.019 A 
BRANCH  12  16
ATOM     16  C   UNL     1     -11.459  15.541  64.931  0.00  0.00    +0.026 C 
ATOM     17  C   UNL     1     -12.147  14.657  64.248  0.00  0.00    +0.088 C 
BRANCH  17  18
ATOM     18  C   UNL     1     -12.079  13.213  64.505  0.00  0.00    +0.388 C 
ATOM     19  O   UNL     1     -11.134  12.514  63.748  0.00  0.00    -0.241 OA
ATOM     20  O   UNL     1     -13.107  12.549  64.825  0.00  0.00    -0.241 OA
ENDBRANCH  17  18
ENDBRANCH  12  16
ENDBRANCH   1  10
BRANCH   2  21
ATOM     21  C   UNL     1     -11.312  11.662  68.131  0.00  0.00    +0.099 C 
BRANCH  21  22
ATOM     22  N   UNL     1     -10.293  10.855  68.793  0.00  0.00    -0.269 NA
ATOM     23  C   UNL     1     -10.830  10.025  69.836  0.00  0.00    +0.072 C 
ATOM     24  C   UNL     1     -10.565   8.590  69.462  0.00  0.00    +0.019 C 
ATOM     25  C   UNL     1     -10.349   8.687  67.972  0.00  0.00    +0.019 C 
ATOM     26  C   UNL     1      -9.629  10.000  67.841  0.00  0.00    +0.072 C 
ENDBRANCH  21  22
ENDBRANCH   2  21
TORSDOF 6
ENDMDL
MODEL 7
REMARK VINA RESULT:      -7.0      2.267      5.774
REMARK  Name = 
REMARK  6 active torsions:
REMARK  status: ('A' for Active; 'I' for Inactive)
REMARK    1  A    between atoms: C_5  and  C_6
REMARK    2  A    between atoms: C_6  and  C_14
REMARK    3  A    between atoms: C_7  and  C_8
REMARK    4  A    between atoms: C_8  and  N_9
REMARK    5  A    between atoms: C_18  and  C_19
REMARK    6  A    between atoms: C_20  and  C_21
REMARK                            x       y       z     vdW  Elec       q    Type
REMARK                         _______ _______ _______ _____ _____    ______ ____
ROOT
ATOM      1  C   UNL     1     -10.862  15.449  67.887  0.00  0.00    +0.015 C 
ATOM      2  C   UNL     1     -11.140  15.048  69.129  0.00  0.00    -0.007 C 
ENDROOT
BRANCH   1   7
ATOM      3  C   UNL     1     -12.309  12.384  63.516  0.00  0.00    +0.031 C 
ATOM      4  C   UNL     1     -11.459  12.694  64.707  0.00  0.00    -0.022 A 
ATOM      5  C   UNL     1     -10.430  13.627  64.648  0.00  0.00    -0.004 A 
ATOM      6  C   UNL     1     -10.096  14.390  65.759  0.00  0.00    -0.000 A 
ATOM      7  C   UNL     1     -10.937  14.401  66.866  0.00  0.00    +0.001 A 
ATOM      8  C   UNL     1     -11.681  13.243  67.049  0.00  0.00    -0.000 A 
ATOM      9  C   UNL     1     -11.884  12.368  65.989  0.00  0.00    -0.004 A 
ENDBRANCH   1   7
BRANCH   1  10
ATOM     10  C   UNL     1      -9.973  16.610  67.757  0.00  0.00    +0.081 A 
ATOM     11  N   UNL     1      -8.807  16.683  68.439  0.00  0.00    -0.245 NA
ATOM     12  C   UNL     1      -8.083  17.805  68.547  0.00  0.00    +0.082 A 
ATOM     13  C   UNL     1      -8.777  19.002  68.415  0.00  0.00    +0.019 A 
ATOM     14  C   UNL     1     -10.061  19.035  67.924  0.00  0.00    +0.003 A 
ATOM     15  C   UNL     1     -10.573  17.829  67.459  0.00  0.00    +0.019 A 
BRANCH  12  16
ATOM     16  C   UNL     1      -6.727  17.806  69.107  0.00  0.00    +0.026 C 
ATOM     17  C   UNL     1      -5.734  17.342  68.386  0.00  0.00    +0.088 C 
BRANCH  17  18
ATOM     18  C   UNL     1      -5.925  16.646  67.107  0.00  0.00    +0.388 C 
ATOM     19  O   UNL     1      -5.902  15.250  67.177  0.00  0.00    -0.241 OA
ATOM     20  O   UNL     1      -5.506  17.136  66.019  0.00  0.00    -0.241 OA
ENDBRANCH  17  18
ENDBRANCH  12  16
ENDBRANCH   1  10
BRANCH   2  21
ATOM     21  C   UNL     1     -11.281  16.028  70.225  0.00  0.00    +0.099 C 
BRANCH  21  22
ATOM     22  N   UNL     1     -11.625  15.292  71.436  0.00  0.00    -0.269 NA
ATOM     23  C   UNL     1     -12.070  16.148  72.502  0.00  0.00    +0.072 C 
ATOM     24  C   UNL     1     -13.487  15.761  72.840  0.00  0.00    +0.019 C 
ATOM     25  C   UNL     1     -13.926  15.048  71.585  0.00  0.00    +0.019 C 
ATOM     26  C   UNL     1     -12.670  14.336  71.167  0.00  0.00    +0.072 C 
ENDBRANCH  21  22
ENDBRANCH   2  21
TORSDOF 6
ENDMDL
MODEL 8
REMARK VINA RESULT:      -6.9      1.872      2.601
REMARK  Name = 
REMARK  6 active torsions:
REMARK  status: ('A' for Active; 'I' for Inactive)
REMARK    1  A    between atoms: C_5  and  C_6
REMARK    2  A    between atoms: C_6  and  C_14
REMARK    3  A    between atoms: C_7  and  C_8
REMARK    4  A    between atoms: C_8  and  N_9
REMARK    5  A    between atoms: C_18  and  C_19
REMARK    6  A    between atoms: C_20  and  C_21
REMARK                            x       y       z     vdW  Elec       q    Type
REMARK                         _______ _______ _______ _____ _____    ______ ____
ROOT
ATOM      1  C   UNL     1     -10.409  14.931  68.956  0.00  0.00    +0.015 C 
ATOM      2  C   UNL     1     -10.605  13.834  68.223  0.00  0.00    -0.007 C 
ENDROOT
BRANCH   1   7
ATOM      3  C   UNL     1     -12.378  14.951  74.125  0.00  0.00    +0.031 C 
ATOM      4  C   UNL     1     -12.498  15.165  72.649  0.00  0.00    -0.022 A 
ATOM      5  C   UNL     1     -12.018  16.317  72.037  0.00  0.00    -0.004 A 
ATOM      6  C   UNL     1     -11.519  16.280  70.741  0.00  0.00    -0.000 A 
ATOM      7  C   UNL     1     -11.274  15.055  70.132  0.00  0.00    +0.001 A 
ATOM      8  C   UNL     1     -12.079  14.011  70.570  0.00  0.00    -0.000 A 
ATOM      9  C   UNL     1     -12.734  14.098  71.792  0.00  0.00    -0.004 A 
ENDBRANCH   1   7
BRANCH   1  10
ATOM     10  C   UNL     1      -9.870  16.102  68.252  0.00  0.00    +0.081 A 
ATOM     11  N   UNL     1      -8.740  16.715  68.673  0.00  0.00    -0.245 NA
ATOM     12  C   UNL     1      -8.338  17.913  68.226  0.00  0.00    +0.082 A 
ATOM     13  C   UNL     1      -9.333  18.754  67.739  0.00  0.00    +0.019 A 
ATOM     14  C   UNL     1     -10.596  18.286  67.468  0.00  0.00    +0.003 A 
ATOM     15  C   UNL     1     -10.785  16.914  67.593  0.00  0.00    +0.019 A 
BRANCH  12  16
ATOM     16  C   UNL     1      -7.011  18.455  68.536  0.00  0.00    +0.026 C 
ATOM     17  C   UNL     1      -6.068  18.405  67.626  0.00  0.00    +0.088 C 
BRANCH  17  18
ATOM     18  C   UNL     1      -6.207  17.669  66.363  0.00  0.00    +0.388 C 
ATOM     19  O   UNL     1      -5.164  16.785  66.070  0.00  0.00    -0.241 OA
ATOM     20  O   UNL     1      -6.775  18.182  65.356  0.00  0.00    -0.241 OA
ENDBRANCH  17  18
ENDBRANCH  12  16
ENDBRANCH   1  10
BRANCH   2  21
ATOM     21  C   UNL     1      -9.687  13.490  67.118  0.00  0.00    +0.099 C 
BRANCH  21  22
ATOM     22  N   UNL     1     -10.492  12.955  66.025  0.00  0.00    -0.269 NA
ATOM     23  C   UNL     1     -11.893  12.898  66.341  0.00  0.00    +0.072 C 
ATOM     24  C   UNL     1     -12.620  13.783  65.361  0.00  0.00    +0.019 C 
ATOM     25  C   UNL     1     -11.516  14.690  64.877  0.00  0.00    +0.019 C 
ATOM     26  C   UNL     1     -10.335  13.761  64.840  0.00  0.00    +0.072 C 
ENDBRANCH  21  22
ENDBRANCH   2  21
TORSDOF 6
ENDMDL
MODEL 9
REMARK VINA RESULT:      -6.9      2.613      3.696
REMARK  Name = 
REMARK  6 active torsions:
REMARK  status: ('A' for Active; 'I' for Inactive)
REMARK    1  A    between atoms: C_5  and  C_6
REMARK    2  A    between atoms: C_6  and  C_14
REMARK    3  A    between atoms: C_7  and  C_8
REMARK    4  A    between atoms: C_8  and  N_9
REMARK    5  A    between atoms: C_18  and  C_19
REMARK    6  A    between atoms: C_20  and  C_21
REMARK                            x       y       z     vdW  Elec       q    Type
REMARK                         _______ _______ _______ _____ _____    ______ ____
ROOT
ATOM      1  C   UNL     1     -11.490  12.815  69.549  0.00  0.00    +0.015 C 
ATOM      2  C   UNL     1     -11.761  11.519  69.713  0.00  0.00    -0.007 C 
ENDROOT
BRANCH   1   7
ATOM      3  C   UNL     1     -12.624  15.850  74.032  0.00  0.00    +0.031 C 
ATOM      4  C   UNL     1     -12.916  15.338  72.657  0.00  0.00    -0.022 A 
ATOM      5  C   UNL     1     -12.309  15.881  71.531  0.00  0.00    -0.004 A 
ATOM      6  C   UNL     1     -12.026  15.092  70.424  0.00  0.00    -0.000 A 
ATOM      7  C   UNL     1     -12.128  13.709  70.519  0.00  0.00    +0.001 A 
ATOM      8  C   UNL     1     -13.053  13.252  71.448  0.00  0.00    -0.000 A 
ATOM      9  C   UNL     1     -13.488  14.085  72.471  0.00  0.00    -0.004 A 
ENDBRANCH   1   7
BRANCH   1  10
ATOM     10  C   UNL     1     -11.152  13.247  68.187  0.00  0.00    +0.081 A 
ATOM     11  N   UNL     1     -10.193  14.175  67.962  0.00  0.00    -0.245 NA
ATOM     12  C   UNL     1     -10.011  14.779  66.780  0.00  0.00    +0.082 A 
ATOM     13  C   UNL     1     -11.121  14.847  65.945  0.00  0.00    +0.019 A 
ATOM     14  C   UNL     1     -12.248  14.099  66.191  0.00  0.00    +0.003 A 
ATOM     15  C   UNL     1     -12.168  13.191  67.241  0.00  0.00    +0.019 A 
BRANCH  12  16
ATOM     16  C   UNL     1      -8.840  15.617  66.505  0.00  0.00    +0.026 C 
ATOM     17  C   UNL     1      -8.952  16.922  66.576  0.00  0.00    +0.088 C 
BRANCH  17  18
ATOM     18  C   UNL     1     -10.239  17.611  66.737  0.00  0.00    +0.388 C 
ATOM     19  O   UNL     1     -10.616  18.430  65.668  0.00  0.00    -0.241 OA
ATOM     20  O   UNL     1     -10.651  17.986  67.872  0.00  0.00    -0.241 OA
ENDBRANCH  17  18
ENDBRANCH  12  16
ENDBRANCH   1  10
BRANCH   2  21
ATOM     21  C   UNL     1     -11.047  10.493  68.925  0.00  0.00    +0.099 C 
BRANCH  21  22
ATOM     22  N   UNL     1     -10.192   9.747  69.842  0.00  0.00    -0.269 NA
ATOM     23  C   UNL     1     -10.834   9.464  71.097  0.00  0.00    +0.072 C 
ATOM     24  C   UNL     1     -10.915   7.967  71.243  0.00  0.00    +0.019 C 
ATOM     25  C   UNL     1     -10.774   7.503  69.814  0.00  0.00    +0.019 C 
ATOM     26  C   UNL     1      -9.792   8.494  69.254  0.00  0.00    +0.072 C 
ENDBRANCH  21  22
ENDBRANCH   2  21
TORSDOF 6
ENDMDL
