MODEL 1
REMARK VINA RESULT:      -8.8      0.000      0.000
REMARK  Name = 
REMARK  4 active torsions:
REMARK  status: ('A' for Active; 'I' for Inactive)
REMARK    1  A    between atoms: C_20  and  C_21
REMARK    2  A    between atoms: N_23  and  C_24
REMARK    3  A    between atoms: C_26  and  C_27
REMARK    4  A    between atoms: C_33  and  C_34
REMARK                            x       y       z     vdW  Elec       q    Type
REMARK                         _______ _______ _______ _____ _____    ______ ____
ROOT
ATOM      1  C   UNL     1     -10.694  10.448  69.076  0.00  0.00    +0.000 C 
ATOM      2  C   UNL     1     -10.536   8.957  69.055  0.00  0.00    +0.008 C 
ATOM      3  C   UNL     1     -10.673   9.575  67.695  0.00  0.00    +0.079 C 
ATOM      4  C   UNL     1     -10.609   8.476  66.677  0.00  0.00    +0.009 C 
ATOM      5  C   UNL     1     -10.432   7.178  67.407  0.00  0.00    +0.001 C 
ATOM      6  C   UNL     1     -10.387   7.474  68.876  0.00  0.00    +0.000 C 
ATOM      7  C   UNL     1     -10.230   6.587  70.075  0.00  0.00    +0.000 C 
ATOM      8  C   UNL     1     -10.081   5.105  69.897  0.00  0.00    +0.002 C 
ATOM      9  C   UNL     1      -9.923   4.217  71.096  0.00  0.00    +0.022 C 
ATOM     10  C   UNL     1      -9.915   4.812  72.473  0.00  0.00    +0.099 C 
ATOM     11  C   UNL     1     -10.064   6.293  72.651  0.00  0.00    +0.037 C 
ATOM     12  C   UNL     1     -10.212   7.775  72.829  0.00  0.00    +0.006 C 
ATOM     13  C   UNL     1     -10.055   6.888  74.029  0.00  0.00    -0.020 C 
ATOM     14  C   UNL     1      -9.898   6.001  75.227  0.00  0.00    +0.055 C 
ATOM     15  C   UNL     1      -9.749   4.518  75.049  0.00  0.00    +0.265 C 
ATOM     16  O   UNL     1      -9.591   3.631  76.248  0.00  0.00    -0.268 OA
ATOM     17  N   UNL     1      -9.757   3.924  73.672  0.00  0.00    -0.203 NA
ATOM     18  C   UNL     1     -10.221   7.181  71.452  0.00  0.00    +0.005 C 
ATOM     19  C   UNL     1     -10.370   8.663  71.630  0.00  0.00    +0.000 C 
ATOM     20  C   UNL     1     -10.528   9.551  70.432  0.00  0.00    +0.000 C 
ENDROOT
BRANCH   3  21
ATOM     21  C   UNL     1     -10.844  11.037  67.405  0.00  0.00    +0.245 C 
ATOM     22  N   UNL     1      -9.786  11.780  66.647  0.00  0.00    -0.179 NA
ATOM     23  O   UNL     1     -12.075  11.755  67.873  0.00  0.00    -0.273 OA
BRANCH  22  24
ATOM     24  C   UNL     1      -9.957  13.242  66.356  0.00  0.00    +0.077 A 
ATOM     25  C   UNL     1     -10.756  13.681  65.165  0.00  0.00    +0.087 A 
ATOM     26  C   UNL     1     -10.928  15.143  64.875  0.00  0.00    +0.005 A 
ATOM     27  C   UNL     1     -10.300  16.165  65.776  0.00  0.00    +0.004 A 
ATOM     28  C   UNL     1      -9.501  15.726  66.966  0.00  0.00    +0.073 A 
ATOM     29  C   UNL     1      -9.329  14.264  67.257  0.00  0.00    +0.020 A 
BRANCH  25  30
ATOM     30  C   UNL     1     -11.385  12.660  64.264  0.00  0.00    +0.420 C 
ATOM     31  F   UNL     1     -10.090  12.524  63.518  0.00  0.00    -0.166 F 
ATOM     32  F   UNL     1     -12.678  12.796  65.011  0.00  0.00    -0.166 F 
ATOM     33  F   UNL     1     -12.013  11.638  63.364  0.00  0.00    -0.166 F 
ENDBRANCH  25  30
BRANCH  28  34
ATOM     34  C   UNL     1      -8.872  16.747  67.867  0.00  0.00    +0.419 C 
ATOM     35  F   UNL     1      -9.166  15.880  69.056  0.00  0.00    -0.166 F 
ATOM     36  F   UNL     1      -8.579  17.615  66.679  0.00  0.00    -0.166 F 
ATOM     37  F   UNL     1      -8.245  17.769  68.769  0.00  0.00    -0.166 F 
ENDBRANCH  28  34
ENDBRANCH  22  24
ENDBRANCH   3  21
TORSDOF 4
ENDMDL
MODEL 2
REMARK VINA RESULT:      -8.6      5.250     10.319
REMARK  Name = 
REMARK  4 active torsions:
REMARK  status: ('A' for Active; 'I' for Inactive)
REMARK    1  A    between atoms: C_20  and  C_21
REMARK    2  A    between atoms: N_23  and  C_24
REMARK    3  A    between atoms: C_26  and  C_27
REMARK    4  A    between atoms: C_33  and  C_34
REMARK                            x       y       z     vdW  Elec       q    Type
REMARK                         _______ _______ _______ _____ _____    ______ ____
ROOT
ATOM      1  C   UNL     1     -11.262   9.046  69.997  0.00  0.00    +0.000 C 
ATOM      2  C   UNL     1     -11.735  10.440  70.281  0.00  0.00    +0.008 C 
ATOM      3  C   UNL     1     -12.305   9.403  71.203  0.00  0.00    +0.079 C 
ATOM      4  C   UNL     1     -13.215  10.095  72.173  0.00  0.00    +0.009 C 
ATOM      5  C   UNL     1     -13.208  11.559  71.853  0.00  0.00    +0.001 C 
ATOM      6  C   UNL     1     -12.294  11.773  70.684  0.00  0.00    +0.000 C 
ATOM      7  C   UNL     1     -11.897  13.010  69.933  0.00  0.00    +0.000 C 
ATOM      8  C   UNL     1     -12.455  14.343  70.334  0.00  0.00    +0.002 C 
ATOM      9  C   UNL     1     -12.059  15.579  69.583  0.00  0.00    +0.022 C 
ATOM     10  C   UNL     1     -11.104  15.483  68.431  0.00  0.00    +0.099 C 
ATOM     11  C   UNL     1     -10.546  14.150  68.029  0.00  0.00    +0.037 C 
ATOM     12  C   UNL     1      -9.987  12.817  67.627  0.00  0.00    +0.006 C 
ATOM     13  C   UNL     1      -9.591  14.054  66.876  0.00  0.00    -0.020 C 
ATOM     14  C   UNL     1      -9.194  15.289  66.125  0.00  0.00    +0.055 C 
ATOM     15  C   UNL     1      -9.752  16.623  66.527  0.00  0.00    +0.265 C 
ATOM     16  O   UNL     1      -9.355  17.859  65.776  0.00  0.00    -0.268 OA
ATOM     17  N   UNL     1     -10.707  16.720  67.679  0.00  0.00    -0.203 NA
ATOM     18  C   UNL     1     -10.942  12.914  68.780  0.00  0.00    +0.005 C 
ATOM     19  C   UNL     1     -10.384  11.581  68.378  0.00  0.00    +0.000 C 
ATOM     20  C   UNL     1     -10.780  10.344  69.128  0.00  0.00    +0.000 C 
ENDROOT
BRANCH   3  21
ATOM     21  C   UNL     1     -12.016   7.932  71.160  0.00  0.00    +0.245 C 
ATOM     22  N   UNL     1     -10.670   7.419  71.580  0.00  0.00    -0.179 NA
ATOM     23  O   UNL     1     -13.072   6.973  70.698  0.00  0.00    -0.273 OA
BRANCH  22  24
ATOM     24  C   UNL     1     -10.381   5.948  71.537  0.00  0.00    +0.077 A 
ATOM     25  C   UNL     1      -9.895   5.316  70.267  0.00  0.00    +0.087 A 
ATOM     26  C   UNL     1      -9.605   3.844  70.225  0.00  0.00    +0.005 A 
ATOM     27  C   UNL     1      -9.802   3.006  71.453  0.00  0.00    +0.004 A 
ATOM     28  C   UNL     1     -10.287   3.639  72.724  0.00  0.00    +0.073 A 
ATOM     29  C   UNL     1     -10.577   5.110  72.766  0.00  0.00    +0.020 A 
BRANCH  25  30
ATOM     30  C   UNL     1      -9.699   6.154  69.039  0.00  0.00    +0.420 C 
ATOM     31  F   UNL     1      -8.315   6.504  69.500  0.00  0.00    -0.166 F 
ATOM     32  F   UNL     1     -11.082   5.802  68.578  0.00  0.00    -0.166 F 
ATOM     33  F   UNL     1      -9.502   6.992  67.810  0.00  0.00    -0.166 F 
ENDBRANCH  25  30
BRANCH  28  34
ATOM     34  C   UNL     1     -10.484   2.801  73.952  0.00  0.00    +0.419 C 
ATOM     35  F   UNL     1     -10.345   1.556  73.126  0.00  0.00    -0.166 F 
ATOM     36  F   UNL     1     -10.623   4.045  74.779  0.00  0.00    -0.166 F 
ATOM     37  F   UNL     1     -10.680   1.962  75.180  0.00  0.00    -0.166 F 
ENDBRANCH  28  34
ENDBRANCH  22  24
ENDBRANCH   3  21
TORSDOF 4
ENDMDL
MODEL 3
REMARK VINA RESULT:      -8.4      4.946     10.418
REMARK  Name = 
REMARK  4 active torsions:
REMARK  status: ('A' for Active; 'I' for Inactive)
REMARK    1  A    between atoms: C_20  and  C_21
REMARK    2  A    between atoms: N_23  and  C_24
REMARK    3  A    between atoms: C_26  and  C_27
REMARK    4  A    between atoms: C_33  and  C_34
REMARK                            x       y       z     vdW  Elec       q    Type
REMARK                         _______ _______ _______ _____ _____    ______ ____
ROOT
ATOM      1  C   UNL     1     -11.153   9.126  69.723  0.00  0.00    +0.000 C 
ATOM      2  C   UNL     1     -11.640  10.493  70.100  0.00  0.00    +0.008 C 
ATOM      3  C   UNL     1     -12.143   9.399  70.994  0.00  0.00    +0.079 C 
ATOM      4  C   UNL     1     -13.018  10.021  72.041  0.00  0.00    +0.009 C 
ATOM      5  C   UNL     1     -13.057  11.499  71.795  0.00  0.00    +0.001 C 
ATOM      6  C   UNL     1     -12.205  11.792  70.596  0.00  0.00    +0.000 C 
ATOM      7  C   UNL     1     -11.871  13.073  69.891  0.00  0.00    +0.000 C 
ATOM      8  C   UNL     1     -12.435  14.371  70.386  0.00  0.00    +0.002 C 
ATOM      9  C   UNL     1     -12.101  15.652  69.681  0.00  0.00    +0.022 C 
ATOM     10  C   UNL     1     -11.202  15.635  68.480  0.00  0.00    +0.099 C 
ATOM     11  C   UNL     1     -10.637  14.337  67.985  0.00  0.00    +0.037 C 
ATOM     12  C   UNL     1     -10.072  13.039  67.490  0.00  0.00    +0.006 C 
ATOM     13  C   UNL     1      -9.738  14.320  66.784  0.00  0.00    -0.020 C 
ATOM     14  C   UNL     1      -9.403  15.600  66.079  0.00  0.00    +0.055 C 
ATOM     15  C   UNL     1      -9.968  16.899  66.574  0.00  0.00    +0.265 C 
ATOM     16  O   UNL     1      -9.633  18.179  65.869  0.00  0.00    -0.268 OA
ATOM     17  N   UNL     1     -10.867  16.916  67.775  0.00  0.00    -0.203 NA
ATOM     18  C   UNL     1     -10.972  13.056  68.690  0.00  0.00    +0.005 C 
ATOM     19  C   UNL     1     -10.407  11.757  68.195  0.00  0.00    +0.000 C 
ATOM     20  C   UNL     1     -10.741  10.476  68.900  0.00  0.00    +0.000 C 
ENDROOT
BRANCH   3  21
ATOM     21  C   UNL     1     -11.826   7.939  70.863  0.00  0.00    +0.245 C 
ATOM     22  N   UNL     1     -10.405   7.469  70.946  0.00  0.00    -0.179 NA
ATOM     23  O   UNL     1     -12.932   6.948  70.650  0.00  0.00    -0.273 OA
BRANCH  22  24
ATOM     24  C   UNL     1     -10.088   6.008  70.815  0.00  0.00    +0.077 A 
ATOM     25  C   UNL     1      -9.977   5.153  72.041  0.00  0.00    +0.087 A 
ATOM     26  C   UNL     1      -9.660   3.692  71.911  0.00  0.00    +0.005 A 
ATOM     27  C   UNL     1      -9.455   3.088  70.553  0.00  0.00    +0.004 A 
ATOM     28  C   UNL     1      -9.566   3.944  69.326  0.00  0.00    +0.073 A 
ATOM     29  C   UNL     1      -9.883   5.405  69.457  0.00  0.00    +0.020 A 
BRANCH  25  30
ATOM     30  C   UNL     1     -10.182   5.756  73.399  0.00  0.00    +0.420 C 
ATOM     31  F   UNL     1      -8.715   6.060  73.485  0.00  0.00    -0.166 F 
ATOM     32  F   UNL     1     -11.648   5.453  73.313  0.00  0.00    -0.166 F 
ATOM     33  F   UNL     1     -10.387   6.360  74.757  0.00  0.00    -0.166 F 
ENDBRANCH  25  30
BRANCH  28  34
ATOM     34  C   UNL     1      -9.361   3.340  67.969  0.00  0.00    +0.419 C 
ATOM     35  F   UNL     1      -8.867   4.661  67.456  0.00  0.00    -0.166 F 
ATOM     36  F   UNL     1      -9.856   2.020  68.481  0.00  0.00    -0.166 F 
ATOM     37  F   UNL     1      -9.156   2.737  66.611  0.00  0.00    -0.166 F 
ENDBRANCH  28  34
ENDBRANCH  22  24
ENDBRANCH   3  21
TORSDOF 4
ENDMDL
MODEL 4
REMARK VINA RESULT:      -8.3      4.635     10.628
REMARK  Name = 
REMARK  4 active torsions:
REMARK  status: ('A' for Active; 'I' for Inactive)
REMARK    1  A    between atoms: C_20  and  C_21
REMARK    2  A    between atoms: N_23  and  C_24
REMARK    3  A    between atoms: C_26  and  C_27
REMARK    4  A    between atoms: C_33  and  C_34
REMARK                            x       y       z     vdW  Elec       q    Type
REMARK                         _______ _______ _______ _____ _____    ______ ____
ROOT
ATOM      1  C   UNL     1     -10.255  12.633  68.026  0.00  0.00    +0.000 C 
ATOM      2  C   UNL     1     -10.428  14.058  68.461  0.00  0.00    +0.008 C 
ATOM      3  C   UNL     1     -11.371  13.100  69.125  0.00  0.00    +0.079 C 
ATOM      4  C   UNL     1     -12.243  13.880  70.062  0.00  0.00    +0.009 C 
ATOM      5  C   UNL     1     -11.839  15.322  69.979  0.00  0.00    +0.001 C 
ATOM      6  C   UNL     1     -10.718  15.432  68.989  0.00  0.00    +0.000 C 
ATOM      7  C   UNL     1      -9.923  16.607  68.501  0.00  0.00    +0.000 C 
ATOM      8  C   UNL     1     -10.212  17.980  69.029  0.00  0.00    +0.002 C 
ATOM      9  C   UNL     1      -9.416  19.155  68.540  0.00  0.00    +0.022 C 
ATOM     10  C   UNL     1      -8.332  18.955  67.523  0.00  0.00    +0.099 C 
ATOM     11  C   UNL     1      -8.043  17.581  66.995  0.00  0.00    +0.037 C 
ATOM     12  C   UNL     1      -7.754  16.207  66.467  0.00  0.00    +0.006 C 
ATOM     13  C   UNL     1      -6.958  17.382  65.978  0.00  0.00    -0.020 C 
ATOM     14  C   UNL     1      -6.163  18.555  65.489  0.00  0.00    +0.055 C 
ATOM     15  C   UNL     1      -6.452  19.930  66.017  0.00  0.00    +0.265 C 
ATOM     16  O   UNL     1      -5.657  21.103  65.528  0.00  0.00    -0.268 OA
ATOM     17  N   UNL     1      -7.536  20.129  67.034  0.00  0.00    -0.203 NA
ATOM     18  C   UNL     1      -8.838  16.407  67.484  0.00  0.00    +0.005 C 
ATOM     19  C   UNL     1      -8.549  15.033  66.955  0.00  0.00    +0.000 C 
ATOM     20  C   UNL     1      -9.344  13.859  67.444  0.00  0.00    +0.000 C 
ENDROOT
BRANCH   3  21
ATOM     21  C   UNL     1     -11.432  11.619  68.891  0.00  0.00    +0.245 C 
ATOM     22  N   UNL     1     -10.833  10.676  69.892  0.00  0.00    -0.179 NA
ATOM     23  O   UNL     1     -12.092  11.081  67.656  0.00  0.00    -0.273 OA
BRANCH  22  24
ATOM     24  C   UNL     1     -10.894   9.196  69.658  0.00  0.00    +0.077 A 
ATOM     25  C   UNL     1     -11.679   8.321  70.590  0.00  0.00    +0.087 A 
ATOM     26  C   UNL     1     -11.740   6.840  70.357  0.00  0.00    +0.005 A 
ATOM     27  C   UNL     1     -11.015   6.235  69.191  0.00  0.00    +0.004 A 
ATOM     28  C   UNL     1     -10.230   7.110  68.259  0.00  0.00    +0.073 A 
ATOM     29  C   UNL     1     -10.170   8.590  68.492  0.00  0.00    +0.020 A 
BRANCH  25  30
ATOM     30  C   UNL     1     -12.404   8.926  71.756  0.00  0.00    +0.420 C 
ATOM     31  F   UNL     1     -11.341   8.413  72.682  0.00  0.00    -0.166 F 
ATOM     32  F   UNL     1     -13.466   9.440  70.829  0.00  0.00    -0.166 F 
ATOM     33  F   UNL     1     -13.128   9.532  72.922  0.00  0.00    -0.166 F 
ENDBRANCH  25  30
BRANCH  28  34
ATOM     34  C   UNL     1      -9.506   6.504  67.093  0.00  0.00    +0.419 C 
ATOM     35  F   UNL     1      -8.195   6.923  67.691  0.00  0.00    -0.166 F 
ATOM     36  F   UNL     1     -10.817   6.086  66.496  0.00  0.00    -0.166 F 
ATOM     37  F   UNL     1      -8.781   5.899  65.928  0.00  0.00    -0.166 F 
ENDBRANCH  28  34
ENDBRANCH  22  24
ENDBRANCH   3  21
TORSDOF 4
ENDMDL
MODEL 5
REMARK VINA RESULT:      -8.3      4.525     10.711
REMARK  Name = 
REMARK  4 active torsions:
REMARK  status: ('A' for Active; 'I' for Inactive)
REMARK    1  A    between atoms: C_20  and  C_21
REMARK    2  A    between atoms: N_23  and  C_24
REMARK    3  A    between atoms: C_26  and  C_27
REMARK    4  A    between atoms: C_33  and  C_34
REMARK                            x       y       z     vdW  Elec       q    Type
REMARK                         _______ _______ _______ _____ _____    ______ ____
ROOT
ATOM      1  C   UNL     1     -10.340  12.958  68.405  0.00  0.00    +0.000 C 
ATOM      2  C   UNL     1     -10.493  14.438  68.594  0.00  0.00    +0.008 C 
ATOM      3  C   UNL     1     -11.563  13.625  69.259  0.00  0.00    +0.079 C 
ATOM      4  C   UNL     1     -12.506  14.569  69.942  0.00  0.00    +0.009 C 
ATOM      5  C   UNL     1     -12.020  15.967  69.699  0.00  0.00    +0.001 C 
ATOM      6  C   UNL     1     -10.776  15.886  68.866  0.00  0.00    +0.000 C 
ATOM      7  C   UNL     1      -9.863  16.943  68.320  0.00  0.00    +0.000 C 
ATOM      8  C   UNL     1     -10.145  18.391  68.592  0.00  0.00    +0.002 C 
ATOM      9  C   UNL     1      -9.232  19.449  68.045  0.00  0.00    +0.022 C 
ATOM     10  C   UNL     1      -8.037  19.059  67.227  0.00  0.00    +0.099 C 
ATOM     11  C   UNL     1      -7.755  17.611  66.955  0.00  0.00    +0.037 C 
ATOM     12  C   UNL     1      -7.473  16.163  66.683  0.00  0.00    +0.006 C 
ATOM     13  C   UNL     1      -6.560  17.221  66.137  0.00  0.00    -0.020 C 
ATOM     14  C   UNL     1      -5.647  18.278  65.590  0.00  0.00    +0.055 C 
ATOM     15  C   UNL     1      -5.929  19.726  65.862  0.00  0.00    +0.265 C 
ATOM     16  O   UNL     1      -5.017  20.783  65.316  0.00  0.00    -0.268 OA
ATOM     17  N   UNL     1      -7.124  20.116  66.681  0.00  0.00    -0.203 NA
ATOM     18  C   UNL     1      -8.668  16.553  67.501  0.00  0.00    +0.005 C 
ATOM     19  C   UNL     1      -8.386  15.106  67.229  0.00  0.00    +0.000 C 
ATOM     20  C   UNL     1      -9.298  14.047  67.775  0.00  0.00    +0.000 C 
ENDROOT
BRANCH   3  21
ATOM     21  C   UNL     1     -11.671  12.128  69.244  0.00  0.00    +0.245 C 
ATOM     22  N   UNL     1     -11.270  11.335  70.451  0.00  0.00    -0.179 NA
ATOM     23  O   UNL     1     -12.181  11.426  68.020  0.00  0.00    -0.273 OA
BRANCH  22  24
ATOM     24  C   UNL     1     -11.377   9.839  70.436  0.00  0.00    +0.077 A 
ATOM     25  C   UNL     1     -10.279   9.014  69.834  0.00  0.00    +0.087 A 
ATOM     26  C   UNL     1     -10.387   7.517  69.818  0.00  0.00    +0.005 A 
ATOM     27  C   UNL     1     -11.594   6.847  70.406  0.00  0.00    +0.004 A 
ATOM     28  C   UNL     1     -12.692   7.672  71.008  0.00  0.00    +0.073 A 
ATOM     29  C   UNL     1     -12.584   9.168  71.023  0.00  0.00    +0.020 A 
BRANCH  25  30
ATOM     30  C   UNL     1      -9.073   9.684  69.246  0.00  0.00    +0.420 C 
ATOM     31  F   UNL     1      -9.687   9.591  67.881  0.00  0.00    -0.166 F 
ATOM     32  F   UNL     1      -8.459   9.777  70.612  0.00  0.00    -0.166 F 
ATOM     33  F   UNL     1      -7.866  10.354  68.659  0.00  0.00    -0.166 F 
ENDBRANCH  25  30
BRANCH  28  34
ATOM     34  C   UNL     1     -13.899   7.002  71.595  0.00  0.00    +0.419 C 
ATOM     35  F   UNL     1     -14.777   8.063  71.001  0.00  0.00    -0.166 F 
ATOM     36  F   UNL     1     -13.020   5.941  72.189  0.00  0.00    -0.166 F 
ATOM     37  F   UNL     1     -15.106   6.332  72.182  0.00  0.00    -0.166 F 
ENDBRANCH  28  34
ENDBRANCH  22  24
ENDBRANCH   3  21
TORSDOF 4
ENDMDL
MODEL 6
REMARK VINA RESULT:      -8.2      7.357     13.255
REMARK  Name = 
REMARK  4 active torsions:
REMARK  status: ('A' for Active; 'I' for Inactive)
REMARK    1  A    between atoms: C_20  and  C_21
REMARK    2  A    between atoms: N_23  and  C_24
REMARK    3  A    between atoms: C_26  and  C_27
REMARK    4  A    between atoms: C_33  and  C_34
REMARK                            x       y       z     vdW  Elec       q    Type
REMARK                         _______ _______ _______ _____ _____    ______ ____
ROOT
ATOM      1  C   UNL     1      -8.320  18.902  67.011  0.00  0.00    +0.000 C 
ATOM      2  C   UNL     1      -7.047  19.681  67.160  0.00  0.00    +0.008 C 
ATOM      3  C   UNL     1      -7.671  19.278  68.463  0.00  0.00    +0.079 C 
ATOM      4  C   UNL     1      -6.803  19.794  69.572  0.00  0.00    +0.009 C 
ATOM      5  C   UNL     1      -5.642  20.516  68.954  0.00  0.00    +0.001 C 
ATOM      6  C   UNL     1      -5.793  20.446  67.464  0.00  0.00    +0.000 C 
ATOM      7  C   UNL     1      -4.950  20.980  66.344  0.00  0.00    +0.000 C 
ATOM      8  C   UNL     1      -3.696  21.745  66.648  0.00  0.00    +0.002 C 
ATOM      9  C   UNL     1      -2.853  22.279  65.527  0.00  0.00    +0.022 C 
ATOM     10  C   UNL     1      -3.264  22.048  64.103  0.00  0.00    +0.099 C 
ATOM     11  C   UNL     1      -4.518  21.283  63.800  0.00  0.00    +0.037 C 
ATOM     12  C   UNL     1      -5.772  20.518  63.496  0.00  0.00    +0.006 C 
ATOM     13  C   UNL     1      -4.929  21.052  62.376  0.00  0.00    -0.020 C 
ATOM     14  C   UNL     1      -4.087  21.586  61.256  0.00  0.00    +0.055 C 
ATOM     15  C   UNL     1      -2.833  22.351  61.559  0.00  0.00    +0.265 C 
ATOM     16  O   UNL     1      -1.991  22.885  60.439  0.00  0.00    -0.268 OA
ATOM     17  N   UNL     1      -2.422  22.582  62.983  0.00  0.00    -0.203 NA
ATOM     18  C   UNL     1      -5.361  20.749  64.920  0.00  0.00    +0.005 C 
ATOM     19  C   UNL     1      -6.615  19.984  64.616  0.00  0.00    +0.000 C 
ATOM     20  C   UNL     1      -7.458  19.450  65.736  0.00  0.00    +0.000 C 
ENDROOT
BRANCH   3  21
ATOM     21  C   UNL     1      -8.940  18.497  68.628  0.00  0.00    +0.245 C 
ATOM     22  N   UNL     1      -8.884  17.036  68.963  0.00  0.00    -0.179 NA
ATOM     23  O   UNL     1     -10.267  19.176  68.458  0.00  0.00    -0.273 OA
BRANCH  22  24
ATOM     24  C   UNL     1     -10.154  16.254  69.129  0.00  0.00    +0.077 A 
ATOM     25  C   UNL     1     -10.644  15.376  68.016  0.00  0.00    +0.087 A 
ATOM     26  C   UNL     1     -11.914  14.594  68.182  0.00  0.00    +0.005 A 
ATOM     27  C   UNL     1     -12.692  14.691  69.460  0.00  0.00    +0.004 A 
ATOM     28  C   UNL     1     -12.202  15.570  70.572  0.00  0.00    +0.073 A 
ATOM     29  C   UNL     1     -10.933  16.352  70.407  0.00  0.00    +0.020 A 
BRANCH  25  30
ATOM     30  C   UNL     1      -9.865  15.279  66.738  0.00  0.00    +0.420 C 
ATOM     31  F   UNL     1      -9.192  14.037  67.243  0.00  0.00    -0.166 F 
ATOM     32  F   UNL     1     -10.538  16.521  66.233  0.00  0.00    -0.166 F 
ATOM     33  F   UNL     1      -9.086  15.182  65.460  0.00  0.00    -0.166 F 
ENDBRANCH  25  30
BRANCH  28  34
ATOM     34  C   UNL     1     -12.981  15.667  71.851  0.00  0.00    +0.419 C 
ATOM     35  F   UNL     1     -14.024  14.749  71.285  0.00  0.00    -0.166 F 
ATOM     36  F   UNL     1     -11.939  16.585  72.416  0.00  0.00    -0.166 F 
ATOM     37  F   UNL     1     -13.761  15.764  73.129  0.00  0.00    -0.166 F 
ENDBRANCH  28  34
ENDBRANCH  22  24
ENDBRANCH   3  21
TORSDOF 4
ENDMDL
MODEL 7
REMARK VINA RESULT:      -8.2      3.067      3.900
REMARK  Name = 
REMARK  4 active torsions:
REMARK  status: ('A' for Active; 'I' for Inactive)
REMARK    1  A    between atoms: C_20  and  C_21
REMARK    2  A    between atoms: N_23  and  C_24
REMARK    3  A    between atoms: C_26  and  C_27
REMARK    4  A    between atoms: C_33  and  C_34
REMARK                            x       y       z     vdW  Elec       q    Type
REMARK                         _______ _______ _______ _____ _____    ______ ____
ROOT
ATOM      1  C   UNL     1     -10.209   9.698  69.337  0.00  0.00    +0.000 C 
ATOM      2  C   UNL     1     -10.030   8.491  68.467  0.00  0.00    +0.008 C 
ATOM      3  C   UNL     1     -10.102   9.783  67.709  0.00  0.00    +0.079 C 
ATOM      4  C   UNL     1      -9.968   9.472  66.248  0.00  0.00    +0.009 C 
ATOM      5  C   UNL     1      -9.813   7.988  66.102  0.00  0.00    +0.001 C 
ATOM      6  C   UNL     1      -9.851   7.381  67.473  0.00  0.00    +0.000 C 
ATOM      7  C   UNL     1      -9.746   5.961  67.945  0.00  0.00    +0.000 C 
ATOM      8  C   UNL     1      -9.567   4.851  66.952  0.00  0.00    +0.002 C 
ATOM      9  C   UNL     1      -9.462   3.431  67.425  0.00  0.00    +0.022 C 
ATOM     10  C   UNL     1      -9.536   3.121  68.890  0.00  0.00    +0.099 C 
ATOM     11  C   UNL     1      -9.715   4.231  69.884  0.00  0.00    +0.037 C 
ATOM     12  C   UNL     1      -9.894   5.340  70.877  0.00  0.00    +0.006 C 
ATOM     13  C   UNL     1      -9.788   3.920  71.349  0.00  0.00    -0.020 C 
ATOM     14  C   UNL     1      -9.684   2.501  71.822  0.00  0.00    +0.055 C 
ATOM     15  C   UNL     1      -9.505   1.391  70.829  0.00  0.00    +0.265 C 
ATOM     16  O   UNL     1      -9.400  -0.028  71.301  0.00  0.00    -0.268 OA
ATOM     17  N   UNL     1      -9.431   1.701  69.363  0.00  0.00    -0.203 NA
ATOM     18  C   UNL     1      -9.820   5.651  69.411  0.00  0.00    +0.005 C 
ATOM     19  C   UNL     1      -9.999   6.760  70.404  0.00  0.00    +0.000 C 
ATOM     20  C   UNL     1     -10.104   8.180  69.933  0.00  0.00    +0.000 C 
ENDROOT
BRANCH   3  21
ATOM     21  C   UNL     1     -10.278  11.147  68.308  0.00  0.00    +0.245 C 
ATOM     22  N   UNL     1     -11.650  11.735  68.444  0.00  0.00    -0.179 NA
ATOM     23  O   UNL     1      -9.080  11.922  68.770  0.00  0.00    -0.273 OA
BRANCH  22  24
ATOM     24  C   UNL     1     -11.826  13.100  69.043  0.00  0.00    +0.077 A 
ATOM     25  C   UNL     1     -11.682  14.320  68.183  0.00  0.00    +0.087 A 
ATOM     26  C   UNL     1     -11.858  15.684  68.781  0.00  0.00    +0.005 A 
ATOM     27  C   UNL     1     -12.177  15.827  70.240  0.00  0.00    +0.004 A 
ATOM     28  C   UNL     1     -12.320  14.607  71.100  0.00  0.00    +0.073 A 
ATOM     29  C   UNL     1     -12.144  13.243  70.502  0.00  0.00    +0.020 A 
BRANCH  25  30
ATOM     30  C   UNL     1     -11.363  14.177  66.724  0.00  0.00    +0.420 C 
ATOM     31  F   UNL     1      -9.901  14.301  67.033  0.00  0.00    -0.166 F 
ATOM     32  F   UNL     1     -12.826  14.054  66.416  0.00  0.00    -0.166 F 
ATOM     33  F   UNL     1     -11.045  14.034  65.265  0.00  0.00    -0.166 F 
ENDBRANCH  25  30
BRANCH  28  34
ATOM     34  C   UNL     1     -12.639  14.750  72.559  0.00  0.00    +0.419 C 
ATOM     35  F   UNL     1     -13.358  13.434  72.531  0.00  0.00    -0.166 F 
ATOM     36  F   UNL     1     -11.920  16.066  72.587  0.00  0.00    -0.166 F 
ATOM     37  F   UNL     1     -12.958  14.892  74.018  0.00  0.00    -0.166 F 
ENDBRANCH  28  34
ENDBRANCH  22  24
ENDBRANCH   3  21
TORSDOF 4
ENDMDL
MODEL 8
REMARK VINA RESULT:      -8.2      5.440     10.603
REMARK  Name = 
REMARK  4 active torsions:
REMARK  status: ('A' for Active; 'I' for Inactive)
REMARK    1  A    between atoms: C_20  and  C_21
REMARK    2  A    between atoms: N_23  and  C_24
REMARK    3  A    between atoms: C_26  and  C_27
REMARK    4  A    between atoms: C_33  and  C_34
REMARK                            x       y       z     vdW  Elec       q    Type
REMARK                         _______ _______ _______ _____ _____    ______ ____
ROOT
ATOM      1  C   UNL     1      -9.867   7.755  69.308  0.00  0.00    +0.000 C 
ATOM      2  C   UNL     1      -9.679   8.122  67.866  0.00  0.00    +0.008 C 
ATOM      3  C   UNL     1      -9.062   6.809  68.246  0.00  0.00    +0.079 C 
ATOM      4  C   UNL     1      -8.414   6.230  67.023  0.00  0.00    +0.009 C 
ATOM      5  C   UNL     1      -8.631   7.185  65.888  0.00  0.00    +0.001 C 
ATOM      6  C   UNL     1      -9.412   8.354  66.408  0.00  0.00    +0.000 C 
ATOM      7  C   UNL     1      -9.916   9.601  65.743  0.00  0.00    +0.000 C 
ATOM      8  C   UNL     1      -9.650   9.834  64.285  0.00  0.00    +0.002 C 
ATOM      9  C   UNL     1     -10.154  11.080  63.620  0.00  0.00    +0.022 C 
ATOM     10  C   UNL     1     -10.924  12.095  64.413  0.00  0.00    +0.099 C 
ATOM     11  C   UNL     1     -11.190  11.862  65.870  0.00  0.00    +0.037 C 
ATOM     12  C   UNL     1     -11.457  11.630  67.328  0.00  0.00    +0.006 C 
ATOM     13  C   UNL     1     -11.961  12.876  66.663  0.00  0.00    -0.020 C 
ATOM     14  C   UNL     1     -12.464  14.122  65.999  0.00  0.00    +0.055 C 
ATOM     15  C   UNL     1     -12.198  14.356  64.540  0.00  0.00    +0.265 C 
ATOM     16  O   UNL     1     -12.702  15.602  63.876  0.00  0.00    -0.268 OA
ATOM     17  N   UNL     1     -11.428  13.341  63.748  0.00  0.00    -0.203 NA
ATOM     18  C   UNL     1     -10.687  10.615  66.535  0.00  0.00    +0.005 C 
ATOM     19  C   UNL     1     -10.953  10.383  67.993  0.00  0.00    +0.000 C 
ATOM     20  C   UNL     1     -10.450   9.136  68.659  0.00  0.00    +0.000 C 
ENDROOT
BRANCH   3  21
ATOM     21  C   UNL     1      -9.088   6.184  69.609  0.00  0.00    +0.245 C 
ATOM     22  N   UNL     1     -10.272   5.371  70.039  0.00  0.00    -0.179 NA
ATOM     23  O   UNL     1      -7.929   6.374  70.543  0.00  0.00    -0.273 OA
BRANCH  22  24
ATOM     24  C   UNL     1     -10.298   4.746  71.403  0.00  0.00    +0.077 A 
ATOM     25  C   UNL     1     -10.808   5.528  72.577  0.00  0.00    +0.087 A 
ATOM     26  C   UNL     1     -10.834   4.903  73.940  0.00  0.00    +0.005 A 
ATOM     27  C   UNL     1     -10.349   3.496  74.129  0.00  0.00    +0.004 A 
ATOM     28  C   UNL     1      -9.839   2.714  72.956  0.00  0.00    +0.073 A 
ATOM     29  C   UNL     1      -9.813   3.339  71.592  0.00  0.00    +0.020 A 
BRANCH  25  30
ATOM     30  C   UNL     1     -11.292   6.935  72.388  0.00  0.00    +0.420 C 
ATOM     31  F   UNL     1     -12.641   6.416  71.987  0.00  0.00    -0.166 F 
ATOM     32  F   UNL     1      -9.943   7.454  72.789  0.00  0.00    -0.166 F 
ATOM     33  F   UNL     1     -11.776   8.342  72.199  0.00  0.00    -0.166 F 
ENDBRANCH  25  30
BRANCH  28  34
ATOM     34  C   UNL     1      -9.355   1.307  73.145  0.00  0.00    +0.419 C 
ATOM     35  F   UNL     1     -10.181   0.865  71.973  0.00  0.00    -0.166 F 
ATOM     36  F   UNL     1      -8.529   1.749  74.316  0.00  0.00    -0.166 F 
ATOM     37  F   UNL     1      -8.871  -0.100  73.333  0.00  0.00    -0.166 F 
ENDBRANCH  28  34
ENDBRANCH  22  24
ENDBRANCH   3  21
TORSDOF 4
ENDMDL
MODEL 9
REMARK VINA RESULT:      -8.2      2.620      4.112
REMARK  Name = 
REMARK  4 active torsions:
REMARK  status: ('A' for Active; 'I' for Inactive)
REMARK    1  A    between atoms: C_20  and  C_21
REMARK    2  A    between atoms: N_23  and  C_24
REMARK    3  A    between atoms: C_26  and  C_27
REMARK    4  A    between atoms: C_33  and  C_34
REMARK                            x       y       z     vdW  Elec       q    Type
REMARK                         _______ _______ _______ _____ _____    ______ ____
ROOT
ATOM      1  C   UNL     1     -10.442  13.160  67.844  0.00  0.00    +0.000 C 
ATOM      2  C   UNL     1     -10.431  11.719  67.428  0.00  0.00    +0.008 C 
ATOM      3  C   UNL     1     -10.238  12.681  66.295  0.00  0.00    +0.079 C 
ATOM      4  C   UNL     1     -10.085  11.887  65.032  0.00  0.00    +0.009 C 
ATOM      5  C   UNL     1     -10.184  10.433  65.385  0.00  0.00    +0.001 C 
ATOM      6  C   UNL     1     -10.398  10.328  66.865  0.00  0.00    +0.000 C 
ATOM      7  C   UNL     1     -10.568   9.147  67.774  0.00  0.00    +0.000 C 
ATOM      8  C   UNL     1     -10.535   7.757  67.212  0.00  0.00    +0.002 C 
ATOM      9  C   UNL     1     -10.704   6.576  68.121  0.00  0.00    +0.022 C 
ATOM     10  C   UNL     1     -10.906   6.785  69.593  0.00  0.00    +0.099 C 
ATOM     11  C   UNL     1     -10.939   8.175  70.155  0.00  0.00    +0.037 C 
ATOM     12  C   UNL     1     -10.972   9.565  70.717  0.00  0.00    +0.006 C 
ATOM     13  C   UNL     1     -11.141   8.384  71.627  0.00  0.00    -0.020 C 
ATOM     14  C   UNL     1     -11.310   7.204  72.536  0.00  0.00    +0.055 C 
ATOM     15  C   UNL     1     -11.277   5.813  71.974  0.00  0.00    +0.265 C 
ATOM     16  O   UNL     1     -11.446   4.632  72.882  0.00  0.00    -0.268 OA
ATOM     17  N   UNL     1     -11.075   5.604  70.502  0.00  0.00    -0.203 NA
ATOM     18  C   UNL     1     -10.770   9.356  69.246  0.00  0.00    +0.005 C 
ATOM     19  C   UNL     1     -10.803  10.746  69.808  0.00  0.00    +0.000 C 
ATOM     20  C   UNL     1     -10.634  11.928  68.900  0.00  0.00    +0.000 C 
ENDROOT
BRANCH   3  21
ATOM     21  C   UNL     1     -10.203  14.177  66.404  0.00  0.00    +0.245 C 
ATOM     22  N   UNL     1      -9.139  14.845  67.223  0.00  0.00    -0.179 NA
ATOM     23  O   UNL     1     -11.233  15.005  65.695  0.00  0.00    -0.273 OA
BRANCH  22  24
ATOM     24  C   UNL     1      -9.104  16.341  67.333  0.00  0.00    +0.077 A 
ATOM     25  C   UNL     1     -10.010  17.043  68.299  0.00  0.00    +0.087 A 
ATOM     26  C   UNL     1      -9.975  18.539  68.409  0.00  0.00    +0.005 A 
ATOM     27  C   UNL     1      -9.033  19.331  67.552  0.00  0.00    +0.004 A 
ATOM     28  C   UNL     1      -8.127  18.629  66.585  0.00  0.00    +0.073 A 
ATOM     29  C   UNL     1      -8.162  17.133  66.475  0.00  0.00    +0.020 A 
BRANCH  25  30
ATOM     30  C   UNL     1     -10.952  16.250  69.156  0.00  0.00    +0.420 C 
ATOM     31  F   UNL     1     -12.071  16.550  68.203  0.00  0.00    -0.166 F 
ATOM     32  F   UNL     1      -9.833  15.951  70.109  0.00  0.00    -0.166 F 
ATOM     33  F   UNL     1     -11.894  15.458  70.013  0.00  0.00    -0.166 F 
ENDBRANCH  25  30
BRANCH  28  34
ATOM     34  C   UNL     1      -7.185  19.422  65.728  0.00  0.00    +0.419 C 
ATOM     35  F   UNL     1      -6.790  18.169  65.003  0.00  0.00    -0.166 F 
ATOM     36  F   UNL     1      -7.579  20.674  66.453  0.00  0.00    -0.166 F 
ATOM     37  F   UNL     1      -6.243  20.213  64.870  0.00  0.00    -0.166 F 
ENDBRANCH  28  34
ENDBRANCH  22  24
ENDBRANCH   3  21
TORSDOF 4
ENDMDL
