MODEL 1
REMARK VINA RESULT:      -7.3      0.000      0.000
REMARK  Name = 
REMARK  15 active torsions:
REMARK  status: ('A' for Active; 'I' for Inactive)
REMARK    1  A    between atoms: C_2  and  C_3
REMARK    2  A    between atoms: C_3  and  O_5
REMARK    3  A    between atoms: O_5  and  C_6
REMARK    4  A    between atoms: C_6  and  O_7
REMARK    5  A    between atoms: C_6  and  C_37
REMARK    6  A    between atoms: O_7  and  P_8
REMARK    7  A    between atoms: P_8  and  C_10
REMARK    8  A    between atoms: P_8  and  C_20
REMARK    9  A    between atoms: C_10  and  C_11
REMARK   10  A    between atoms: C_11  and  C_12
REMARK   11  A    between atoms: C_12  and  C_13
REMARK   12  A    between atoms: C_13  and  C_14
REMARK   13  A    between atoms: C_20  and  C_21
REMARK   14  A    between atoms: C_25  and  C_26
REMARK   15  A    between atoms: C_33  and  C_34
REMARK                            x       y       z     vdW  Elec       q    Type
REMARK                         _______ _______ _______ _____ _____    ______ ____
ROOT
ATOM      1  P   UNL     1     -11.592  14.850  68.554  0.00  0.00    +0.234 P 
ATOM      2  O   UNL     1     -12.080  16.145  69.002  0.00  0.00    -0.289 OA
ENDROOT
BRANCH   1   3
ATOM      3  C   UNL     1      -9.910  15.185  67.919  0.00  0.00    +0.172 C 
BRANCH   3   4
ATOM      4  C   UNL     1      -9.077  16.015  68.790  0.00  0.00    +0.236 C 
ATOM      5  N   UNL     1      -8.539  17.218  68.203  0.00  0.00    -0.271 N 
ATOM      6  C   UNL     1      -9.722  18.244  67.880  0.00  0.00    +0.179 C 
ATOM      7  C   UNL     1      -8.767  19.601  68.094  0.00  0.00    +0.033 C 
ATOM      8  C   UNL     1      -7.553  19.006  67.144  0.00  0.00    +0.022 C 
ATOM      9  C   UNL     1      -7.332  17.857  68.306  0.00  0.00    +0.094 C 
ATOM     10  O   UNL     1      -8.241  15.340  69.470  0.00  0.00    -0.274 OA
BRANCH   8  11
ATOM     11  C   UNL     1      -6.391  19.991  67.779  0.00  0.00    +0.002 C 
ATOM     12  C   UNL     1      -5.194  19.121  68.008  0.00  0.00    +0.000 C 
ATOM     13  C   UNL     1      -4.445  19.091  66.681  0.00  0.00    +0.000 C 
ATOM     14  C   UNL     1      -3.901  20.450  66.389  0.00  0.00    +0.000 C 
ATOM     15  C   UNL     1      -4.803  21.578  66.810  0.00  0.00    +0.000 C 
ATOM     16  C   UNL     1      -6.233  21.169  66.947  0.00  0.00    +0.000 C 
ENDBRANCH   8  11
BRANCH   6  17
ATOM     17  C   UNL     1      -9.469  18.237  66.253  0.00  0.00    +0.382 C 
ATOM     18  O   UNL     1     -10.183  19.321  65.728  0.00  0.00    -0.244 OA
ATOM     19  O   UNL     1      -9.633  17.154  65.698  0.00  0.00    -0.244 OA
ENDBRANCH   6  17
ENDBRANCH   3   4
ENDBRANCH   1   3
BRANCH   1  20
ATOM     20  O   UNL     1     -12.237  13.834  67.573  0.00  0.00    -0.276 OA
BRANCH  20  21
ATOM     21  C   UNL     1     -11.338  13.066  66.564  0.00  0.00    +0.295 C 
BRANCH  21  22
ATOM     22  C   UNL     1     -12.523  13.156  65.340  0.00  0.00    +0.071 C 
ATOM     23  C   UNL     1     -11.954  12.179  64.308  0.00  0.00    +0.006 C 
ATOM     24  C   UNL     1     -12.247  14.526  64.737  0.00  0.00    +0.006 C 
ENDBRANCH  21  22
BRANCH  21  25
ATOM     25  O   UNL     1     -11.858  11.629  67.003  0.00  0.00    -0.424 OA
BRANCH  25  26
ATOM     26  C   UNL     1     -10.853  10.917  67.620  0.00  0.00    +0.319 C 
ATOM     27  O   UNL     1      -9.841  11.576  67.960  0.00  0.00    -0.250 OA
BRANCH  26  29
ATOM     28  C   UNL     1     -10.175   8.992  66.507  0.00  0.00    +0.012 C 
ATOM     29  C   UNL     1     -10.784   9.436  67.742  0.00  0.00    +0.110 C 
ENDBRANCH  26  29
ENDBRANCH  25  26
ENDBRANCH  21  25
ENDBRANCH  20  21
ENDBRANCH   1  20
BRANCH   1  30
ATOM     30  C   UNL     1     -11.314  13.941  70.133  0.00  0.00    +0.088 C 
BRANCH  30  31
ATOM     31  C   UNL     1     -12.534  13.181  70.578  0.00  0.00    +0.011 C 
BRANCH  31  32
ATOM     32  C   UNL     1     -12.354  11.706  70.690  0.00  0.00    +0.005 C 
BRANCH  32  33
ATOM     33  C   UNL     1     -13.209  11.046  71.730  0.00  0.00    +0.026 C 
BRANCH  33  34
ATOM     34  C   UNL     1     -12.898   9.625  71.962  0.00  0.00    -0.022 A 
ATOM     35  C   UNL     1     -11.656   9.191  71.505  0.00  0.00    -0.004 A 
ATOM     36  C   UNL     1     -11.398   7.899  71.139  0.00  0.00    -0.000 A 
ATOM     37  C   UNL     1     -12.440   6.985  71.130  0.00  0.00    -0.000 A 
ATOM     38  C   UNL     1     -13.711   7.392  71.506  0.00  0.00    -0.000 A 
ATOM     39  C   UNL     1     -13.875   8.643  72.013  0.00  0.00    -0.004 A 
ENDBRANCH  33  34
ENDBRANCH  32  33
ENDBRANCH  31  32
ENDBRANCH  30  31
ENDBRANCH   1  30
TORSDOF 15
ENDMDL
MODEL 2
REMARK VINA RESULT:      -7.2      2.166      4.187
REMARK  Name = 
REMARK  15 active torsions:
REMARK  status: ('A' for Active; 'I' for Inactive)
REMARK    1  A    between atoms: C_2  and  C_3
REMARK    2  A    between atoms: C_3  and  O_5
REMARK    3  A    between atoms: O_5  and  C_6
REMARK    4  A    between atoms: C_6  and  O_7
REMARK    5  A    between atoms: C_6  and  C_37
REMARK    6  A    between atoms: O_7  and  P_8
REMARK    7  A    between atoms: P_8  and  C_10
REMARK    8  A    between atoms: P_8  and  C_20
REMARK    9  A    between atoms: C_10  and  C_11
REMARK   10  A    between atoms: C_11  and  C_12
REMARK   11  A    between atoms: C_12  and  C_13
REMARK   12  A    between atoms: C_13  and  C_14
REMARK   13  A    between atoms: C_20  and  C_21
REMARK   14  A    between atoms: C_25  and  C_26
REMARK   15  A    between atoms: C_33  and  C_34
REMARK                            x       y       z     vdW  Elec       q    Type
REMARK                         _______ _______ _______ _____ _____    ______ ____
ROOT
ATOM      1  P   UNL     1     -10.341  11.021  67.015  0.00  0.00    +0.234 P 
ATOM      2  O   UNL     1     -11.706  10.717  67.415  0.00  0.00    -0.289 OA
ENDROOT
BRANCH   1   3
ATOM      3  C   UNL     1      -9.795  12.316  68.185  0.00  0.00    +0.172 C 
BRANCH   3   4
ATOM      4  C   UNL     1     -10.650  13.502  68.234  0.00  0.00    +0.236 C 
ATOM      5  N   UNL     1      -9.978  14.777  68.162  0.00  0.00    -0.271 N 
ATOM      6  C   UNL     1      -9.315  14.963  66.719  0.00  0.00    +0.179 C 
ATOM      7  C   UNL     1      -9.467  16.630  66.730  0.00  0.00    +0.033 C 
ATOM      8  C   UNL     1      -8.827  16.767  68.247  0.00  0.00    +0.022 C 
ATOM      9  C   UNL     1     -10.173  15.980  68.786  0.00  0.00    +0.094 C 
ATOM     10  O   UNL     1     -11.551  13.431  69.127  0.00  0.00    -0.274 OA
BRANCH   8  11
ATOM     11  C   UNL     1      -9.481  18.256  68.534  0.00  0.00    +0.002 C 
ATOM     12  C   UNL     1      -8.338  19.138  68.929  0.00  0.00    +0.000 C 
ATOM     13  C   UNL     1      -7.740  19.650  67.624  0.00  0.00    +0.000 C 
ATOM     14  C   UNL     1      -8.724  20.548  66.949  0.00  0.00    +0.000 C 
ATOM     15  C   UNL     1     -10.157  20.113  67.095  0.00  0.00    +0.000 C 
ATOM     16  C   UNL     1     -10.301  18.659  67.408  0.00  0.00    +0.000 C 
ENDBRANCH   8  11
BRANCH   6  17
ATOM     17  C   UNL     1      -7.770  15.031  67.286  0.00  0.00    +0.382 C 
ATOM     18  O   UNL     1      -7.073  15.919  66.457  0.00  0.00    -0.244 OA
ATOM     19  O   UNL     1      -7.237  13.945  67.495  0.00  0.00    -0.244 OA
ENDBRANCH   6  17
ENDBRANCH   3   4
ENDBRANCH   1   3
BRANCH   1  20
ATOM     20  O   UNL     1      -9.783  11.424  65.624  0.00  0.00    -0.276 OA
BRANCH  20  21
ATOM     21  C   UNL     1     -10.414  10.819  64.339  0.00  0.00    +0.295 C 
BRANCH  21  22
ATOM     22  C   UNL     1      -8.885  10.546  63.636  0.00  0.00    +0.071 C 
ATOM     23  C   UNL     1      -9.259  10.420  62.157  0.00  0.00    +0.006 C 
ATOM     24  C   UNL     1      -8.595   9.113  64.063  0.00  0.00    +0.006 C 
ENDBRANCH  21  22
BRANCH  21  25
ATOM     25  O   UNL     1     -10.540  12.218  63.592  0.00  0.00    -0.424 OA
BRANCH  25  26
ATOM     26  C   UNL     1     -11.792  12.758  63.783  0.00  0.00    +0.319 C 
ATOM     27  O   UNL     1     -12.754  12.095  63.325  0.00  0.00    -0.250 OA
BRANCH  26  29
ATOM     28  C   UNL     1     -12.775  13.898  65.555  0.00  0.00    +0.012 C 
ATOM     29  C   UNL     1     -12.082  14.121  64.305  0.00  0.00    +0.110 C 
ENDBRANCH  26  29
ENDBRANCH  25  26
ENDBRANCH  21  25
ENDBRANCH  20  21
ENDBRANCH   1  20
BRANCH   1  30
ATOM     30  C   UNL     1      -9.413   9.514  67.530  0.00  0.00    +0.088 C 
BRANCH  30  31
ATOM     31  C   UNL     1     -10.327   8.384  67.916  0.00  0.00    +0.011 C 
BRANCH  31  32
ATOM     32  C   UNL     1     -10.113   7.836  69.286  0.00  0.00    +0.005 C 
BRANCH  32  33
ATOM     33  C   UNL     1      -9.694   8.850  70.309  0.00  0.00    +0.026 C 
BRANCH  33  34
ATOM     34  C   UNL     1     -10.786   9.326  71.176  0.00  0.00    -0.022 A 
ATOM     35  C   UNL     1     -11.375   8.367  71.997  0.00  0.00    -0.004 A 
ATOM     36  C   UNL     1     -12.665   8.446  72.441  0.00  0.00    -0.000 A 
ATOM     37  C   UNL     1     -13.469   9.478  71.983  0.00  0.00    -0.000 A 
ATOM     38  C   UNL     1     -12.947  10.415  71.103  0.00  0.00    -0.000 A 
ATOM     39  C   UNL     1     -11.616  10.380  70.824  0.00  0.00    -0.004 A 
ENDBRANCH  33  34
ENDBRANCH  32  33
ENDBRANCH  31  32
ENDBRANCH  30  31
ENDBRANCH   1  30
TORSDOF 15
ENDMDL
MODEL 3
REMARK VINA RESULT:      -7.1      2.449      4.873
REMARK  Name = 
REMARK  15 active torsions:
REMARK  status: ('A' for Active; 'I' for Inactive)
REMARK    1  A    between atoms: C_2  and  C_3
REMARK    2  A    between atoms: C_3  and  O_5
REMARK    3  A    between atoms: O_5  and  C_6
REMARK    4  A    between atoms: C_6  and  O_7
REMARK    5  A    between atoms: C_6  and  C_37
REMARK    6  A    between atoms: O_7  and  P_8
REMARK    7  A    between atoms: P_8  and  C_10
REMARK    8  A    between atoms: P_8  and  C_20
REMARK    9  A    between atoms: C_10  and  C_11
REMARK   10  A    between atoms: C_11  and  C_12
REMARK   11  A    between atoms: C_12  and  C_13
REMARK   12  A    between atoms: C_13  and  C_14
REMARK   13  A    between atoms: C_20  and  C_21
REMARK   14  A    between atoms: C_25  and  C_26
REMARK   15  A    between atoms: C_33  and  C_34
REMARK                            x       y       z     vdW  Elec       q    Type
REMARK                         _______ _______ _______ _____ _____    ______ ____
ROOT
ATOM      1  P   UNL     1     -10.773  10.864  67.267  0.00  0.00    +0.234 P 
ATOM      2  O   UNL     1     -11.990  11.610  66.985  0.00  0.00    -0.289 OA
ENDROOT
BRANCH   1   3
ATOM      3  C   UNL     1      -9.419  11.978  66.746  0.00  0.00    +0.172 C 
BRANCH   3   4
ATOM      4  C   UNL     1      -9.046  12.996  67.729  0.00  0.00    +0.236 C 
ATOM      5  N   UNL     1      -9.028  14.360  67.260  0.00  0.00    -0.271 N 
ATOM      6  C   UNL     1     -10.513  14.836  66.906  0.00  0.00    +0.179 C 
ATOM      7  C   UNL     1     -10.217  16.441  67.277  0.00  0.00    +0.033 C 
ATOM      8  C   UNL     1      -8.823  16.481  66.391  0.00  0.00    +0.022 C 
ATOM      9  C   UNL     1      -8.201  15.425  67.496  0.00  0.00    +0.094 C 
ATOM     10  O   UNL     1      -8.040  12.666  68.431  0.00  0.00    -0.274 OA
BRANCH   8  11
ATOM     11  C   UNL     1      -8.204  17.795  67.174  0.00  0.00    +0.002 C 
ATOM     12  C   UNL     1      -8.131  18.887  66.153  0.00  0.00    +0.000 C 
ATOM     13  C   UNL     1      -9.509  19.539  66.144  0.00  0.00    +0.000 C 
ATOM     14  C   UNL     1      -9.737  20.227  67.449  0.00  0.00    +0.000 C 
ATOM     15  C   UNL     1      -9.167  19.502  68.637  0.00  0.00    +0.000 C 
ATOM     16  C   UNL     1      -8.955  18.044  68.390  0.00  0.00    +0.000 C 
ENDBRANCH   8  11
BRANCH   6  17
ATOM     17  C   UNL     1     -10.204  15.075  65.307  0.00  0.00    +0.382 C 
ATOM     18  O   UNL     1     -10.995  16.156  64.899  0.00  0.00    -0.244 OA
ATOM     19  O   UNL     1     -10.247  14.069  64.604  0.00  0.00    -0.244 OA
ENDBRANCH   6  17
ENDBRANCH   3   4
ENDBRANCH   1   3
BRANCH   1  20
ATOM     20  O   UNL     1     -10.361   9.435  66.822  0.00  0.00    -0.276 OA
BRANCH  20  21
ATOM     21  C   UNL     1      -9.383   8.609  67.703  0.00  0.00    +0.295 C 
BRANCH  21  22
ATOM     22  C   UNL     1      -8.795   7.745  66.356  0.00  0.00    +0.071 C 
ATOM     23  C   UNL     1      -7.849   6.751  67.035  0.00  0.00    +0.006 C 
ATOM     24  C   UNL     1      -7.860   8.761  65.716  0.00  0.00    +0.006 C 
ENDBRANCH  21  22
BRANCH  21  25
ATOM     25  O   UNL     1     -10.438   7.462  68.017  0.00  0.00    -0.424 OA
BRANCH  25  26
ATOM     26  C   UNL     1     -10.511   7.228  69.372  0.00  0.00    +0.319 C 
ATOM     27  O   UNL     1      -9.550   7.652  70.058  0.00  0.00    -0.250 OA
BRANCH  26  29
ATOM     28  C   UNL     1     -12.133   7.232  71.037  0.00  0.00    +0.012 C 
ATOM     29  C   UNL     1     -11.517   6.369  70.054  0.00  0.00    +0.110 C 
ENDBRANCH  26  29
ENDBRANCH  25  26
ENDBRANCH  21  25
ENDBRANCH  20  21
ENDBRANCH   1  20
BRANCH   1  30
ATOM     30  C   UNL     1     -10.695  10.877  69.109  0.00  0.00    +0.088 C 
BRANCH  30  31
ATOM     31  C   UNL     1     -12.060  10.946  69.737  0.00  0.00    +0.011 C 
BRANCH  31  32
ATOM     32  C   UNL     1     -12.292  12.126  70.618  0.00  0.00    +0.005 C 
BRANCH  32  33
ATOM     33  C   UNL     1     -12.059  13.455  69.962  0.00  0.00    +0.026 C 
BRANCH  33  34
ATOM     34  C   UNL     1     -12.503  14.612  70.758  0.00  0.00    -0.022 A 
ATOM     35  C   UNL     1     -11.581  15.111  71.676  0.00  0.00    -0.004 A 
ATOM     36  C   UNL     1     -11.938  15.769  72.819  0.00  0.00    -0.000 A 
ATOM     37  C   UNL     1     -13.282  15.873  73.140  0.00  0.00    -0.000 A 
ATOM     38  C   UNL     1     -14.233  15.325  72.293  0.00  0.00    -0.000 A 
ATOM     39  C   UNL     1     -13.831  14.825  71.094  0.00  0.00    -0.004 A 
ENDBRANCH  33  34
ENDBRANCH  32  33
ENDBRANCH  31  32
ENDBRANCH  30  31
ENDBRANCH   1  30
TORSDOF 15
ENDMDL
MODEL 4
REMARK VINA RESULT:      -7.1      1.764      3.342
REMARK  Name = 
REMARK  15 active torsions:
REMARK  status: ('A' for Active; 'I' for Inactive)
REMARK    1  A    between atoms: C_2  and  C_3
REMARK    2  A    between atoms: C_3  and  O_5
REMARK    3  A    between atoms: O_5  and  C_6
REMARK    4  A    between atoms: C_6  and  O_7
REMARK    5  A    between atoms: C_6  and  C_37
REMARK    6  A    between atoms: O_7  and  P_8
REMARK    7  A    between atoms: P_8  and  C_10
REMARK    8  A    between atoms: P_8  and  C_20
REMARK    9  A    between atoms: C_10  and  C_11
REMARK   10  A    between atoms: C_11  and  C_12
REMARK   11  A    between atoms: C_12  and  C_13
REMARK   12  A    between atoms: C_13  and  C_14
REMARK   13  A    between atoms: C_20  and  C_21
REMARK   14  A    between atoms: C_25  and  C_26
REMARK   15  A    between atoms: C_33  and  C_34
REMARK                            x       y       z     vdW  Elec       q    Type
REMARK                         _______ _______ _______ _____ _____    ______ ____
ROOT
ATOM      1  P   UNL     1     -10.831  15.967  68.760  0.00  0.00    +0.234 P 
ATOM      2  O   UNL     1     -12.174  16.405  68.414  0.00  0.00    -0.289 OA
ENDROOT
BRANCH   1   3
ATOM      3  C   UNL     1      -9.892  17.517  69.011  0.00  0.00    +0.172 C 
BRANCH   3   4
ATOM      4  C   UNL     1      -9.842  18.402  67.847  0.00  0.00    +0.236 C 
ATOM      5  N   UNL     1      -8.530  18.824  67.422  0.00  0.00    -0.271 N 
ATOM      6  C   UNL     1      -7.708  17.572  66.862  0.00  0.00    +0.179 C 
ATOM      7  C   UNL     1      -6.811  18.487  65.785  0.00  0.00    +0.033 C 
ATOM      8  C   UNL     1      -6.427  19.617  66.928  0.00  0.00    +0.022 C 
ATOM      9  C   UNL     1      -8.030  20.007  66.947  0.00  0.00    +0.094 C 
ATOM     10  O   UNL     1     -10.707  19.332  67.891  0.00  0.00    -0.274 OA
BRANCH   8  11
ATOM     11  C   UNL     1      -6.067  20.798  65.833  0.00  0.00    +0.002 C 
ATOM     12  C   UNL     1      -4.773  21.400  66.286  0.00  0.00    +0.000 C 
ATOM     13  C   UNL     1      -3.678  20.518  65.698  0.00  0.00    +0.000 C 
ATOM     14  C   UNL     1      -3.682  20.652  64.211  0.00  0.00    +0.000 C 
ATOM     15  C   UNL     1      -5.053  20.791  63.607  0.00  0.00    +0.000 C 
ATOM     16  C   UNL     1      -6.138  20.261  64.487  0.00  0.00    +0.000 C 
ENDBRANCH   8  11
BRANCH   6  17
ATOM     17  C   UNL     1      -6.535  17.651  68.015  0.00  0.00    +0.382 C 
ATOM     18  O   UNL     1      -5.442  16.922  67.531  0.00  0.00    -0.244 OA
ATOM     19  O   UNL     1      -6.901  17.395  69.159  0.00  0.00    -0.244 OA
ENDBRANCH   6  17
ENDBRANCH   3   4
ENDBRANCH   1   3
BRANCH   1  20
ATOM     20  O   UNL     1      -9.881  14.996  68.009  0.00  0.00    -0.276 OA
BRANCH  20  21
ATOM     21  C   UNL     1     -10.461  14.033  66.935  0.00  0.00    +0.295 C 
BRANCH  21  22
ATOM     22  C   UNL     1      -8.992  13.175  66.817  0.00  0.00    +0.071 C 
ATOM     23  C   UNL     1      -9.429  11.957  65.999  0.00  0.00    +0.006 C 
ATOM     24  C   UNL     1      -8.833  12.630  68.229  0.00  0.00    +0.006 C 
ENDBRANCH  21  22
BRANCH  21  25
ATOM     25  O   UNL     1     -10.055  14.957  65.707  0.00  0.00    -0.424 OA
BRANCH  25  26
ATOM     26  C   UNL     1     -11.148  15.208  64.907  0.00  0.00    +0.319 C 
ATOM     27  O   UNL     1     -11.168  16.327  64.338  0.00  0.00    -0.250 OA
BRANCH  26  29
ATOM     28  C   UNL     1     -12.076  13.406  63.771  0.00  0.00    +0.012 C 
ATOM     29  C   UNL     1     -12.370  14.365  64.813  0.00  0.00    +0.110 C 
ENDBRANCH  26  29
ENDBRANCH  25  26
ENDBRANCH  21  25
ENDBRANCH  20  21
ENDBRANCH   1  20
BRANCH   1  30
ATOM     30  C   UNL     1     -11.042  15.278  70.456  0.00  0.00    +0.088 C 
BRANCH  30  31
ATOM     31  C   UNL     1     -12.414  14.699  70.671  0.00  0.00    +0.011 C 
BRANCH  31  32
ATOM     32  C   UNL     1     -12.444  13.244  70.991  0.00  0.00    +0.005 C 
BRANCH  32  33
ATOM     33  C   UNL     1     -11.972  12.348  69.885  0.00  0.00    +0.026 C 
BRANCH  33  34
ATOM     34  C   UNL     1     -11.983  10.912  70.218  0.00  0.00    -0.022 A 
ATOM     35  C   UNL     1     -12.971  10.501  71.111  0.00  0.00    -0.004 A 
ATOM     36  C   UNL     1     -12.840   9.415  71.929  0.00  0.00    -0.000 A 
ATOM     37  C   UNL     1     -11.634   8.732  71.949  0.00  0.00    -0.000 A 
ATOM     38  C   UNL     1     -10.595   9.152  71.132  0.00  0.00    -0.000 A 
ATOM     39  C   UNL     1     -10.834  10.136  70.223  0.00  0.00    -0.004 A 
ENDBRANCH  33  34
ENDBRANCH  32  33
ENDBRANCH  31  32
ENDBRANCH  30  31
ENDBRANCH   1  30
TORSDOF 15
ENDMDL
MODEL 5
REMARK VINA RESULT:      -7.1      2.311      4.375
REMARK  Name = 
REMARK  15 active torsions:
REMARK  status: ('A' for Active; 'I' for Inactive)
REMARK    1  A    between atoms: C_2  and  C_3
REMARK    2  A    between atoms: C_3  and  O_5
REMARK    3  A    between atoms: O_5  and  C_6
REMARK    4  A    between atoms: C_6  and  O_7
REMARK    5  A    between atoms: C_6  and  C_37
REMARK    6  A    between atoms: O_7  and  P_8
REMARK    7  A    between atoms: P_8  and  C_10
REMARK    8  A    between atoms: P_8  and  C_20
REMARK    9  A    between atoms: C_10  and  C_11
REMARK   10  A    between atoms: C_11  and  C_12
REMARK   11  A    between atoms: C_12  and  C_13
REMARK   12  A    between atoms: C_13  and  C_14
REMARK   13  A    between atoms: C_20  and  C_21
REMARK   14  A    between atoms: C_25  and  C_26
REMARK   15  A    between atoms: C_33  and  C_34
REMARK                            x       y       z     vdW  Elec       q    Type
REMARK                         _______ _______ _______ _____ _____    ______ ____
ROOT
ATOM      1  P   UNL     1     -10.426  10.947  67.124  0.00  0.00    +0.234 P 
ATOM      2  O   UNL     1     -11.802  10.691  67.519  0.00  0.00    -0.289 OA
ENDROOT
BRANCH   1   3
ATOM      3  C   UNL     1      -9.785  12.089  68.400  0.00  0.00    +0.172 C 
BRANCH   3   4
ATOM      4  C   UNL     1      -8.804  13.063  67.919  0.00  0.00    +0.236 C 
ATOM      5  N   UNL     1      -9.282  14.410  67.726  0.00  0.00    -0.271 N 
ATOM      6  C   UNL     1      -9.661  15.062  69.136  0.00  0.00    +0.179 C 
ATOM      7  C   UNL     1      -9.297  16.622  68.650  0.00  0.00    +0.033 C 
ATOM      8  C   UNL     1     -10.162  16.482  67.250  0.00  0.00    +0.022 C 
ATOM      9  C   UNL     1      -9.041  15.368  66.777  0.00  0.00    +0.094 C 
ATOM     10  O   UNL     1      -8.085  12.617  66.970  0.00  0.00    -0.274 OA
BRANCH   8  11
ATOM     11  C   UNL     1      -9.379  17.717  66.485  0.00  0.00    +0.002 C 
ATOM     12  C   UNL     1     -10.450  18.618  65.954  0.00  0.00    +0.000 C 
ATOM     13  C   UNL     1     -10.810  19.554  67.101  0.00  0.00    +0.000 C 
ATOM     14  C   UNL     1      -9.647  20.445  67.395  0.00  0.00    +0.000 C 
ATOM     15  C   UNL     1      -8.307  19.776  67.255  0.00  0.00    +0.000 C 
ATOM     16  C   UNL     1      -8.378  18.288  67.367  0.00  0.00    +0.000 C 
ENDBRANCH   8  11
BRANCH   6  17
ATOM     17  C   UNL     1     -11.257  15.247  68.778  0.00  0.00    +0.382 C 
ATOM     18  O   UNL     1     -11.722  16.321  69.547  0.00  0.00    -0.244 OA
ATOM     19  O   UNL     1     -11.928  14.220  68.810  0.00  0.00    -0.244 OA
ENDBRANCH   6  17
ENDBRANCH   3   4
ENDBRANCH   1   3
BRANCH   1  20
ATOM     20  O   UNL     1      -9.861  11.445  65.766  0.00  0.00    -0.276 OA
BRANCH  20  21
ATOM     21  C   UNL     1     -10.407  10.843  64.441  0.00  0.00    +0.295 C 
BRANCH  21  22
ATOM     22  C   UNL     1      -8.835  10.595  63.829  0.00  0.00    +0.071 C 
ATOM     23  C   UNL     1      -9.101  10.604  62.322  0.00  0.00    +0.006 C 
ATOM     24  C   UNL     1      -8.602   9.125  64.151  0.00  0.00    +0.006 C 
ENDBRANCH  21  22
BRANCH  21  25
ATOM     25  O   UNL     1     -10.507  12.246  63.700  0.00  0.00    -0.424 OA
BRANCH  25  26
ATOM     26  C   UNL     1     -11.729  12.834  63.937  0.00  0.00    +0.319 C 
ATOM     27  O   UNL     1     -12.731  12.213  63.508  0.00  0.00    -0.250 OA
BRANCH  26  29
ATOM     28  C   UNL     1     -12.836  14.019  65.601  0.00  0.00    +0.012 C 
ATOM     29  C   UNL     1     -11.946  14.204  64.476  0.00  0.00    +0.110 C 
ENDBRANCH  26  29
ENDBRANCH  25  26
ENDBRANCH  21  25
ENDBRANCH  20  21
ENDBRANCH   1  20
BRANCH   1  30
ATOM     30  C   UNL     1      -9.587   9.345  67.479  0.00  0.00    +0.088 C 
BRANCH  30  31
ATOM     31  C   UNL     1     -10.540   8.181  67.447  0.00  0.00    +0.011 C 
BRANCH  31  32
ATOM     32  C   UNL     1     -10.560   7.345  68.681  0.00  0.00    +0.005 C 
BRANCH  32  33
ATOM     33  C   UNL     1      -9.966   8.000  69.892  0.00  0.00    +0.026 C 
BRANCH  33  34
ATOM     34  C   UNL     1     -10.957   8.470  70.877  0.00  0.00    -0.022 A 
ATOM     35  C   UNL     1     -11.930   7.546  71.251  0.00  0.00    -0.004 A 
ATOM     36  C   UNL     1     -13.175   7.901  71.689  0.00  0.00    -0.000 A 
ATOM     37  C   UNL     1     -13.533   9.239  71.678  0.00  0.00    -0.000 A 
ATOM     38  C   UNL     1     -12.621  10.189  71.241  0.00  0.00    -0.000 A 
ATOM     39  C   UNL     1     -11.347   9.797  70.971  0.00  0.00    -0.004 A 
ENDBRANCH  33  34
ENDBRANCH  32  33
ENDBRANCH  31  32
ENDBRANCH  30  31
ENDBRANCH   1  30
TORSDOF 15
ENDMDL
MODEL 6
REMARK VINA RESULT:      -7.0      1.706      4.893
REMARK  Name = 
REMARK  15 active torsions:
REMARK  status: ('A' for Active; 'I' for Inactive)
REMARK    1  A    between atoms: C_2  and  C_3
REMARK    2  A    between atoms: C_3  and  O_5
REMARK    3  A    between atoms: O_5  and  C_6
REMARK    4  A    between atoms: C_6  and  O_7
REMARK    5  A    between atoms: C_6  and  C_37
REMARK    6  A    between atoms: O_7  and  P_8
REMARK    7  A    between atoms: P_8  and  C_10
REMARK    8  A    between atoms: P_8  and  C_20
REMARK    9  A    between atoms: C_10  and  C_11
REMARK   10  A    between atoms: C_11  and  C_12
REMARK   11  A    between atoms: C_12  and  C_13
REMARK   12  A    between atoms: C_13  and  C_14
REMARK   13  A    between atoms: C_20  and  C_21
REMARK   14  A    between atoms: C_25  and  C_26
REMARK   15  A    between atoms: C_33  and  C_34
REMARK                            x       y       z     vdW  Elec       q    Type
REMARK                         _______ _______ _______ _____ _____    ______ ____
ROOT
ATOM      1  P   UNL     1     -11.518  14.274  67.827  0.00  0.00    +0.234 P 
ATOM      2  O   UNL     1     -10.131  14.012  67.478  0.00  0.00    -0.289 OA
ENDROOT
BRANCH   1   3
ATOM      3  C   UNL     1     -11.555  16.049  68.266  0.00  0.00    +0.172 C 
BRANCH   3   4
ATOM      4  C   UNL     1     -10.390  16.523  69.015  0.00  0.00    +0.236 C 
ATOM      5  N   UNL     1      -9.474  17.376  68.298  0.00  0.00    -0.271 N 
ATOM      6  C   UNL     1     -10.179  18.770  67.958  0.00  0.00    +0.179 C 
ATOM      7  C   UNL     1      -8.750  19.642  68.001  0.00  0.00    +0.033 C 
ATOM      8  C   UNL     1      -7.957  18.560  67.037  0.00  0.00    +0.022 C 
ATOM      9  C   UNL     1      -8.109  17.483  68.278  0.00  0.00    +0.094 C 
ATOM     10  O   UNL     1      -9.834  15.609  69.701  0.00  0.00    -0.274 OA
BRANCH   8  11
ATOM     11  C   UNL     1      -6.450  19.030  67.519  0.00  0.00    +0.002 C 
ATOM     12  C   UNL     1      -5.546  18.772  66.354  0.00  0.00    +0.000 C 
ATOM     13  C   UNL     1      -5.650  20.007  65.467  0.00  0.00    +0.000 C 
ATOM     14  C   UNL     1      -5.058  21.178  66.181  0.00  0.00    +0.000 C 
ATOM     15  C   UNL     1      -5.318  21.193  67.662  0.00  0.00    +0.000 C 
ATOM     16  C   UNL     1      -6.503  20.375  68.060  0.00  0.00    +0.000 C 
ENDBRANCH   8  11
BRANCH   6  17
ATOM     17  C   UNL     1     -10.091  18.573  66.325  0.00  0.00    +0.382 C 
ATOM     18  O   UNL     1     -10.568  19.757  65.749  0.00  0.00    -0.244 OA
ATOM     19  O   UNL     1     -10.562  17.525  65.894  0.00  0.00    -0.244 OA
ENDBRANCH   6  17
ENDBRANCH   3   4
ENDBRANCH   1   3
BRANCH   1  20
ATOM     20  O   UNL     1     -12.438  13.551  68.847  0.00  0.00    -0.276 OA
BRANCH  20  21
ATOM     21  C   UNL     1     -11.851  13.073  70.205  0.00  0.00    +0.295 C 
BRANCH  21  22
ATOM     22  C   UNL     1     -12.426  11.485  69.970  0.00  0.00    +0.071 C 
ATOM     23  C   UNL     1     -12.655  11.039  71.416  0.00  0.00    +0.006 C 
ATOM     24  C   UNL     1     -11.159  10.750  69.557  0.00  0.00    +0.006 C 
ENDBRANCH  21  22
BRANCH  21  25
ATOM     25  O   UNL     1     -13.148  13.452  71.041  0.00  0.00    -0.424 OA
BRANCH  25  26
ATOM     26  C   UNL     1     -13.019  14.706  71.595  0.00  0.00    +0.319 C 
ATOM     27  O   UNL     1     -13.881  15.552  71.252  0.00  0.00    -0.250 OA
BRANCH  26  29
ATOM     28  C   UNL     1     -12.436  16.118  73.348  0.00  0.00    +0.012 C 
ATOM     29  C   UNL     1     -11.863  15.188  72.399  0.00  0.00    +0.110 C 
ENDBRANCH  26  29
ENDBRANCH  25  26
ENDBRANCH  21  25
ENDBRANCH  20  21
ENDBRANCH   1  20
BRANCH   1  30
ATOM     30  C   UNL     1     -12.379  14.186  66.199  0.00  0.00    +0.088 C 
BRANCH  30  31
ATOM     31  C   UNL     1     -11.415  14.161  65.044  0.00  0.00    +0.011 C 
BRANCH  31  32
ATOM     32  C   UNL     1     -11.879  13.398  63.850  0.00  0.00    +0.005 C 
BRANCH  32  33
ATOM     33  C   UNL     1     -11.954  11.913  64.044  0.00  0.00    +0.026 C 
BRANCH  33  34
ATOM     34  C   UNL     1     -10.707  11.300  64.534  0.00  0.00    -0.022 A 
ATOM     35  C   UNL     1      -9.913  10.681  63.571  0.00  0.00    -0.004 A 
ATOM     36  C   UNL     1      -9.061   9.648  63.848  0.00  0.00    -0.000 A 
ATOM     37  C   UNL     1      -9.044   9.119  65.129  0.00  0.00    -0.000 A 
ATOM     38  C   UNL     1      -9.874   9.656  66.103  0.00  0.00    -0.000 A 
ATOM     39  C   UNL     1     -10.579  10.782  65.814  0.00  0.00    -0.004 A 
ENDBRANCH  33  34
ENDBRANCH  32  33
ENDBRANCH  31  32
ENDBRANCH  30  31
ENDBRANCH   1  30
TORSDOF 15
ENDMDL
MODEL 7
REMARK VINA RESULT:      -6.9      1.446      2.806
REMARK  Name = 
REMARK  15 active torsions:
REMARK  status: ('A' for Active; 'I' for Inactive)
REMARK    1  A    between atoms: C_2  and  C_3
REMARK    2  A    between atoms: C_3  and  O_5
REMARK    3  A    between atoms: O_5  and  C_6
REMARK    4  A    between atoms: C_6  and  O_7
REMARK    5  A    between atoms: C_6  and  C_37
REMARK    6  A    between atoms: O_7  and  P_8
REMARK    7  A    between atoms: P_8  and  C_10
REMARK    8  A    between atoms: P_8  and  C_20
REMARK    9  A    between atoms: C_10  and  C_11
REMARK   10  A    between atoms: C_11  and  C_12
REMARK   11  A    between atoms: C_12  and  C_13
REMARK   12  A    between atoms: C_13  and  C_14
REMARK   13  A    between atoms: C_20  and  C_21
REMARK   14  A    between atoms: C_25  and  C_26
REMARK   15  A    between atoms: C_33  and  C_34
REMARK                            x       y       z     vdW  Elec       q    Type
REMARK                         _______ _______ _______ _____ _____    ______ ____
ROOT
ATOM      1  P   UNL     1     -11.466  14.134  68.311  0.00  0.00    +0.234 P 
ATOM      2  O   UNL     1     -11.995  15.238  69.097  0.00  0.00    -0.289 OA
ENDROOT
BRANCH   1   3
ATOM      3  C   UNL     1      -9.831  14.719  67.737  0.00  0.00    +0.172 C 
BRANCH   3   4
ATOM      4  C   UNL     1      -9.108  15.561  68.692  0.00  0.00    +0.236 C 
ATOM      5  N   UNL     1      -8.692  16.857  68.214  0.00  0.00    -0.271 N 
ATOM      6  C   UNL     1      -9.972  17.774  67.939  0.00  0.00    +0.179 C 
ATOM      7  C   UNL     1      -9.172  19.204  68.282  0.00  0.00    +0.033 C 
ATOM      8  C   UNL     1      -7.884  18.818  67.322  0.00  0.00    +0.022 C 
ATOM      9  C   UNL     1      -7.563  17.609  68.398  0.00  0.00    +0.094 C 
ATOM     10  O   UNL     1      -8.217  14.926  69.341  0.00  0.00    -0.274 OA
BRANCH   8  11
ATOM     11  C   UNL     1      -6.846  19.866  68.062  0.00  0.00    +0.002 C 
ATOM     12  C   UNL     1      -5.609  19.079  68.362  0.00  0.00    +0.000 C 
ATOM     13  C   UNL     1      -4.765  19.136  67.094  0.00  0.00    +0.000 C 
ATOM     14  C   UNL     1      -4.303  20.538  66.871  0.00  0.00    +0.000 C 
ATOM     15  C   UNL     1      -5.313  21.588  67.247  0.00  0.00    +0.000 C 
ATOM     16  C   UNL     1      -6.715  21.073  67.268  0.00  0.00    +0.000 C 
ENDBRANCH   8  11
BRANCH   6  17
ATOM     17  C   UNL     1      -9.690  17.923  66.323  0.00  0.00    +0.382 C 
ATOM     18  O   UNL     1     -10.487  18.981  65.869  0.00  0.00    -0.244 OA
ATOM     19  O   UNL     1      -9.746  16.879  65.679  0.00  0.00    -0.244 OA
ENDBRANCH   6  17
ENDBRANCH   3   4
ENDBRANCH   1   3
BRANCH   1  20
ATOM     20  O   UNL     1     -12.103  13.374  67.118  0.00  0.00    -0.276 OA
BRANCH  20  21
ATOM     21  C   UNL     1     -11.189  12.789  66.005  0.00  0.00    +0.295 C 
BRANCH  21  22
ATOM     22  C   UNL     1     -12.416  12.934  64.829  0.00  0.00    +0.071 C 
ATOM     23  C   UNL     1     -11.751  12.261  63.626  0.00  0.00    +0.006 C 
ATOM     24  C   UNL     1     -12.358  14.418  64.497  0.00  0.00    +0.006 C 
ENDBRANCH  21  22
BRANCH  21  25
ATOM     25  O   UNL     1     -11.598  11.279  66.289  0.00  0.00    -0.424 OA
BRANCH  25  26
ATOM     26  C   UNL     1     -10.502  10.546  66.685  0.00  0.00    +0.319 C 
ATOM     27  O   UNL     1      -9.463  11.202  66.939  0.00  0.00    -0.250 OA
BRANCH  26  29
ATOM     28  C   UNL     1     -10.279   8.673  68.044  0.00  0.00    +0.012 C 
ATOM     29  C   UNL     1     -10.389   9.063  66.655  0.00  0.00    +0.110 C 
ENDBRANCH  26  29
ENDBRANCH  25  26
ENDBRANCH  21  25
ENDBRANCH  20  21
ENDBRANCH   1  20
BRANCH   1  30
ATOM     30  C   UNL     1     -11.077  12.864  69.589  0.00  0.00    +0.088 C 
BRANCH  30  31
ATOM     31  C   UNL     1     -12.167  11.836  69.722  0.00  0.00    +0.011 C 
BRANCH  31  32
ATOM     32  C   UNL     1     -12.350  11.283  71.095  0.00  0.00    +0.005 C 
BRANCH  32  33
ATOM     33  C   UNL     1     -13.390  11.981  71.919  0.00  0.00    +0.026 C 
BRANCH  33  34
ATOM     34  C   UNL     1     -13.268  13.450  71.936  0.00  0.00    -0.022 A 
ATOM     35  C   UNL     1     -12.514  13.987  72.976  0.00  0.00    -0.004 A 
ATOM     36  C   UNL     1     -12.708  15.245  73.475  0.00  0.00    -0.000 A 
ATOM     37  C   UNL     1     -13.765  16.000  72.994  0.00  0.00    -0.000 A 
ATOM     38  C   UNL     1     -14.590  15.476  72.010  0.00  0.00    -0.000 A 
ATOM     39  C   UNL     1     -14.254  14.289  71.438  0.00  0.00    -0.004 A 
ENDBRANCH  33  34
ENDBRANCH  32  33
ENDBRANCH  31  32
ENDBRANCH  30  31
ENDBRANCH   1  30
TORSDOF 15
ENDMDL
MODEL 8
REMARK VINA RESULT:      -6.9      3.489      9.403
REMARK  Name = 
REMARK  15 active torsions:
REMARK  status: ('A' for Active; 'I' for Inactive)
REMARK    1  A    between atoms: C_2  and  C_3
REMARK    2  A    between atoms: C_3  and  O_5
REMARK    3  A    between atoms: O_5  and  C_6
REMARK    4  A    between atoms: C_6  and  O_7
REMARK    5  A    between atoms: C_6  and  C_37
REMARK    6  A    between atoms: O_7  and  P_8
REMARK    7  A    between atoms: P_8  and  C_10
REMARK    8  A    between atoms: P_8  and  C_20
REMARK    9  A    between atoms: C_10  and  C_11
REMARK   10  A    between atoms: C_11  and  C_12
REMARK   11  A    between atoms: C_12  and  C_13
REMARK   12  A    between atoms: C_13  and  C_14
REMARK   13  A    between atoms: C_20  and  C_21
REMARK   14  A    between atoms: C_25  and  C_26
REMARK   15  A    between atoms: C_33  and  C_34
REMARK                            x       y       z     vdW  Elec       q    Type
REMARK                         _______ _______ _______ _____ _____    ______ ____
ROOT
ATOM      1  P   UNL     1      -9.655  12.038  67.475  0.00  0.00    +0.234 P 
ATOM      2  O   UNL     1      -8.929  12.717  68.537  0.00  0.00    -0.289 OA
ENDROOT
BRANCH   1   3
ATOM      3  C   UNL     1      -9.172  10.281  67.638  0.00  0.00    +0.172 C 
BRANCH   3   4
ATOM      4  C   UNL     1     -10.282   9.356  67.871  0.00  0.00    +0.236 C 
ATOM      5  N   UNL     1     -10.172   8.508  69.033  0.00  0.00    -0.271 N 
ATOM      6  C   UNL     1     -10.253   9.391  70.363  0.00  0.00    +0.179 C 
ATOM      7  C   UNL     1     -10.944   8.171  71.277  0.00  0.00    +0.033 C 
ATOM      8  C   UNL     1      -9.835   7.051  70.782  0.00  0.00    +0.022 C 
ATOM      9  C   UNL     1     -10.495   7.200  69.277  0.00  0.00    +0.094 C 
ATOM     10  O   UNL     1     -10.663   8.759  66.816  0.00  0.00    -0.274 OA
BRANCH   8  11
ATOM     11  C   UNL     1     -10.780   5.751  71.159  0.00  0.00    +0.002 C 
ATOM     12  C   UNL     1      -9.970   4.540  70.814  0.00  0.00    +0.000 C 
ATOM     13  C   UNL     1      -9.100   4.263  72.034  0.00  0.00    +0.000 C 
ATOM     14  C   UNL     1      -9.968   3.852  73.177  0.00  0.00    +0.000 C 
ATOM     15  C   UNL     1     -11.286   4.574  73.241  0.00  0.00    +0.000 C 
ATOM     16  C   UNL     1     -11.277   5.880  72.515  0.00  0.00    +0.000 C 
ENDBRANCH   8  11
BRANCH   6  17
ATOM     17  C   UNL     1      -8.735   9.010  70.874  0.00  0.00    +0.382 C 
ATOM     18  O   UNL     1      -8.786   8.930  72.272  0.00  0.00    -0.244 OA
ATOM     19  O   UNL     1      -7.831   9.692  70.398  0.00  0.00    -0.244 OA
ENDBRANCH   6  17
ENDBRANCH   3   4
ENDBRANCH   1   3
BRANCH   1  20
ATOM     20  O   UNL     1      -9.700  12.341  65.953  0.00  0.00    -0.276 OA
BRANCH  20  21
ATOM     21  C   UNL     1     -10.848  13.215  65.378  0.00  0.00    +0.295 C 
BRANCH  21  22
ATOM     22  C   UNL     1     -10.732  12.477  63.846  0.00  0.00    +0.071 C 
ATOM     23  C   UNL     1     -12.132  12.742  63.285  0.00  0.00    +0.006 C 
ATOM     24  C   UNL     1     -10.757  10.998  64.207  0.00  0.00    +0.006 C 
ENDBRANCH  21  22
BRANCH  21  25
ATOM     25  O   UNL     1      -9.888  14.395  64.916  0.00  0.00    -0.424 OA
BRANCH  25  26
ATOM     26  C   UNL     1     -10.390  15.614  65.313  0.00  0.00    +0.319 C 
ATOM     27  O   UNL     1     -11.145  16.191  64.494  0.00  0.00    -0.250 OA
BRANCH  26  29
ATOM     28  C   UNL     1      -8.659  15.866  66.844  0.00  0.00    +0.012 C 
ATOM     29  C   UNL     1      -9.974  16.376  66.521  0.00  0.00    +0.110 C 
ENDBRANCH  26  29
ENDBRANCH  25  26
ENDBRANCH  21  25
ENDBRANCH  20  21
ENDBRANCH   1  20
BRANCH   1  30
ATOM     30  C   UNL     1     -11.400  12.090  68.066  0.00  0.00    +0.088 C 
BRANCH  30  31
ATOM     31  C   UNL     1     -11.605  13.111  69.151  0.00  0.00    +0.011 C 
BRANCH  31  32
ATOM     32  C   UNL     1     -12.234  14.388  68.708  0.00  0.00    +0.005 C 
BRANCH  32  33
ATOM     33  C   UNL     1     -11.832  15.594  69.503  0.00  0.00    +0.026 C 
BRANCH  33  34
ATOM     34  C   UNL     1     -12.540  15.741  70.787  0.00  0.00    -0.022 A 
ATOM     35  C   UNL     1     -11.772  16.189  71.859  0.00  0.00    -0.004 A 
ATOM     36  C   UNL     1     -12.055  15.893  73.163  0.00  0.00    -0.000 A 
ATOM     37  C   UNL     1     -13.103  15.030  73.442  0.00  0.00    -0.000 A 
ATOM     38  C   UNL     1     -13.848  14.499  72.400  0.00  0.00    -0.000 A 
ATOM     39  C   UNL     1     -13.626  14.953  71.137  0.00  0.00    -0.004 A 
ENDBRANCH  33  34
ENDBRANCH  32  33
ENDBRANCH  31  32
ENDBRANCH  30  31
ENDBRANCH   1  30
TORSDOF 15
ENDMDL
MODEL 9
REMARK VINA RESULT:      -6.9      1.833      5.142
REMARK  Name = 
REMARK  15 active torsions:
REMARK  status: ('A' for Active; 'I' for Inactive)
REMARK    1  A    between atoms: C_2  and  C_3
REMARK    2  A    between atoms: C_3  and  O_5
REMARK    3  A    between atoms: O_5  and  C_6
REMARK    4  A    between atoms: C_6  and  O_7
REMARK    5  A    between atoms: C_6  and  C_37
REMARK    6  A    between atoms: O_7  and  P_8
REMARK    7  A    between atoms: P_8  and  C_10
REMARK    8  A    between atoms: P_8  and  C_20
REMARK    9  A    between atoms: C_10  and  C_11
REMARK   10  A    between atoms: C_11  and  C_12
REMARK   11  A    between atoms: C_12  and  C_13
REMARK   12  A    between atoms: C_13  and  C_14
REMARK   13  A    between atoms: C_20  and  C_21
REMARK   14  A    between atoms: C_25  and  C_26
REMARK   15  A    between atoms: C_33  and  C_34
REMARK                            x       y       z     vdW  Elec       q    Type
REMARK                         _______ _______ _______ _____ _____    ______ ____
ROOT
ATOM      1  P   UNL     1     -10.568  13.881  67.909  0.00  0.00    +0.234 P 
ATOM      2  O   UNL     1      -9.318  13.216  67.578  0.00  0.00    -0.289 OA
ENDROOT
BRANCH   1   3
ATOM      3  C   UNL     1     -10.062  15.432  68.733  0.00  0.00    +0.172 C 
BRANCH   3   4
ATOM      4  C   UNL     1     -10.180  16.636  67.908  0.00  0.00    +0.236 C 
ATOM      5  N   UNL     1      -8.952  17.336  67.621  0.00  0.00    -0.271 N 
ATOM      6  C   UNL     1      -8.018  16.439  66.684  0.00  0.00    +0.179 C 
ATOM      7  C   UNL     1      -7.296  17.754  65.941  0.00  0.00    +0.033 C 
ATOM      8  C   UNL     1      -6.989  18.511  67.377  0.00  0.00    +0.022 C 
ATOM      9  C   UNL     1      -8.624  18.663  67.539  0.00  0.00    +0.094 C 
ATOM     10  O   UNL     1     -11.147  17.384  68.255  0.00  0.00    -0.274 OA
BRANCH   8  11
ATOM     11  C   UNL     1      -6.832  20.011  66.706  0.00  0.00    +0.002 C 
ATOM     12  C   UNL     1      -5.990  20.801  67.659  0.00  0.00    +0.000 C 
ATOM     13  C   UNL     1      -4.544  20.485  67.294  0.00  0.00    +0.000 C 
ATOM     14  C   UNL     1      -4.244  21.039  65.940  0.00  0.00    +0.000 C 
ATOM     15  C   UNL     1      -5.388  20.945  64.968  0.00  0.00    +0.000 C 
ATOM     16  C   UNL     1      -6.384  19.892  65.332  0.00  0.00    +0.000 C 
ENDBRANCH   8  11
BRANCH   6  17
ATOM     17  C   UNL     1      -6.803  16.308  67.788  0.00  0.00    +0.382 C 
ATOM     18  O   UNL     1      -5.686  15.812  67.103  0.00  0.00    -0.244 OA
ATOM     19  O   UNL     1      -7.100  15.739  68.835  0.00  0.00    -0.244 OA
ENDBRANCH   6  17
ENDBRANCH   3   4
ENDBRANCH   1   3
BRANCH   1  20
ATOM     20  O   UNL     1     -11.796  13.347  68.694  0.00  0.00    -0.276 OA
BRANCH  20  21
ATOM     21  C   UNL     1     -11.649  12.997  70.201  0.00  0.00    +0.295 C 
BRANCH  21  22
ATOM     22  C   UNL     1     -12.488  11.524  70.009  0.00  0.00    +0.071 C 
ATOM     23  C   UNL     1     -12.832  11.190  71.462  0.00  0.00    +0.006 C 
ATOM     24  C   UNL     1     -11.358  10.562  69.670  0.00  0.00    +0.006 C 
ENDBRANCH  21  22
BRANCH  21  25
ATOM     25  O   UNL     1     -12.988  13.738  70.632  0.00  0.00    -0.424 OA
BRANCH  25  26
ATOM     26  C   UNL     1     -12.703  14.936  71.248  0.00  0.00    +0.319 C 
ATOM     27  O   UNL     1     -13.126  15.966  70.669  0.00  0.00    -0.250 OA
BRANCH  26  29
ATOM     28  C   UNL     1     -12.676  15.249  73.551  0.00  0.00    +0.012 C 
ATOM     29  C   UNL     1     -11.794  15.123  72.411  0.00  0.00    +0.110 C 
ENDBRANCH  26  29
ENDBRANCH  25  26
ENDBRANCH  21  25
ENDBRANCH  20  21
ENDBRANCH   1  20
BRANCH   1  30
ATOM     30  C   UNL     1     -11.200  14.420  66.263  0.00  0.00    +0.088 C 
BRANCH  30  31
ATOM     31  C   UNL     1     -12.493  13.743  65.898  0.00  0.00    +0.011 C 
BRANCH  31  32
ATOM     32  C   UNL     1     -12.407  12.792  64.753  0.00  0.00    +0.005 C 
BRANCH  32  33
ATOM     33  C   UNL     1     -11.016  12.522  64.263  0.00  0.00    +0.026 C 
BRANCH  33  34
ATOM     34  C   UNL     1     -10.613  11.106  64.323  0.00  0.00    -0.022 A 
ATOM     35  C   UNL     1     -10.437  10.576  65.600  0.00  0.00    -0.004 A 
ATOM     36  C   UNL     1      -9.595   9.534  65.872  0.00  0.00    -0.000 A 
ATOM     37  C   UNL     1      -8.803   9.029  64.852  0.00  0.00    -0.000 A 
ATOM     38  C   UNL     1      -8.891   9.576  63.581  0.00  0.00    -0.000 A 
ATOM     39  C   UNL     1      -9.858  10.500  63.332  0.00  0.00    -0.004 A 
ENDBRANCH  33  34
ENDBRANCH  32  33
ENDBRANCH  31  32
ENDBRANCH  30  31
ENDBRANCH   1  30
TORSDOF 15
ENDMDL
