MODEL 1
REMARK VINA RESULT:      -5.7      0.000      0.000
REMARK  Name = 
REMARK  3 active torsions:
REMARK  status: ('A' for Active; 'I' for Inactive)
REMARK    1  A    between atoms: C_5  and  C_6
REMARK    2  A    between atoms: N_8  and  C_9
REMARK    3  A    between atoms: C_9  and  C_10
REMARK                            x       y       z     vdW  Elec       q    Type
REMARK                         _______ _______ _______ _____ _____    ______ ____
ROOT
ATOM      1  N   UNL     1     -12.910  15.906  73.998  0.00  0.00    -0.128 NA
ATOM      2  C   UNL     1     -12.517  15.321  72.755  0.00  0.00    +0.089 A 
ATOM      3  C   UNL     1     -11.869  16.131  71.848  0.00  0.00    +0.018 A 
ATOM      4  C   UNL     1     -11.933  15.831  70.504  0.00  0.00    +0.006 A 
ATOM      5  C   UNL     1     -12.140  14.522  70.083  0.00  0.00    +0.055 A 
ATOM      6  C   UNL     1     -12.638  13.666  71.051  0.00  0.00    +0.006 A 
ATOM      7  C   UNL     1     -13.078  14.148  72.277  0.00  0.00    +0.018 A 
ENDROOT
BRANCH   5   8
ATOM      8  C   UNL     1     -11.503  13.995  68.870  0.00  0.00    +0.265 C 
ATOM      9  N   UNL     1     -12.213  13.863  67.656  0.00  0.00    -0.189 NA
ATOM     10  O   UNL     1     -10.245  14.129  68.772  0.00  0.00    -0.268 OA
BRANCH   9  11
ATOM     11  C   UNL     1     -11.682  14.238  66.359  0.00  0.00    +0.229 C 
BRANCH  11  12
ATOM     12  C   UNL     1     -12.603  13.936  65.248  0.00  0.00    +0.387 C 
ATOM     13  O   UNL     1     -12.572  14.812  64.159  0.00  0.00    -0.244 OA
ATOM     14  O   UNL     1     -13.018  12.755  65.077  0.00  0.00    -0.244 OA
ENDBRANCH  11  12
ENDBRANCH   9  11
ENDBRANCH   5   8
TORSDOF 3
ENDMDL
MODEL 2
REMARK VINA RESULT:      -5.6      1.643      2.100
REMARK  Name = 
REMARK  3 active torsions:
REMARK  status: ('A' for Active; 'I' for Inactive)
REMARK    1  A    between atoms: C_5  and  C_6
REMARK    2  A    between atoms: N_8  and  C_9
REMARK    3  A    between atoms: C_9  and  C_10
REMARK                            x       y       z     vdW  Elec       q    Type
REMARK                         _______ _______ _______ _____ _____    ______ ____
ROOT
ATOM      1  N   UNL     1     -12.030  16.003  72.670  0.00  0.00    -0.128 NA
ATOM      2  C   UNL     1     -11.795  15.387  71.404  0.00  0.00    +0.089 A 
ATOM      3  C   UNL     1     -11.386  16.198  70.368  0.00  0.00    +0.018 A 
ATOM      4  C   UNL     1     -11.643  15.819  69.067  0.00  0.00    +0.006 A 
ATOM      5  C   UNL     1     -11.792  14.476  68.740  0.00  0.00    +0.055 A 
ATOM      6  C   UNL     1     -12.039  13.635  69.812  0.00  0.00    +0.006 A 
ATOM      7  C   UNL     1     -12.314  14.145  71.075  0.00  0.00    +0.018 A 
ENDROOT
BRANCH   5   8
ATOM      8  C   UNL     1     -11.317  13.940  67.458  0.00  0.00    +0.265 C 
ATOM      9  N   UNL     1     -11.976  14.230  66.243  0.00  0.00    -0.189 NA
ATOM     10  O   UNL     1     -10.085  13.650  67.373  0.00  0.00    -0.268 OA
BRANCH   9  11
ATOM     11  C   UNL     1     -11.292  14.580  65.013  0.00  0.00    +0.229 C 
BRANCH  11  12
ATOM     12  C   UNL     1     -11.012  16.022  64.897  0.00  0.00    +0.387 C 
ATOM     13  O   UNL     1      -9.800  16.466  65.433  0.00  0.00    -0.244 OA
ATOM     14  O   UNL     1     -11.568  16.701  63.986  0.00  0.00    -0.244 OA
ENDBRANCH  11  12
ENDBRANCH   9  11
ENDBRANCH   5   8
TORSDOF 3
ENDMDL
MODEL 3
REMARK VINA RESULT:      -5.5      0.826      1.734
REMARK  Name = 
REMARK  3 active torsions:
REMARK  status: ('A' for Active; 'I' for Inactive)
REMARK    1  A    between atoms: C_5  and  C_6
REMARK    2  A    between atoms: N_8  and  C_9
REMARK    3  A    between atoms: C_9  and  C_10
REMARK                            x       y       z     vdW  Elec       q    Type
REMARK                         _______ _______ _______ _____ _____    ______ ____
ROOT
ATOM      1  N   UNL     1     -13.016  15.738  73.377  0.00  0.00    -0.128 NA
ATOM      2  C   UNL     1     -12.806  15.276  72.043  0.00  0.00    +0.089 A 
ATOM      3  C   UNL     1     -13.033  13.941  71.789  0.00  0.00    +0.018 A 
ATOM      4  C   UNL     1     -12.380  13.330  70.739  0.00  0.00    +0.006 A 
ATOM      5  C   UNL     1     -11.955  14.074  69.644  0.00  0.00    +0.055 A 
ATOM      6  C   UNL     1     -11.888  15.441  69.854  0.00  0.00    +0.006 A 
ATOM      7  C   UNL     1     -12.043  15.980  71.125  0.00  0.00    +0.018 A 
ENDROOT
BRANCH   5   8
ATOM      8  C   UNL     1     -11.980  13.523  68.284  0.00  0.00    +0.265 C 
ATOM      9  N   UNL     1     -12.180  14.346  67.154  0.00  0.00    -0.189 NA
ATOM     10  O   UNL     1     -11.348  12.442  68.085  0.00  0.00    -0.268 OA
BRANCH   9  11
ATOM     11  C   UNL     1     -11.419  14.235  65.924  0.00  0.00    +0.229 C 
BRANCH  11  12
ATOM     12  C   UNL     1     -12.243  13.839  64.767  0.00  0.00    +0.387 C 
ATOM     13  O   UNL     1     -13.011  12.681  64.917  0.00  0.00    -0.244 OA
ATOM     14  O   UNL     1     -12.598  14.708  63.919  0.00  0.00    -0.244 OA
ENDBRANCH  11  12
ENDBRANCH   9  11
ENDBRANCH   5   8
TORSDOF 3
ENDMDL
MODEL 4
REMARK VINA RESULT:      -5.4      4.874      5.671
REMARK  Name = 
REMARK  3 active torsions:
REMARK  status: ('A' for Active; 'I' for Inactive)
REMARK    1  A    between atoms: C_5  and  C_6
REMARK    2  A    between atoms: N_8  and  C_9
REMARK    3  A    between atoms: C_9  and  C_10
REMARK                            x       y       z     vdW  Elec       q    Type
REMARK                         _______ _______ _______ _____ _____    ______ ____
ROOT
ATOM      1  N   UNL     1      -7.699  20.395  67.379  0.00  0.00    -0.128 NA
ATOM      2  C   UNL     1      -8.366  19.296  66.759  0.00  0.00    +0.089 A 
ATOM      3  C   UNL     1      -9.669  19.490  66.354  0.00  0.00    +0.018 A 
ATOM      4  C   UNL     1     -10.515  18.406  66.251  0.00  0.00    +0.006 A 
ATOM      5  C   UNL     1     -10.006  17.135  66.011  0.00  0.00    +0.055 A 
ATOM      6  C   UNL     1      -8.653  16.987  66.262  0.00  0.00    +0.006 A 
ATOM      7  C   UNL     1      -7.928  17.989  66.894  0.00  0.00    +0.018 A 
ENDROOT
BRANCH   5   8
ATOM      8  C   UNL     1     -10.726  16.163  65.178  0.00  0.00    +0.265 C 
ATOM      9  N   UNL     1     -11.183  14.933  65.701  0.00  0.00    -0.189 NA
ATOM     10  O   UNL     1     -11.358  16.616  64.176  0.00  0.00    -0.268 OA
BRANCH   9  11
ATOM     11  C   UNL     1     -12.493  14.371  65.429  0.00  0.00    +0.229 C 
BRANCH  11  12
ATOM     12  C   UNL     1     -12.461  12.915  65.201  0.00  0.00    +0.387 C 
ATOM     13  O   UNL     1     -12.156  12.118  66.308  0.00  0.00    -0.244 OA
ATOM     14  O   UNL     1     -13.114  12.413  64.242  0.00  0.00    -0.244 OA
ENDBRANCH  11  12
ENDBRANCH   9  11
ENDBRANCH   5   8
TORSDOF 3
ENDMDL
MODEL 5
REMARK VINA RESULT:      -5.4      2.759      6.213
REMARK  Name = 
REMARK  3 active torsions:
REMARK  status: ('A' for Active; 'I' for Inactive)
REMARK    1  A    between atoms: C_5  and  C_6
REMARK    2  A    between atoms: N_8  and  C_9
REMARK    3  A    between atoms: C_9  and  C_10
REMARK                            x       y       z     vdW  Elec       q    Type
REMARK                         _______ _______ _______ _____ _____    ______ ____
ROOT
ATOM      1  N   UNL     1     -12.449  12.877  63.532  0.00  0.00    -0.128 NA
ATOM      2  C   UNL     1     -12.314  12.859  64.953  0.00  0.00    +0.089 A 
ATOM      3  C   UNL     1     -12.670  13.998  65.641  0.00  0.00    +0.018 A 
ATOM      4  C   UNL     1     -12.102  14.255  66.870  0.00  0.00    +0.006 A 
ATOM      5  C   UNL     1     -11.634  13.212  67.662  0.00  0.00    +0.055 A 
ATOM      6  C   UNL     1     -11.434  12.014  66.996  0.00  0.00    +0.006 A 
ATOM      7  C   UNL     1     -11.509  11.943  65.611  0.00  0.00    +0.018 A 
ENDROOT
BRANCH   5   8
ATOM      8  C   UNL     1     -11.743  13.249  69.126  0.00  0.00    +0.265 C 
ATOM      9  N   UNL     1     -12.196  14.400  69.807  0.00  0.00    -0.189 NA
ATOM     10  O   UNL     1     -11.910  12.142  69.721  0.00  0.00    -0.268 OA
BRANCH   9  11
ATOM     11  C   UNL     1     -13.139  14.372  70.909  0.00  0.00    +0.229 C 
BRANCH  11  12
ATOM     12  C   UNL     1     -13.127  15.609  71.711  0.00  0.00    +0.387 C 
ATOM     13  O   UNL     1     -14.289  15.893  72.434  0.00  0.00    -0.244 OA
ATOM     14  O   UNL     1     -12.027  16.102  72.094  0.00  0.00    -0.244 OA
ENDBRANCH  11  12
ENDBRANCH   9  11
ENDBRANCH   5   8
TORSDOF 3
ENDMDL
MODEL 6
REMARK VINA RESULT:      -5.3      2.954      6.122
REMARK  Name = 
REMARK  3 active torsions:
REMARK  status: ('A' for Active; 'I' for Inactive)
REMARK    1  A    between atoms: C_5  and  C_6
REMARK    2  A    between atoms: N_8  and  C_9
REMARK    3  A    between atoms: C_9  and  C_10
REMARK                            x       y       z     vdW  Elec       q    Type
REMARK                         _______ _______ _______ _____ _____    ______ ____
ROOT
ATOM      1  N   UNL     1     -11.479  10.648  67.212  0.00  0.00    -0.128 NA
ATOM      2  C   UNL     1     -11.486  11.916  67.867  0.00  0.00    +0.089 A 
ATOM      3  C   UNL     1     -11.470  11.921  69.245  0.00  0.00    +0.018 A 
ATOM      4  C   UNL     1     -11.990  13.001  69.926  0.00  0.00    +0.006 A 
ATOM      5  C   UNL     1     -12.024  14.258  69.333  0.00  0.00    +0.055 A 
ATOM      6  C   UNL     1     -11.871  14.262  67.957  0.00  0.00    +0.006 A 
ATOM      7  C   UNL     1     -11.889  13.079  67.230  0.00  0.00    +0.018 A 
ENDROOT
BRANCH   5   8
ATOM      8  C   UNL     1     -11.817  15.483  70.116  0.00  0.00    +0.265 C 
ATOM      9  N   UNL     1     -12.591  15.771  71.261  0.00  0.00    -0.189 NA
ATOM     10  O   UNL     1     -10.664  16.010  70.070  0.00  0.00    -0.268 OA
BRANCH   9  11
ATOM     11  C   UNL     1     -12.044  16.286  72.502  0.00  0.00    +0.229 C 
BRANCH  11  12
ATOM     12  C   UNL     1     -12.654  15.678  73.699  0.00  0.00    +0.387 C 
ATOM     13  O   UNL     1     -12.904  14.304  73.640  0.00  0.00    -0.244 OA
ATOM     14  O   UNL     1     -12.516  16.231  74.827  0.00  0.00    -0.244 OA
ENDBRANCH  11  12
ENDBRANCH   9  11
ENDBRANCH   5   8
TORSDOF 3
ENDMDL
MODEL 7
REMARK VINA RESULT:      -5.3      4.003      5.992
REMARK  Name = 
REMARK  3 active torsions:
REMARK  status: ('A' for Active; 'I' for Inactive)
REMARK    1  A    between atoms: C_5  and  C_6
REMARK    2  A    between atoms: N_8  and  C_9
REMARK    3  A    between atoms: C_9  and  C_10
REMARK                            x       y       z     vdW  Elec       q    Type
REMARK                         _______ _______ _______ _____ _____    ______ ____
ROOT
ATOM      1  N   UNL     1     -12.813  12.399  63.806  0.00  0.00    -0.128 NA
ATOM      2  C   UNL     1     -12.431  13.234  64.899  0.00  0.00    +0.089 A 
ATOM      3  C   UNL     1     -12.043  14.524  64.610  0.00  0.00    +0.018 A 
ATOM      4  C   UNL     1     -11.196  15.187  65.472  0.00  0.00    +0.006 A 
ATOM      5  C   UNL     1     -11.153  14.847  66.820  0.00  0.00    +0.055 A 
ATOM      6  C   UNL     1     -11.698  13.613  67.131  0.00  0.00    +0.006 A 
ATOM      7  C   UNL     1     -12.066  12.720  66.133  0.00  0.00    +0.018 A 
ENDROOT
BRANCH   5   8
ATOM      8  C   UNL     1     -10.942  15.860  67.862  0.00  0.00    +0.265 C 
ATOM      9  N   UNL     1      -9.995  16.896  67.708  0.00  0.00    -0.189 NA
ATOM     10  O   UNL     1     -11.914  16.099  68.641  0.00  0.00    -0.268 OA
BRANCH   9  11
ATOM     11  C   UNL     1     -10.245  18.282  68.058  0.00  0.00    +0.229 C 
BRANCH  11  12
ATOM     12  C   UNL     1     -10.416  19.153  66.880  0.00  0.00    +0.387 C 
ATOM     13  O   UNL     1     -10.043  20.491  67.037  0.00  0.00    -0.244 OA
ATOM     14  O   UNL     1     -10.432  18.649  65.721  0.00  0.00    -0.244 OA
ENDBRANCH  11  12
ENDBRANCH   9  11
ENDBRANCH   5   8
TORSDOF 3
ENDMDL
MODEL 8
REMARK VINA RESULT:      -5.3      4.389      6.331
REMARK  Name = 
REMARK  3 active torsions:
REMARK  status: ('A' for Active; 'I' for Inactive)
REMARK    1  A    between atoms: C_5  and  C_6
REMARK    2  A    between atoms: N_8  and  C_9
REMARK    3  A    between atoms: C_9  and  C_10
REMARK                            x       y       z     vdW  Elec       q    Type
REMARK                         _______ _______ _______ _____ _____    ______ ____
ROOT
ATOM      1  N   UNL     1     -11.727   6.947  71.992  0.00  0.00    -0.128 NA
ATOM      2  C   UNL     1     -11.896   8.350  71.785  0.00  0.00    +0.089 A 
ATOM      3  C   UNL     1     -12.978   8.955  72.387  0.00  0.00    +0.018 A 
ATOM      4  C   UNL     1     -13.499  10.109  71.842  0.00  0.00    +0.006 A 
ATOM      5  C   UNL     1     -12.698  10.954  71.082  0.00  0.00    +0.055 A 
ATOM      6  C   UNL     1     -11.524  10.388  70.616  0.00  0.00    +0.006 A 
ATOM      7  C   UNL     1     -11.287   9.025  70.740  0.00  0.00    +0.018 A 
ENDROOT
BRANCH   5   8
ATOM      8  C   UNL     1     -12.864  12.413  71.122  0.00  0.00    +0.265 C 
ATOM      9  N   UNL     1     -13.591  13.049  72.153  0.00  0.00    -0.189 NA
ATOM     10  O   UNL     1     -11.975  13.112  70.548  0.00  0.00    -0.268 OA
BRANCH   9  11
ATOM     11  C   UNL     1     -13.154  14.256  72.828  0.00  0.00    +0.229 C 
BRANCH  11  12
ATOM     12  C   UNL     1     -13.915  15.452  72.423  0.00  0.00    +0.387 C 
ATOM     13  O   UNL     1     -14.836  15.282  71.386  0.00  0.00    -0.244 OA
ATOM     14  O   UNL     1     -14.077  16.403  73.241  0.00  0.00    -0.244 OA
ENDBRANCH  11  12
ENDBRANCH   9  11
ENDBRANCH   5   8
TORSDOF 3
ENDMDL
MODEL 9
REMARK VINA RESULT:      -5.2      1.512      1.935
REMARK  Name = 
REMARK  3 active torsions:
REMARK  status: ('A' for Active; 'I' for Inactive)
REMARK    1  A    between atoms: C_5  and  C_6
REMARK    2  A    between atoms: N_8  and  C_9
REMARK    3  A    between atoms: C_9  and  C_10
REMARK                            x       y       z     vdW  Elec       q    Type
REMARK                         _______ _______ _______ _____ _____    ______ ____
ROOT
ATOM      1  N   UNL     1     -13.205  14.072  72.658  0.00  0.00    -0.128 NA
ATOM      2  C   UNL     1     -12.506  14.254  71.427  0.00  0.00    +0.089 A 
ATOM      3  C   UNL     1     -12.269  15.547  71.014  0.00  0.00    +0.018 A 
ATOM      4  C   UNL     1     -12.099  15.811  69.672  0.00  0.00    +0.006 A 
ATOM      5  C   UNL     1     -11.629  14.824  68.814  0.00  0.00    +0.055 A 
ATOM      6  C   UNL     1     -11.716  13.532  69.302  0.00  0.00    +0.006 A 
ATOM      7  C   UNL     1     -12.407  13.253  70.474  0.00  0.00    +0.018 A 
ENDROOT
BRANCH   5   8
ATOM      8  C   UNL     1     -10.745  15.144  67.686  0.00  0.00    +0.265 C 
ATOM      9  N   UNL     1     -10.748  14.376  66.500  0.00  0.00    -0.189 NA
ATOM     10  O   UNL     1     -10.362  16.348  67.574  0.00  0.00    -0.268 OA
BRANCH   9  11
ATOM     11  C   UNL     1     -10.715  14.944  65.166  0.00  0.00    +0.229 C 
BRANCH  11  12
ATOM     12  C   UNL     1     -12.037  14.962  64.513  0.00  0.00    +0.387 C 
ATOM     13  O   UNL     1     -13.038  14.193  65.113  0.00  0.00    -0.244 OA
ATOM     14  O   UNL     1     -12.366  15.940  63.782  0.00  0.00    -0.244 OA
ENDBRANCH  11  12
ENDBRANCH   9  11
ENDBRANCH   5   8
TORSDOF 3
ENDMDL
