MODEL 1
REMARK VINA RESULT:      -7.5      0.000      0.000
REMARK  Name = 
REMARK  5 active torsions:
REMARK  status: ('A' for Active; 'I' for Inactive)
REMARK    1  A    between atoms: C_9  and  C_10
REMARK    2  A    between atoms: C_20  and  C_21
REMARK    3  A    between atoms: C_21  and  C_23
REMARK    4  A    between atoms: C_24  and  C_25
REMARK    5  A    between atoms: C_25  and  C_27
REMARK                            x       y       z     vdW  Elec       q    Type
REMARK                         _______ _______ _______ _____ _____    ______ ____
ROOT
ATOM      1  C   UNL     1     -10.183  18.462  68.203  0.00  0.00    -0.009 C 
ATOM      2  C   UNL     1     -10.071  17.190  68.627  0.00  0.00    -0.045 C 
ATOM      3  C   UNL     1     -11.298  16.232  68.240  0.00  0.00    +0.018 C 
ATOM      4  C   UNL     1     -11.661  15.815  69.774  0.00  0.00    +0.004 C 
ATOM      5  C   UNL     1     -11.947  14.356  69.692  0.00  0.00    +0.001 C 
ATOM      6  C   UNL     1     -11.644  13.941  68.161  0.00  0.00    +0.004 C 
ATOM      7  C   UNL     1     -10.363  14.907  68.132  0.00  0.00    +0.004 C 
ATOM      8  C   UNL     1      -9.638  14.655  69.364  0.00  0.00    +0.000 C 
ATOM      9  C   UNL     1      -9.747  15.014  66.847  0.00  0.00    +0.001 C 
ATOM     10  C   UNL     1      -8.541  15.911  67.097  0.00  0.00    +0.004 C 
ATOM     11  C   UNL     1      -8.690  16.719  68.341  0.00  0.00    +0.022 C 
ENDROOT
BRANCH   1  15
ATOM     12  C   UNL     1      -9.511  19.874  66.317  0.00  0.00    -0.005 C 
ATOM     13  C   UNL     1      -8.378  19.981  66.650  0.00  0.00    -0.026 C 
ATOM     14  C   UNL     1      -8.076  19.611  68.040  0.00  0.00    -0.024 C 
ATOM     15  C   UNL     1      -9.142  19.332  68.794  0.00  0.00    -0.005 C 
ATOM     16  C   UNL     1      -6.722  19.614  68.622  0.00  0.00    +0.059 C 
ATOM     17  C   UNL     1      -5.790  20.354  67.484  0.00  0.00    +0.157 C 
ATOM     18  O   UNL     1      -4.554  19.601  67.949  0.00  0.00    -0.223 OA
ATOM     19  C   UNL     1      -6.116  19.202  66.350  0.00  0.00    +0.038 C 
ATOM     20  C   UNL     1      -7.323  19.744  65.611  0.00  0.00    +0.029 C 
ENDBRANCH   1  15
BRANCH   6  21
ATOM     21  C   UNL     1     -10.679  12.608  68.602  0.00  0.00    +0.022 C 
ATOM     22  C   UNL     1     -11.050  11.808  67.237  0.00  0.00    +0.005 C 
BRANCH  21  23
ATOM     23  C   UNL     1     -11.830  11.895  69.431  0.00  0.00    -0.031 C 
ATOM     24  C   UNL     1     -11.655  10.719  69.940  0.00  0.00    -0.031 C 
BRANCH  24  25
ATOM     25  C   UNL     1     -13.071  10.193  70.499  0.00  0.00    +0.022 C 
ATOM     26  C   UNL     1     -13.049  11.254  71.743  0.00  0.00    +0.005 C 
BRANCH  25  27
ATOM     27  C   UNL     1     -12.382   8.962  71.316  0.00  0.00    +0.004 C 
ATOM     28  C   UNL     1     -13.287   8.800  72.493  0.00  0.00    +0.000 C 
ATOM     29  C   UNL     1     -10.973   9.170  71.580  0.00  0.00    +0.000 C 
ENDBRANCH  25  27
ENDBRANCH  24  25
ENDBRANCH  21  23
ENDBRANCH   6  21
TORSDOF 5
ENDMDL
MODEL 2
REMARK VINA RESULT:      -7.2      4.663      8.004
REMARK  Name = 
REMARK  5 active torsions:
REMARK  status: ('A' for Active; 'I' for Inactive)
REMARK    1  A    between atoms: C_9  and  C_10
REMARK    2  A    between atoms: C_20  and  C_21
REMARK    3  A    between atoms: C_21  and  C_23
REMARK    4  A    between atoms: C_24  and  C_25
REMARK    5  A    between atoms: C_25  and  C_27
REMARK                            x       y       z     vdW  Elec       q    Type
REMARK                         _______ _______ _______ _____ _____    ______ ____
ROOT
ATOM      1  C   UNL     1      -9.202  10.903  64.635  0.00  0.00    -0.009 C 
ATOM      2  C   UNL     1     -10.124  11.536  65.383  0.00  0.00    -0.045 C 
ATOM      3  C   UNL     1      -9.612  12.032  66.820  0.00  0.00    +0.018 C 
ATOM      4  C   UNL     1     -10.723  11.201  67.678  0.00  0.00    +0.004 C 
ATOM      5  C   UNL     1     -11.148  12.157  68.737  0.00  0.00    +0.001 C 
ATOM      6  C   UNL     1     -10.369  13.535  68.415  0.00  0.00    +0.004 C 
ATOM      7  C   UNL     1     -10.602  13.321  66.842  0.00  0.00    +0.004 C 
ATOM      8  C   UNL     1     -11.993  12.936  66.687  0.00  0.00    +0.000 C 
ATOM      9  C   UNL     1      -9.941  14.286  66.021  0.00  0.00    +0.001 C 
ATOM     10  C   UNL     1     -10.367  13.914  64.607  0.00  0.00    +0.004 C 
ATOM     11  C   UNL     1     -10.846  12.504  64.518  0.00  0.00    +0.022 C 
ENDROOT
BRANCH   1  15
ATOM     12  C   UNL     1      -8.378   8.598  64.756  0.00  0.00    -0.005 C 
ATOM     13  C   UNL     1      -8.316   8.436  63.583  0.00  0.00    -0.026 C 
ATOM     14  C   UNL     1      -9.046   9.408  62.757  0.00  0.00    -0.024 C 
ATOM     15  C   UNL     1      -9.802  10.272  63.439  0.00  0.00    -0.005 C 
ATOM     16  C   UNL     1      -9.039   9.413  61.283  0.00  0.00    +0.059 C 
ATOM     17  C   UNL     1      -8.305   7.998  60.874  0.00  0.00    +0.157 C 
ATOM     18  O   UNL     1      -7.813   8.586  59.561  0.00  0.00    -0.223 OA
ATOM     19  C   UNL     1      -6.900   8.412  61.632  0.00  0.00    +0.038 C 
ATOM     20  C   UNL     1      -7.055   7.844  63.030  0.00  0.00    +0.029 C 
ENDBRANCH   1  15
BRANCH   6  21
ATOM     21  C   UNL     1     -11.779  14.483  68.535  0.00  0.00    +0.022 C 
ATOM     22  C   UNL     1     -10.921  15.841  68.781  0.00  0.00    +0.005 C 
BRANCH  21  23
ATOM     23  C   UNL     1     -11.967  14.223  70.091  0.00  0.00    -0.031 C 
ATOM     24  C   UNL     1     -12.033  15.206  70.929  0.00  0.00    -0.031 C 
BRANCH  24  25
ATOM     25  C   UNL     1     -11.982  14.603  72.422  0.00  0.00    +0.022 C 
ATOM     26  C   UNL     1     -13.295  13.665  72.159  0.00  0.00    +0.005 C 
BRANCH  25  27
ATOM     27  C   UNL     1     -12.800  15.867  73.046  0.00  0.00    +0.004 C 
ATOM     28  C   UNL     1     -12.488  15.774  74.503  0.00  0.00    +0.000 C 
ATOM     29  C   UNL     1     -14.196  15.890  72.660  0.00  0.00    +0.000 C 
ENDBRANCH  25  27
ENDBRANCH  24  25
ENDBRANCH  21  23
ENDBRANCH   6  21
TORSDOF 5
ENDMDL
MODEL 3
REMARK VINA RESULT:      -7.0      4.610      8.012
REMARK  Name = 
REMARK  5 active torsions:
REMARK  status: ('A' for Active; 'I' for Inactive)
REMARK    1  A    between atoms: C_9  and  C_10
REMARK    2  A    between atoms: C_20  and  C_21
REMARK    3  A    between atoms: C_21  and  C_23
REMARK    4  A    between atoms: C_24  and  C_25
REMARK    5  A    between atoms: C_25  and  C_27
REMARK                            x       y       z     vdW  Elec       q    Type
REMARK                         _______ _______ _______ _____ _____    ______ ____
ROOT
ATOM      1  C   UNL     1     -12.062  13.414  68.227  0.00  0.00    -0.009 C 
ATOM      2  C   UNL     1     -11.024  12.874  67.561  0.00  0.00    -0.045 C 
ATOM      3  C   UNL     1     -11.398  11.650  66.595  0.00  0.00    +0.018 C 
ATOM      4  C   UNL     1     -10.400  10.576  67.309  0.00  0.00    +0.004 C 
ATOM      5  C   UNL     1      -9.790   9.838  66.169  0.00  0.00    +0.001 C 
ATOM      6  C   UNL     1     -10.354  10.556  64.837  0.00  0.00    +0.004 C 
ATOM      7  C   UNL     1     -10.218  11.995  65.532  0.00  0.00    +0.004 C 
ATOM      8  C   UNL     1      -8.911  12.017  66.164  0.00  0.00    +0.000 C 
ATOM      9  C   UNL     1     -10.750  13.069  64.752  0.00  0.00    +0.001 C 
ATOM     10  C   UNL     1     -10.440  14.308  65.582  0.00  0.00    +0.004 C 
ATOM     11  C   UNL     1     -10.192  13.977  67.015  0.00  0.00    +0.022 C 
ENDROOT
BRANCH   1  15
ATOM     12  C   UNL     1     -12.138  12.073  70.276  0.00  0.00    -0.005 C 
ATOM     13  C   UNL     1     -12.432  12.972  70.992  0.00  0.00    -0.026 C 
ATOM     14  C   UNL     1     -12.233  14.322  70.447  0.00  0.00    -0.024 C 
ATOM     15  C   UNL     1     -11.614  14.368  69.265  0.00  0.00    -0.005 C 
ATOM     16  C   UNL     1     -12.596  15.562  71.156  0.00  0.00    +0.059 C 
ATOM     17  C   UNL     1     -12.971  15.067  72.680  0.00  0.00    +0.157 C 
ATOM     18  O   UNL     1     -13.912  16.245  72.875  0.00  0.00    -0.223 OA
ATOM     19  C   UNL     1     -14.209  14.113  72.154  0.00  0.00    +0.038 C 
ATOM     20  C   UNL     1     -13.566  12.755  71.948  0.00  0.00    +0.029 C 
ENDBRANCH   1  15
BRANCH   6  21
ATOM     21  C   UNL     1      -8.809  10.704  64.134  0.00  0.00    +0.022 C 
ATOM     22  C   UNL     1      -9.436  11.063  62.679  0.00  0.00    +0.005 C 
BRANCH  21  23
ATOM     23  C   UNL     1      -8.685   9.158  63.791  0.00  0.00    -0.031 C 
ATOM     24  C   UNL     1      -8.049   8.757  62.739  0.00  0.00    -0.031 C 
BRANCH  24  25
ATOM     25  C   UNL     1      -8.312   7.179  62.558  0.00  0.00    +0.022 C 
ATOM     26  C   UNL     1      -6.714   6.838  62.607  0.00  0.00    +0.005 C 
BRANCH  25  27
ATOM     27  C   UNL     1      -8.409   7.300  60.935  0.00  0.00    +0.004 C 
ATOM     28  C   UNL     1      -7.179   8.073  60.589  0.00  0.00    +0.000 C 
ATOM     29  C   UNL     1      -9.679   7.822  60.476  0.00  0.00    +0.000 C 
ENDBRANCH  25  27
ENDBRANCH  24  25
ENDBRANCH  21  23
ENDBRANCH   6  21
TORSDOF 5
ENDMDL
MODEL 4
REMARK VINA RESULT:      -6.9      4.627      7.301
REMARK  Name = 
REMARK  5 active torsions:
REMARK  status: ('A' for Active; 'I' for Inactive)
REMARK    1  A    between atoms: C_9  and  C_10
REMARK    2  A    between atoms: C_20  and  C_21
REMARK    3  A    between atoms: C_21  and  C_23
REMARK    4  A    between atoms: C_24  and  C_25
REMARK    5  A    between atoms: C_25  and  C_27
REMARK                            x       y       z     vdW  Elec       q    Type
REMARK                         _______ _______ _______ _____ _____    ______ ____
ROOT
ATOM      1  C   UNL     1      -8.903  11.290  67.515  0.00  0.00    -0.009 C 
ATOM      2  C   UNL     1      -9.506  10.218  68.062  0.00  0.00    -0.045 C 
ATOM      3  C   UNL     1      -9.173   9.966  69.610  0.00  0.00    +0.018 C 
ATOM      4  C   UNL     1      -8.580   8.461  69.400  0.00  0.00    +0.004 C 
ATOM      5  C   UNL     1      -9.141   7.690  70.544  0.00  0.00    +0.001 C 
ATOM      6  C   UNL     1     -10.117   8.716  71.320  0.00  0.00    +0.004 C 
ATOM      7  C   UNL     1     -10.630   9.316  69.923  0.00  0.00    +0.004 C 
ATOM      8  C   UNL     1     -10.907   8.175  69.070  0.00  0.00    +0.000 C 
ATOM      9  C   UNL     1     -11.496  10.445  70.059  0.00  0.00    +0.001 C 
ATOM     10  C   UNL     1     -11.890  10.775  68.625  0.00  0.00    +0.004 C 
ATOM     11  C   UNL     1     -10.929  10.211  67.635  0.00  0.00    +0.022 C 
ENDROOT
BRANCH   1  15
ATOM     12  C   UNL     1      -9.419  13.643  67.070  0.00  0.00    -0.005 C 
ATOM     13  C   UNL     1     -10.130  13.433  66.145  0.00  0.00    -0.026 C 
ATOM     14  C   UNL     1     -10.039  12.091  65.552  0.00  0.00    -0.024 C 
ATOM     15  C   UNL     1      -9.065  11.322  66.045  0.00  0.00    -0.005 C 
ATOM     16  C   UNL     1     -10.883  11.617  64.441  0.00  0.00    +0.059 C 
ATOM     17  C   UNL     1     -11.663  12.969  63.916  0.00  0.00    +0.157 C 
ATOM     18  O   UNL     1     -12.836  12.145  63.412  0.00  0.00    -0.223 OA
ATOM     19  C   UNL     1     -12.402  13.207  65.371  0.00  0.00    +0.038 C 
ATOM     20  C   UNL     1     -11.458  14.129  66.117  0.00  0.00    +0.029 C 
ENDBRANCH   1  15
BRANCH   6  21
ATOM     21  C   UNL     1     -11.414   7.613  71.368  0.00  0.00    +0.022 C 
ATOM     22  C   UNL     1     -12.200   8.487  72.489  0.00  0.00    +0.005 C 
BRANCH  21  23
ATOM     23  C   UNL     1     -10.735   6.676  72.456  0.00  0.00    -0.031 C 
ATOM     24  C   UNL     1     -11.288   5.564  72.818  0.00  0.00    -0.031 C 
BRANCH  24  25
ATOM     25  C   UNL     1     -10.481   4.987  74.087  0.00  0.00    +0.022 C 
ATOM     26  C   UNL     1      -9.869   6.458  74.451  0.00  0.00    +0.005 C 
BRANCH  25  27
ATOM     27  C   UNL     1      -9.224   4.504  73.168  0.00  0.00    +0.004 C 
ATOM     28  C   UNL     1      -9.656   3.153  72.702  0.00  0.00    +0.000 C 
ATOM     29  C   UNL     1      -7.949   4.601  73.849  0.00  0.00    +0.000 C 
ENDBRANCH  25  27
ENDBRANCH  24  25
ENDBRANCH  21  23
ENDBRANCH   6  21
TORSDOF 5
ENDMDL
MODEL 5
REMARK VINA RESULT:      -6.9      3.718      5.093
REMARK  Name = 
REMARK  5 active torsions:
REMARK  status: ('A' for Active; 'I' for Inactive)
REMARK    1  A    between atoms: C_9  and  C_10
REMARK    2  A    between atoms: C_20  and  C_21
REMARK    3  A    between atoms: C_21  and  C_23
REMARK    4  A    between atoms: C_24  and  C_25
REMARK    5  A    between atoms: C_25  and  C_27
REMARK                            x       y       z     vdW  Elec       q    Type
REMARK                         _______ _______ _______ _____ _____    ______ ____
ROOT
ATOM      1  C   UNL     1      -6.199  19.984  67.472  0.00  0.00    -0.009 C 
ATOM      2  C   UNL     1      -7.160  19.077  67.728  0.00  0.00    -0.045 C 
ATOM      3  C   UNL     1      -7.639  18.217  66.462  0.00  0.00    +0.018 C 
ATOM      4  C   UNL     1      -9.208  18.651  66.563  0.00  0.00    +0.004 C 
ATOM      5  C   UNL     1      -9.948  17.386  66.297  0.00  0.00    +0.001 C 
ATOM      6  C   UNL     1      -8.816  16.244  66.157  0.00  0.00    +0.004 C 
ATOM      7  C   UNL     1      -7.976  16.901  67.354  0.00  0.00    +0.004 C 
ATOM      8  C   UNL     1      -8.931  17.192  68.408  0.00  0.00    +0.000 C 
ATOM      9  C   UNL     1      -6.702  16.290  67.573  0.00  0.00    +0.001 C 
ATOM     10  C   UNL     1      -6.146  17.033  68.781  0.00  0.00    +0.004 C 
ATOM     11  C   UNL     1      -6.804  18.357  68.978  0.00  0.00    +0.022 C 
ENDROOT
BRANCH   1  15
ATOM     12  C   UNL     1      -3.830  20.573  67.262  0.00  0.00    -0.005 C 
ATOM     13  C   UNL     1      -3.631  20.670  68.427  0.00  0.00    -0.026 C 
ATOM     14  C   UNL     1      -4.824  20.778  69.279  0.00  0.00    -0.024 C 
ATOM     15  C   UNL     1      -5.979  20.892  68.620  0.00  0.00    -0.005 C 
ATOM     16  C   UNL     1      -4.787  20.842  70.751  0.00  0.00    +0.059 C 
ATOM     17  C   UNL     1      -3.193  21.038  71.111  0.00  0.00    +0.157 C 
ATOM     18  O   UNL     1      -3.375  20.369  72.464  0.00  0.00    -0.223 OA
ATOM     19  C   UNL     1      -2.774  19.604  70.413  0.00  0.00    +0.038 C 
ATOM     20  C   UNL     1      -2.424  19.978  68.986  0.00  0.00    +0.029 C 
ENDBRANCH   1  15
BRANCH   6  21
ATOM     21  C   UNL     1      -9.601  15.184  67.236  0.00  0.00    +0.022 C 
ATOM     22  C   UNL     1      -8.611  13.955  66.849  0.00  0.00    +0.005 C 
BRANCH  21  23
ATOM     23  C   UNL     1     -10.703  14.736  66.184  0.00  0.00    -0.031 C 
ATOM     24  C   UNL     1     -10.450  13.826  65.299  0.00  0.00    -0.031 C 
BRANCH  24  25
ATOM     25  C   UNL     1     -11.676  13.782  64.254  0.00  0.00    +0.022 C 
ATOM     26  C   UNL     1     -12.740  13.350  65.418  0.00  0.00    +0.005 C 
BRANCH  25  27
ATOM     27  C   UNL     1     -11.320  12.264  63.780  0.00  0.00    +0.004 C 
ATOM     28  C   UNL     1     -12.621  11.777  63.231  0.00  0.00    +0.000 C 
ATOM     29  C   UNL     1     -10.694  11.473  64.819  0.00  0.00    +0.000 C 
ENDBRANCH  25  27
ENDBRANCH  24  25
ENDBRANCH  21  23
ENDBRANCH   6  21
TORSDOF 5
ENDMDL
MODEL 6
REMARK VINA RESULT:      -6.8      3.389      9.529
REMARK  Name = 
REMARK  5 active torsions:
REMARK  status: ('A' for Active; 'I' for Inactive)
REMARK    1  A    between atoms: C_9  and  C_10
REMARK    2  A    between atoms: C_20  and  C_21
REMARK    3  A    between atoms: C_21  and  C_23
REMARK    4  A    between atoms: C_24  and  C_25
REMARK    5  A    between atoms: C_25  and  C_27
REMARK                            x       y       z     vdW  Elec       q    Type
REMARK                         _______ _______ _______ _____ _____    ______ ____
ROOT
ATOM      1  C   UNL     1     -10.361  10.487  69.382  0.00  0.00    -0.009 C 
ATOM      2  C   UNL     1     -10.551  11.423  68.433  0.00  0.00    -0.045 C 
ATOM      3  C   UNL     1     -10.293  12.933  68.906  0.00  0.00    +0.018 C 
ATOM      4  C   UNL     1     -11.787  13.471  68.533  0.00  0.00    +0.004 C 
ATOM      5  C   UNL     1     -11.546  14.802  67.910  0.00  0.00    +0.001 C 
ATOM      6  C   UNL     1      -9.941  14.961  67.838  0.00  0.00    +0.004 C 
ATOM      7  C   UNL     1      -9.786  13.415  67.439  0.00  0.00    +0.004 C 
ATOM      8  C   UNL     1     -10.781  13.160  66.413  0.00  0.00    +0.000 C 
ATOM      9  C   UNL     1      -8.431  12.966  67.371  0.00  0.00    +0.001 C 
ATOM     10  C   UNL     1      -8.551  11.517  66.915  0.00  0.00    +0.004 C 
ATOM     11  C   UNL     1      -9.907  10.956  67.178  0.00  0.00    +0.022 C 
ENDROOT
BRANCH   1  15
ATOM     12  C   UNL     1     -11.928   9.859  71.158  0.00  0.00    -0.005 C 
ATOM     13  C   UNL     1     -11.709   8.695  71.099  0.00  0.00    -0.026 C 
ATOM     14  C   UNL     1     -11.014   8.229  69.890  0.00  0.00    -0.024 C 
ATOM     15  C   UNL     1     -10.841   9.157  68.946  0.00  0.00    -0.005 C 
ATOM     16  C   UNL     1     -10.598   6.834  69.661  0.00  0.00    +0.059 C 
ATOM     17  C   UNL     1     -11.318   5.988  70.876  0.00  0.00    +0.157 C 
ATOM     18  O   UNL     1     -10.230   4.928  70.837  0.00  0.00    -0.223 OA
ATOM     19  C   UNL     1     -10.516   6.827  72.047  0.00  0.00    +0.038 C 
ATOM     20  C   UNL     1     -11.450   7.972  72.386  0.00  0.00    +0.029 C 
ENDBRANCH   1  15
BRANCH   6  21
ATOM     21  C   UNL     1      -9.954  15.424  66.198  0.00  0.00    +0.022 C 
ATOM     22  C   UNL     1      -8.416  15.943  66.266  0.00  0.00    +0.005 C 
BRANCH  21  23
ATOM     23  C   UNL     1     -10.542  16.871  66.487  0.00  0.00    -0.031 C 
ATOM     24  C   UNL     1      -9.785  17.920  66.442  0.00  0.00    -0.031 C 
BRANCH  24  25
ATOM     25  C   UNL     1     -10.623  19.173  67.011  0.00  0.00    +0.022 C 
ATOM     26  C   UNL     1     -10.645  19.906  65.550  0.00  0.00    +0.005 C 
BRANCH  25  27
ATOM     27  C   UNL     1      -9.282  19.923  67.555  0.00  0.00    +0.004 C 
ATOM     28  C   UNL     1      -8.380  19.891  66.365  0.00  0.00    +0.000 C 
ATOM     29  C   UNL     1      -8.777  19.365  68.792  0.00  0.00    +0.000 C 
ENDBRANCH  25  27
ENDBRANCH  24  25
ENDBRANCH  21  23
ENDBRANCH   6  21
TORSDOF 5
ENDMDL
MODEL 7
REMARK VINA RESULT:      -6.8      5.144      9.093
REMARK  Name = 
REMARK  5 active torsions:
REMARK  status: ('A' for Active; 'I' for Inactive)
REMARK    1  A    between atoms: C_9  and  C_10
REMARK    2  A    between atoms: C_20  and  C_21
REMARK    3  A    between atoms: C_21  and  C_23
REMARK    4  A    between atoms: C_24  and  C_25
REMARK    5  A    between atoms: C_25  and  C_27
REMARK                            x       y       z     vdW  Elec       q    Type
REMARK                         _______ _______ _______ _____ _____    ______ ____
ROOT
ATOM      1  C   UNL     1     -11.360  10.459  70.690  0.00  0.00    -0.009 C 
ATOM      2  C   UNL     1     -11.470   9.124  70.554  0.00  0.00    -0.045 C 
ATOM      3  C   UNL     1     -10.169   8.389  69.971  0.00  0.00    +0.018 C 
ATOM      4  C   UNL     1     -10.924   7.728  68.686  0.00  0.00    +0.004 C 
ATOM      5  C   UNL     1     -10.370   6.349  68.613  0.00  0.00    +0.001 C 
ATOM      6  C   UNL     1      -9.402   6.203  69.897  0.00  0.00    +0.004 C 
ATOM      7  C   UNL     1     -10.445   7.019  70.801  0.00  0.00    +0.004 C 
ATOM      8  C   UNL     1     -11.755   6.465  70.508  0.00  0.00    +0.000 C 
ATOM      9  C   UNL     1      -9.972   7.305  72.119  0.00  0.00    +0.001 C 
ATOM     10  C   UNL     1     -11.149   8.009  72.783  0.00  0.00    +0.004 C 
ATOM     11  C   UNL     1     -12.099   8.577  71.784  0.00  0.00    +0.022 C 
ENDROOT
BRANCH   1  15
ATOM     12  C   UNL     1     -11.414  12.386  69.178  0.00  0.00    -0.005 C 
ATOM     13  C   UNL     1     -12.026  13.091  69.911  0.00  0.00    -0.026 C 
ATOM     14  C   UNL     1     -12.705  12.423  71.031  0.00  0.00    -0.024 C 
ATOM     15  C   UNL     1     -12.661  11.089  71.002  0.00  0.00    -0.005 C 
ATOM     16  C   UNL     1     -13.459  13.131  72.081  0.00  0.00    +0.059 C 
ATOM     17  C   UNL     1     -13.562  14.681  71.537  0.00  0.00    +0.157 C 
ATOM     18  O   UNL     1     -13.657  15.216  72.956  0.00  0.00    -0.223 OA
ATOM     19  C   UNL     1     -11.924  14.874  71.530  0.00  0.00    +0.038 C 
ATOM     20  C   UNL     1     -11.513  14.483  70.124  0.00  0.00    +0.029 C 
ENDBRANCH   1  15
BRANCH   6  21
ATOM     21  C   UNL     1     -10.086   4.718  70.377  0.00  0.00    +0.022 C 
ATOM     22  C   UNL     1      -8.824   4.376  71.342  0.00  0.00    +0.005 C 
BRANCH  21  23
ATOM     23  C   UNL     1      -9.478   3.905  69.155  0.00  0.00    -0.031 C 
ATOM     24  C   UNL     1      -9.264   2.632  69.242  0.00  0.00    -0.031 C 
BRANCH  24  25
ATOM     25  C   UNL     1      -8.434   2.170  67.941  0.00  0.00    +0.022 C 
ATOM     26  C   UNL     1      -9.266   3.184  66.966  0.00  0.00    +0.005 C 
BRANCH  25  27
ATOM     27  C   UNL     1      -9.392   0.875  67.692  0.00  0.00    +0.004 C 
ATOM     28  C   UNL     1      -9.395   0.206  69.027  0.00  0.00    +0.000 C 
ATOM     29  C   UNL     1      -8.994   0.081  66.548  0.00  0.00    +0.000 C 
ENDBRANCH  25  27
ENDBRANCH  24  25
ENDBRANCH  21  23
ENDBRANCH   6  21
TORSDOF 5
ENDMDL
MODEL 8
REMARK VINA RESULT:      -6.6      5.365      8.525
REMARK  Name = 
REMARK  5 active torsions:
REMARK  status: ('A' for Active; 'I' for Inactive)
REMARK    1  A    between atoms: C_9  and  C_10
REMARK    2  A    between atoms: C_20  and  C_21
REMARK    3  A    between atoms: C_21  and  C_23
REMARK    4  A    between atoms: C_24  and  C_25
REMARK    5  A    between atoms: C_25  and  C_27
REMARK                            x       y       z     vdW  Elec       q    Type
REMARK                         _______ _______ _______ _____ _____    ______ ____
ROOT
ATOM      1  C   UNL     1     -11.072   9.843  68.384  0.00  0.00    -0.009 C 
ATOM      2  C   UNL     1     -10.461   8.954  69.189  0.00  0.00    -0.045 C 
ATOM      3  C   UNL     1     -11.165   8.727  70.612  0.00  0.00    +0.018 C 
ATOM      4  C   UNL     1      -9.863   9.145  71.500  0.00  0.00    +0.004 C 
ATOM      5  C   UNL     1      -9.841   8.142  72.601  0.00  0.00    +0.001 C 
ATOM      6  C   UNL     1     -11.046   7.117  72.275  0.00  0.00    +0.004 C 
ATOM      7  C   UNL     1     -10.698   7.174  70.711  0.00  0.00    +0.004 C 
ATOM      8  C   UNL     1      -9.256   7.036  70.611  0.00  0.00    +0.000 C 
ATOM      9  C   UNL     1     -11.629   6.473  69.883  0.00  0.00    +0.001 C 
ATOM     10  C   UNL     1     -11.049   6.616  68.482  0.00  0.00    +0.004 C 
ATOM     11  C   UNL     1     -10.099   7.760  68.381  0.00  0.00    +0.022 C 
ENDROOT
BRANCH   1  15
ATOM     12  C   UNL     1     -11.130  12.292  68.341  0.00  0.00    -0.005 C 
ATOM     13  C   UNL     1     -11.080  12.388  67.159  0.00  0.00    -0.026 C 
ATOM     14  C   UNL     1     -10.656  11.184  66.431  0.00  0.00    -0.024 C 
ATOM     15  C   UNL     1     -10.246  10.174  67.202  0.00  0.00    -0.005 C 
ATOM     16  C   UNL     1     -10.592  11.085  64.962  0.00  0.00    +0.059 C 
ATOM     17  C   UNL     1     -10.821  12.628  64.438  0.00  0.00    +0.157 C 
ATOM     18  O   UNL     1     -11.409  12.138  63.125  0.00  0.00    -0.223 OA
ATOM     19  C   UNL     1     -12.320  12.725  65.119  0.00  0.00    +0.038 C 
ATOM     20  C   UNL     1     -12.062  13.306  66.495  0.00  0.00    +0.029 C 
ENDBRANCH   1  15
BRANCH   6  21
ATOM     21  C   UNL     1     -10.069   5.737  72.484  0.00  0.00    +0.022 C 
ATOM     22  C   UNL     1     -11.350   4.808  72.853  0.00  0.00    +0.005 C 
BRANCH  21  23
ATOM     23  C   UNL     1      -9.749   6.045  74.009  0.00  0.00    -0.031 C 
ATOM     24  C   UNL     1      -9.849   5.123  74.911  0.00  0.00    -0.031 C 
BRANCH  24  25
ATOM     25  C   UNL     1      -9.693   5.812  76.358  0.00  0.00    +0.022 C 
ATOM     26  C   UNL     1      -8.301   6.554  75.929  0.00  0.00    +0.005 C 
BRANCH  25  27
ATOM     27  C   UNL     1      -8.988   4.490  77.000  0.00  0.00    +0.004 C 
ATOM     28  C   UNL     1      -7.535   4.750  76.775  0.00  0.00    +0.000 C 
ATOM     29  C   UNL     1      -9.533   3.249  76.490  0.00  0.00    +0.000 C 
ENDBRANCH  25  27
ENDBRANCH  24  25
ENDBRANCH  21  23
ENDBRANCH   6  21
TORSDOF 5
ENDMDL
MODEL 9
REMARK VINA RESULT:      -6.6      5.072      8.152
REMARK  Name = 
REMARK  5 active torsions:
REMARK  status: ('A' for Active; 'I' for Inactive)
REMARK    1  A    between atoms: C_9  and  C_10
REMARK    2  A    between atoms: C_20  and  C_21
REMARK    3  A    between atoms: C_21  and  C_23
REMARK    4  A    between atoms: C_24  and  C_25
REMARK    5  A    between atoms: C_25  and  C_27
REMARK                            x       y       z     vdW  Elec       q    Type
REMARK                         _______ _______ _______ _____ _____    ______ ____
ROOT
ATOM      1  C   UNL     1     -10.986  10.148  67.555  0.00  0.00    -0.009 C 
ATOM      2  C   UNL     1     -10.163   9.180  67.997  0.00  0.00    -0.045 C 
ATOM      3  C   UNL     1     -10.458   8.663  69.487  0.00  0.00    +0.018 C 
ATOM      4  C   UNL     1      -8.975   9.012  70.070  0.00  0.00    +0.004 C 
ATOM      5  C   UNL     1      -8.639   7.839  70.924  0.00  0.00    +0.001 C 
ATOM      6  C   UNL     1      -9.864   6.804  70.737  0.00  0.00    +0.004 C 
ATOM      7  C   UNL     1      -9.947   7.152  69.174  0.00  0.00    +0.004 C 
ATOM      8  C   UNL     1      -8.581   7.134  68.682  0.00  0.00    +0.000 C 
ATOM      9  C   UNL     1     -11.050   6.541  68.501  0.00  0.00    +0.001 C 
ATOM     10  C   UNL     1     -10.867   6.962  67.048  0.00  0.00    +0.004 C 
ATOM     11  C   UNL     1     -10.004   8.170  66.918  0.00  0.00    +0.022 C 
ENDROOT
BRANCH   1  15
ATOM     12  C   UNL     1     -10.738  12.524  68.101  0.00  0.00    -0.005 C 
ATOM     13  C   UNL     1     -11.029  12.922  67.022  0.00  0.00    -0.026 C 
ATOM     14  C   UNL     1     -10.999  11.929  65.939  0.00  0.00    -0.024 C 
ATOM     15  C   UNL     1     -10.512  10.734  66.282  0.00  0.00    -0.005 C 
ATOM     16  C   UNL     1     -11.387  12.213  64.545  0.00  0.00    +0.059 C 
ATOM     17  C   UNL     1     -11.560  13.849  64.495  0.00  0.00    +0.157 C 
ATOM     18  O   UNL     1     -12.569  13.748  63.363  0.00  0.00    -0.223 OA
ATOM     19  C   UNL     1     -12.764  13.840  65.622  0.00  0.00    +0.038 C 
ATOM     20  C   UNL     1     -12.036  14.029  66.939  0.00  0.00    +0.029 C 
ENDBRANCH   1  15
BRANCH   6  21
ATOM     21  C   UNL     1      -8.837   5.480  70.429  0.00  0.00    +0.022 C 
ATOM     22  C   UNL     1     -10.018   4.409  70.741  0.00  0.00    +0.005 C 
BRANCH  21  23
ATOM     23  C   UNL     1      -8.274   5.416  71.913  0.00  0.00    -0.031 C 
ATOM     24  C   UNL     1      -8.201   4.293  72.551  0.00  0.00    -0.031 C 
BRANCH  24  25
ATOM     25  C   UNL     1      -7.821   4.606  74.085  0.00  0.00    +0.022 C 
ATOM     26  C   UNL     1      -8.439   3.182  74.598  0.00  0.00    +0.005 C 
BRANCH  25  27
ATOM     27  C   UNL     1      -9.179   5.475  74.326  0.00  0.00    +0.004 C 
ATOM     28  C   UNL     1      -8.754   6.473  75.352  0.00  0.00    +0.000 C 
ATOM     29  C   UNL     1     -10.334   4.656  74.629  0.00  0.00    +0.000 C 
ENDBRANCH  25  27
ENDBRANCH  24  25
ENDBRANCH  21  23
ENDBRANCH   6  21
TORSDOF 5
ENDMDL
