MODEL 1
REMARK VINA RESULT:      -5.6      0.000      0.000
REMARK  Name = 
REMARK  5 active torsions:
REMARK  status: ('A' for Active; 'I' for Inactive)
REMARK    1  A    between atoms: N_2  and  N_3
REMARK    2  A    between atoms: N_3  and  C_4
REMARK    3  A    between atoms: C_4  and  C_5
REMARK    4  A    between atoms: C_8  and  C_9
REMARK    5  A    between atoms: N_11  and  C_12
REMARK                            x       y       z     vdW  Elec       q    Type
REMARK                         _______ _______ _______ _____ _____    ______ ____
ROOT
ATOM      1  C   UNL     1     -11.900  12.999  67.270  0.00  0.00    -0.003 A 
ATOM      2  C   UNL     1     -11.473  11.695  67.471  0.00  0.00    -0.003 A 
ATOM      3  C   UNL     1     -11.656  11.041  68.680  0.00  0.00    +0.004 A 
ATOM      4  C   UNL     1     -11.775  11.823  69.812  0.00  0.00    +0.055 A 
ATOM      5  C   UNL     1     -12.002  13.184  69.654  0.00  0.00    +0.004 A 
ATOM      6  C   UNL     1     -11.953  13.792  68.407  0.00  0.00    -0.003 A 
ENDROOT
BRANCH   4   7
ATOM      7  C   UNL     1     -12.353  11.188  71.004  0.00  0.00    +0.265 C 
ATOM      8  N   UNL     1     -12.257   9.785  71.135  0.00  0.00    -0.203 NA
ATOM      9  O   UNL     1     -13.148  11.811  71.740  0.00  0.00    -0.268 OA
BRANCH   8  10
ATOM     10  C   UNL     1     -12.862   9.025  72.212  0.00  0.00    +0.096 C 
ATOM     11  C   UNL     1     -11.916   7.869  72.506  0.00  0.00    +0.023 C 
ATOM     12  C   UNL     1     -14.120   8.396  71.619  0.00  0.00    +0.023 C 
ENDBRANCH   8  10
ENDBRANCH   4   7
BRANCH   1  13
ATOM     13  C   UNL     1     -11.633  13.725  65.989  0.00  0.00    +0.136 C 
BRANCH  13  14
ATOM     14  N   UNL     1     -12.823  13.787  65.166  0.00  0.00    -0.126 NA
BRANCH  14  16
ATOM     15  C   UNL     1     -12.282  12.199  63.490  0.00  0.00    +0.130 C 
ATOM     16  N   UNL     1     -13.149  12.582  64.568  0.00  0.00    -0.129 NA
ENDBRANCH  14  16
ENDBRANCH  13  14
ENDBRANCH   1  13
TORSDOF 5
ENDMDL
MODEL 2
REMARK VINA RESULT:      -5.4      3.291      6.392
REMARK  Name = 
REMARK  5 active torsions:
REMARK  status: ('A' for Active; 'I' for Inactive)
REMARK    1  A    between atoms: N_2  and  N_3
REMARK    2  A    between atoms: N_3  and  C_4
REMARK    3  A    between atoms: C_4  and  C_5
REMARK    4  A    between atoms: C_8  and  C_9
REMARK    5  A    between atoms: N_11  and  C_12
REMARK                            x       y       z     vdW  Elec       q    Type
REMARK                         _______ _______ _______ _____ _____    ______ ____
ROOT
ATOM      1  C   UNL     1     -12.280  14.831  69.867  0.00  0.00    -0.003 A 
ATOM      2  C   UNL     1     -11.632  15.257  68.718  0.00  0.00    -0.003 A 
ATOM      3  C   UNL     1     -11.334  14.390  67.678  0.00  0.00    +0.004 A 
ATOM      4  C   UNL     1     -11.205  13.051  67.987  0.00  0.00    +0.055 A 
ATOM      5  C   UNL     1     -11.661  12.611  69.223  0.00  0.00    +0.004 A 
ATOM      6  C   UNL     1     -12.089  13.498  70.201  0.00  0.00    -0.003 A 
ENDROOT
BRANCH   4   7
ATOM      7  C   UNL     1     -11.287  12.098  66.872  0.00  0.00    +0.265 C 
ATOM      8  N   UNL     1     -11.312  12.603  65.553  0.00  0.00    -0.203 NA
ATOM      9  O   UNL     1     -11.608  10.907  67.069  0.00  0.00    -0.268 OA
BRANCH   8  10
ATOM     10  C   UNL     1     -11.482  11.781  64.370  0.00  0.00    +0.096 C 
ATOM     11  C   UNL     1     -10.085  11.513  63.830  0.00  0.00    +0.023 C 
ATOM     12  C   UNL     1     -12.166  12.675  63.340  0.00  0.00    +0.023 C 
ENDBRANCH   8  10
ENDBRANCH   4   7
BRANCH   1  13
ATOM     13  C   UNL     1     -12.532  15.754  71.017  0.00  0.00    +0.136 C 
BRANCH  13  14
ATOM     14  N   UNL     1     -13.913  15.688  71.448  0.00  0.00    -0.126 NA
BRANCH  14  16
ATOM     15  C   UNL     1     -12.863  15.959  73.558  0.00  0.00    +0.130 C 
ATOM     16  N   UNL     1     -14.084  15.911  72.804  0.00  0.00    -0.129 NA
ENDBRANCH  14  16
ENDBRANCH  13  14
ENDBRANCH   1  13
TORSDOF 5
ENDMDL
MODEL 3
REMARK VINA RESULT:      -5.4      3.033      3.763
REMARK  Name = 
REMARK  5 active torsions:
REMARK  status: ('A' for Active; 'I' for Inactive)
REMARK    1  A    between atoms: N_2  and  N_3
REMARK    2  A    between atoms: N_3  and  C_4
REMARK    3  A    between atoms: C_4  and  C_5
REMARK    4  A    between atoms: C_8  and  C_9
REMARK    5  A    between atoms: N_11  and  C_12
REMARK                            x       y       z     vdW  Elec       q    Type
REMARK                         _______ _______ _______ _____ _____    ______ ____
ROOT
ATOM      1  C   UNL     1     -11.635  14.088  66.291  0.00  0.00    -0.003 A 
ATOM      2  C   UNL     1     -11.596  12.840  66.891  0.00  0.00    -0.003 A 
ATOM      3  C   UNL     1     -11.839  12.667  68.246  0.00  0.00    +0.004 A 
ATOM      4  C   UNL     1     -11.605  13.748  69.074  0.00  0.00    +0.055 A 
ATOM      5  C   UNL     1     -11.433  14.998  68.495  0.00  0.00    +0.004 A 
ATOM      6  C   UNL     1     -11.334  15.160  67.120  0.00  0.00    -0.003 A 
ENDROOT
BRANCH   4   7
ATOM      7  C   UNL     1     -12.220  13.712  70.407  0.00  0.00    +0.265 C 
ATOM      8  N   UNL     1     -12.285  14.910  71.153  0.00  0.00    -0.203 NA
ATOM      9  O   UNL     1     -12.425  12.625  70.989  0.00  0.00    -0.268 OA
BRANCH   8  10
ATOM     10  C   UNL     1     -12.782  14.995  72.513  0.00  0.00    +0.096 C 
ATOM     11  C   UNL     1     -14.253  15.371  72.409  0.00  0.00    +0.023 C 
ATOM     12  C   UNL     1     -12.084  16.201  73.134  0.00  0.00    +0.023 C 
ENDBRANCH   8  10
ENDBRANCH   4   7
BRANCH   1  13
ATOM     13  C   UNL     1     -11.298  14.278  64.845  0.00  0.00    +0.136 C 
BRANCH  13  14
ATOM     14  N   UNL     1     -12.493  14.281  64.027  0.00  0.00    -0.126 NA
BRANCH  14  16
ATOM     15  C   UNL     1     -12.490  11.988  63.417  0.00  0.00    +0.130 C 
ATOM     16  N   UNL     1     -12.461  13.360  62.994  0.00  0.00    -0.129 NA
ENDBRANCH  14  16
ENDBRANCH  13  14
ENDBRANCH   1  13
TORSDOF 5
ENDMDL
MODEL 4
REMARK VINA RESULT:      -5.3      4.689      7.203
REMARK  Name = 
REMARK  5 active torsions:
REMARK  status: ('A' for Active; 'I' for Inactive)
REMARK    1  A    between atoms: N_2  and  N_3
REMARK    2  A    between atoms: N_3  and  C_4
REMARK    3  A    between atoms: C_4  and  C_5
REMARK    4  A    between atoms: C_8  and  C_9
REMARK    5  A    between atoms: N_11  and  C_12
REMARK                            x       y       z     vdW  Elec       q    Type
REMARK                         _______ _______ _______ _____ _____    ______ ____
ROOT
ATOM      1  C   UNL     1     -11.598  14.054  66.259  0.00  0.00    -0.003 A 
ATOM      2  C   UNL     1     -11.715  14.415  67.593  0.00  0.00    -0.003 A 
ATOM      3  C   UNL     1     -11.240  15.628  68.070  0.00  0.00    +0.004 A 
ATOM      4  C   UNL     1     -10.216  16.229  67.364  0.00  0.00    +0.055 A 
ATOM      5  C   UNL     1      -9.928  15.759  66.089  0.00  0.00    +0.004 A 
ATOM      6  C   UNL     1     -10.527  14.615  65.580  0.00  0.00    -0.003 A 
ENDROOT
BRANCH   4   7
ATOM      7  C   UNL     1      -9.985  17.658  67.613  0.00  0.00    +0.265 C 
ATOM      8  N   UNL     1      -8.680  18.081  67.950  0.00  0.00    -0.203 NA
ATOM      9  O   UNL     1     -10.941  18.439  67.802  0.00  0.00    -0.268 OA
BRANCH   8  10
ATOM     10  C   UNL     1      -8.334  19.444  68.308  0.00  0.00    +0.096 C 
ATOM     11  C   UNL     1      -7.965  20.148  67.010  0.00  0.00    +0.023 C 
ATOM     12  C   UNL     1      -7.041  19.345  69.113  0.00  0.00    +0.023 C 
ENDBRANCH   8  10
ENDBRANCH   4   7
BRANCH   1  13
ATOM     13  C   UNL     1     -12.044  12.714  65.765  0.00  0.00    +0.136 C 
BRANCH  13  14
ATOM     14  N   UNL     1     -13.103  12.843  64.786  0.00  0.00    -0.126 NA
BRANCH  14  16
ATOM     15  C   UNL     1     -11.505  11.685  63.469  0.00  0.00    +0.130 C 
ATOM     16  N   UNL     1     -12.848  12.174  63.601  0.00  0.00    -0.129 NA
ENDBRANCH  14  16
ENDBRANCH  13  14
ENDBRANCH   1  13
TORSDOF 5
ENDMDL
MODEL 5
REMARK VINA RESULT:      -5.2      3.972      6.737
REMARK  Name = 
REMARK  5 active torsions:
REMARK  status: ('A' for Active; 'I' for Inactive)
REMARK    1  A    between atoms: N_2  and  N_3
REMARK    2  A    between atoms: N_3  and  C_4
REMARK    3  A    between atoms: C_4  and  C_5
REMARK    4  A    between atoms: C_8  and  C_9
REMARK    5  A    between atoms: N_11  and  C_12
REMARK                            x       y       z     vdW  Elec       q    Type
REMARK                         _______ _______ _______ _____ _____    ______ ____
ROOT
ATOM      1  C   UNL     1     -11.499  15.338  70.176  0.00  0.00    -0.003 A 
ATOM      2  C   UNL     1     -12.060  14.155  69.721  0.00  0.00    -0.003 A 
ATOM      3  C   UNL     1     -11.888  13.713  68.418  0.00  0.00    +0.004 A 
ATOM      4  C   UNL     1     -11.618  14.667  67.456  0.00  0.00    +0.055 A 
ATOM      5  C   UNL     1     -11.247  15.938  67.873  0.00  0.00    +0.004 A 
ATOM      6  C   UNL     1     -11.294  16.312  69.208  0.00  0.00    -0.003 A 
ENDROOT
BRANCH   4   7
ATOM      7  C   UNL     1     -11.052  14.192  66.187  0.00  0.00    +0.265 C 
ATOM      8  N   UNL     1     -11.572  13.009  65.617  0.00  0.00    -0.203 NA
ATOM      9  O   UNL     1      -9.968  14.643  65.760  0.00  0.00    -0.268 OA
BRANCH   8  10
ATOM     10  C   UNL     1     -11.044  12.383  64.419  0.00  0.00    +0.096 C 
ATOM     11  C   UNL     1     -12.235  12.139  63.502  0.00  0.00    +0.023 C 
ATOM     12  C   UNL     1     -10.558  11.003  64.852  0.00  0.00    +0.023 C 
ENDBRANCH   8  10
ENDBRANCH   4   7
BRANCH   1  13
ATOM     13  C   UNL     1     -11.750  15.847  71.560  0.00  0.00    +0.136 C 
BRANCH  13  14
ATOM     14  N   UNL     1     -13.169  15.927  71.838  0.00  0.00    -0.126 NA
BRANCH  14  16
ATOM     15  C   UNL     1     -12.437  15.407  74.034  0.00  0.00    +0.130 C 
ATOM     16  N   UNL     1     -13.471  15.935  73.189  0.00  0.00    -0.129 NA
ENDBRANCH  14  16
ENDBRANCH  13  14
ENDBRANCH   1  13
TORSDOF 5
ENDMDL
MODEL 6
REMARK VINA RESULT:      -5.2      4.077      4.602
REMARK  Name = 
REMARK  5 active torsions:
REMARK  status: ('A' for Active; 'I' for Inactive)
REMARK    1  A    between atoms: N_2  and  N_3
REMARK    2  A    between atoms: N_3  and  C_4
REMARK    3  A    between atoms: C_4  and  C_5
REMARK    4  A    between atoms: C_8  and  C_9
REMARK    5  A    between atoms: N_11  and  C_12
REMARK                            x       y       z     vdW  Elec       q    Type
REMARK                         _______ _______ _______ _____ _____    ______ ____
ROOT
ATOM      1  C   UNL     1     -11.901  13.573  64.976  0.00  0.00    -0.003 A 
ATOM      2  C   UNL     1     -12.006  12.859  66.159  0.00  0.00    -0.003 A 
ATOM      3  C   UNL     1     -11.942  13.476  67.399  0.00  0.00    +0.004 A 
ATOM      4  C   UNL     1     -11.268  14.680  67.473  0.00  0.00    +0.055 A 
ATOM      5  C   UNL     1     -10.959  15.337  66.290  0.00  0.00    +0.004 A 
ATOM      6  C   UNL     1     -11.166  14.748  65.051  0.00  0.00    -0.003 A 
ENDROOT
BRANCH   4   7
ATOM      7  C   UNL     1     -11.528  15.518  68.650  0.00  0.00    +0.265 C 
ATOM      8  N   UNL     1     -12.205  14.946  69.750  0.00  0.00    -0.203 NA
ATOM      9  O   UNL     1     -11.417  16.762  68.589  0.00  0.00    -0.268 OA
BRANCH   8  10
ATOM     10  C   UNL     1     -12.604  15.685  70.934  0.00  0.00    +0.096 C 
ATOM     11  C   UNL     1     -11.631  15.288  72.035  0.00  0.00    +0.023 C 
ATOM     12  C   UNL     1     -13.957  15.111  71.343  0.00  0.00    +0.023 C 
ENDBRANCH   8  10
ENDBRANCH   4   7
BRANCH   1  13
ATOM     13  C   UNL     1     -11.895  12.892  63.644  0.00  0.00    +0.136 C 
BRANCH  13  14
ATOM     14  N   UNL     1     -11.253  11.596  63.722  0.00  0.00    -0.126 NA
BRANCH  14  16
ATOM     15  C   UNL     1      -9.373  10.269  63.147  0.00  0.00    +0.130 C 
ATOM     16  N   UNL     1     -10.000  11.560  63.134  0.00  0.00    -0.129 NA
ENDBRANCH  14  16
ENDBRANCH  13  14
ENDBRANCH   1  13
TORSDOF 5
ENDMDL
MODEL 7
REMARK VINA RESULT:      -5.1      3.567      4.764
REMARK  Name = 
REMARK  5 active torsions:
REMARK  status: ('A' for Active; 'I' for Inactive)
REMARK    1  A    between atoms: N_2  and  N_3
REMARK    2  A    between atoms: N_3  and  C_4
REMARK    3  A    between atoms: C_4  and  C_5
REMARK    4  A    between atoms: C_8  and  C_9
REMARK    5  A    between atoms: N_11  and  C_12
REMARK                            x       y       z     vdW  Elec       q    Type
REMARK                         _______ _______ _______ _____ _____    ______ ____
ROOT
ATOM      1  C   UNL     1     -12.496  13.518  70.860  0.00  0.00    -0.003 A 
ATOM      2  C   UNL     1     -13.113  12.498  71.567  0.00  0.00    -0.003 A 
ATOM      3  C   UNL     1     -12.673  11.184  71.498  0.00  0.00    +0.004 A 
ATOM      4  C   UNL     1     -11.985  10.806  70.361  0.00  0.00    +0.055 A 
ATOM      5  C   UNL     1     -11.520  11.800  69.509  0.00  0.00    +0.004 A 
ATOM      6  C   UNL     1     -11.864  13.133  69.686  0.00  0.00    -0.003 A 
ENDROOT
BRANCH   4   7
ATOM      7  C   UNL     1     -11.188   9.576  70.443  0.00  0.00    +0.265 C 
ATOM      8  N   UNL     1     -11.843   8.367  70.767  0.00  0.00    -0.203 NA
ATOM      9  O   UNL     1      -9.940   9.623  70.508  0.00  0.00    -0.268 OA
BRANCH   8  10
ATOM     10  C   UNL     1     -11.163   7.102  70.969  0.00  0.00    +0.096 C 
ATOM     11  C   UNL     1     -11.383   6.289  69.701  0.00  0.00    +0.023 C 
ATOM     12  C   UNL     1     -11.942   6.384  72.068  0.00  0.00    +0.023 C 
ENDBRANCH   8  10
ENDBRANCH   4   7
BRANCH   1  13
ATOM     13  C   UNL     1     -13.021  14.919  70.880  0.00  0.00    +0.136 C 
BRANCH  13  14
ATOM     14  N   UNL     1     -14.237  15.010  71.661  0.00  0.00    -0.126 NA
BRANCH  14  16
ATOM     15  C   UNL     1     -12.929  15.950  73.403  0.00  0.00    +0.130 C 
ATOM     16  N   UNL     1     -14.171  15.941  72.683  0.00  0.00    -0.129 NA
ENDBRANCH  14  16
ENDBRANCH  13  14
ENDBRANCH   1  13
TORSDOF 5
ENDMDL
MODEL 8
REMARK VINA RESULT:      -5.0      4.803      6.496
REMARK  Name = 
REMARK  5 active torsions:
REMARK  status: ('A' for Active; 'I' for Inactive)
REMARK    1  A    between atoms: N_2  and  N_3
REMARK    2  A    between atoms: N_3  and  C_4
REMARK    3  A    between atoms: C_4  and  C_5
REMARK    4  A    between atoms: C_8  and  C_9
REMARK    5  A    between atoms: N_11  and  C_12
REMARK                            x       y       z     vdW  Elec       q    Type
REMARK                         _______ _______ _______ _____ _____    ______ ____
ROOT
ATOM      1  C   UNL     1     -10.222  16.207  67.073  0.00  0.00    -0.003 A 
ATOM      2  C   UNL     1     -11.152  15.389  67.695  0.00  0.00    -0.003 A 
ATOM      3  C   UNL     1     -11.649  14.247  67.086  0.00  0.00    +0.004 A 
ATOM      4  C   UNL     1     -11.628  14.204  65.706  0.00  0.00    +0.055 A 
ATOM      5  C   UNL     1     -10.862  15.143  65.028  0.00  0.00    +0.004 A 
ATOM      6  C   UNL     1     -10.255  16.203  65.686  0.00  0.00    -0.003 A 
ENDROOT
BRANCH   4   7
ATOM      7  C   UNL     1     -11.770  12.884  65.078  0.00  0.00    +0.265 C 
ATOM      8  N   UNL     1     -10.601  12.153  64.771  0.00  0.00    -0.203 NA
ATOM      9  O   UNL     1     -12.856  12.529  64.570  0.00  0.00    -0.268 OA
BRANCH   8  10
ATOM     10  C   UNL     1     -10.597  10.883  64.070  0.00  0.00    +0.096 C 
ATOM     11  C   UNL     1      -9.886   9.892  64.982  0.00  0.00    +0.023 C 
ATOM     12  C   UNL     1      -9.679  11.077  62.866  0.00  0.00    +0.023 C 
ENDBRANCH   8  10
ENDBRANCH   4   7
BRANCH   1  13
ATOM     13  C   UNL     1      -9.746  17.479  67.703  0.00  0.00    +0.136 C 
BRANCH  13  14
ATOM     14  N   UNL     1     -10.860  18.323  68.082  0.00  0.00    -0.126 NA
BRANCH  14  16
ATOM     15  C   UNL     1      -9.765  19.810  66.592  0.00  0.00    +0.130 C 
ATOM     16  N   UNL     1     -10.943  19.494  67.349  0.00  0.00    -0.129 NA
ENDBRANCH  14  16
ENDBRANCH  13  14
ENDBRANCH   1  13
TORSDOF 5
ENDMDL
MODEL 9
REMARK VINA RESULT:      -5.0      6.080      8.382
REMARK  Name = 
REMARK  5 active torsions:
REMARK  status: ('A' for Active; 'I' for Inactive)
REMARK    1  A    between atoms: N_2  and  N_3
REMARK    2  A    between atoms: N_3  and  C_4
REMARK    3  A    between atoms: C_4  and  C_5
REMARK    4  A    between atoms: C_8  and  C_9
REMARK    5  A    between atoms: N_11  and  C_12
REMARK                            x       y       z     vdW  Elec       q    Type
REMARK                         _______ _______ _______ _____ _____    ______ ____
ROOT
ATOM      1  C   UNL     1      -7.866  18.406  66.803  0.00  0.00    -0.003 A 
ATOM      2  C   UNL     1      -7.745  17.027  66.878  0.00  0.00    -0.003 A 
ATOM      3  C   UNL     1      -8.676  16.175  66.303  0.00  0.00    +0.004 A 
ATOM      4  C   UNL     1      -9.955  16.664  66.121  0.00  0.00    +0.055 A 
ATOM      5  C   UNL     1     -10.162  18.032  66.239  0.00  0.00    +0.004 A 
ATOM      6  C   UNL     1      -9.163  18.886  66.685  0.00  0.00    -0.003 A 
ENDROOT
BRANCH   4   7
ATOM      7  C   UNL     1     -10.817  15.941  65.177  0.00  0.00    +0.265 C 
ATOM      8  N   UNL     1     -10.827  14.529  65.218  0.00  0.00    -0.203 NA
ATOM      9  O   UNL     1     -11.309  16.521  64.185  0.00  0.00    -0.268 OA
BRANCH   8  10
ATOM     10  C   UNL     1     -11.560  13.694  64.285  0.00  0.00    +0.096 C 
ATOM     11  C   UNL     1     -12.661  13.016  65.090  0.00  0.00    +0.023 C 
ATOM     12  C   UNL     1     -10.596  12.584  63.877  0.00  0.00    +0.023 C 
ENDBRANCH   8  10
ENDBRANCH   4   7
BRANCH   1  13
ATOM     13  C   UNL     1      -6.901  19.320  67.490  0.00  0.00    +0.136 C 
BRANCH  13  14
ATOM     14  N   UNL     1      -7.333  20.699  67.401  0.00  0.00    -0.126 NA
BRANCH  14  16
ATOM     15  C   UNL     1      -5.000  21.127  67.338  0.00  0.00    +0.130 C 
ATOM     16  N   UNL     1      -6.328  21.573  67.023  0.00  0.00    -0.129 NA
ENDBRANCH  14  16
ENDBRANCH  13  14
ENDBRANCH   1  13
TORSDOF 5
ENDMDL
