MODEL 1
REMARK VINA RESULT:      -5.2      0.000      0.000
REMARK  Name = 
REMARK  4 active torsions:
REMARK  status: ('A' for Active; 'I' for Inactive)
REMARK    1  A    between atoms: C_2  and  C_3
REMARK    2  A    between atoms: C_3  and  C_4
REMARK    3  A    between atoms: C_4  and  N_5
REMARK    4  A    between atoms: C_13  and  C_14
REMARK                            x       y       z     vdW  Elec       q    Type
REMARK                         _______ _______ _______ _____ _____    ______ ____
ROOT
ATOM      1  N   UNL     1     -10.976  15.795  67.361  0.00  0.00    -0.267 NA
ATOM      2  C   UNL     1      -9.929  15.861  66.212  0.00  0.00    +0.124 C 
ATOM      3  C   UNL     1      -9.241  14.305  66.372  0.00  0.00    +0.202 C 
ATOM      4  O   UNL     1      -9.612  14.040  67.820  0.00  0.00    -0.219 OA
ATOM      5  C   UNL     1     -10.385  13.173  65.837  0.00  0.00    +0.215 C 
ATOM      6  O   UNL     1     -10.261  13.625  64.383  0.00  0.00    -0.218 OA
ATOM      7  C   UNL     1     -11.935  13.836  66.167  0.00  0.00    +0.201 C 
ATOM      8  O   UNL     1     -12.188  12.658  67.122  0.00  0.00    -0.219 OA
ATOM      9  C   UNL     1     -11.702  14.782  67.450  0.00  0.00    +0.108 C 
ENDROOT
BRANCH   2  10
ATOM     10  C   UNL     1     -11.008  15.597  65.034  0.00  0.00    +0.201 C 
ATOM     11  O   UNL     1     -11.262  16.690  64.336  0.00  0.00    -0.219 OA
ENDBRANCH   2  10
BRANCH   1  12
ATOM     12  C   UNL     1     -10.795  16.837  68.197  0.00  0.00    +0.072 C 
BRANCH  12  13
ATOM     13  C   UNL     1     -10.159  18.086  68.033  0.00  0.00    +0.017 C 
BRANCH  13  15
ATOM     14  C   UNL     1     -10.475  19.720  66.075  0.00  0.00    +0.000 C 
ATOM     15  C   UNL     1     -10.538  19.213  67.320  0.00  0.00    +0.001 C 
ENDBRANCH  13  15
ENDBRANCH  12  13
ENDBRANCH   1  12
TORSDOF 4
ENDMDL
MODEL 2
REMARK VINA RESULT:      -4.8      1.576      2.468
REMARK  Name = 
REMARK  4 active torsions:
REMARK  status: ('A' for Active; 'I' for Inactive)
REMARK    1  A    between atoms: C_2  and  C_3
REMARK    2  A    between atoms: C_3  and  C_4
REMARK    3  A    between atoms: C_4  and  N_5
REMARK    4  A    between atoms: C_13  and  C_14
REMARK                            x       y       z     vdW  Elec       q    Type
REMARK                         _______ _______ _______ _____ _____    ______ ____
ROOT
ATOM      1  N   UNL     1     -11.283  15.243  67.525  0.00  0.00    -0.267 NA
ATOM      2  C   UNL     1     -10.143  15.556  66.514  0.00  0.00    +0.124 C 
ATOM      3  C   UNL     1      -9.328  14.054  66.538  0.00  0.00    +0.202 C 
ATOM      4  O   UNL     1      -9.808  13.556  67.889  0.00  0.00    -0.219 OA
ATOM      5  C   UNL     1     -10.304  12.921  65.737  0.00  0.00    +0.215 C 
ATOM      6  O   UNL     1     -10.087  13.584  64.378  0.00  0.00    -0.218 OA
ATOM      7  C   UNL     1     -11.934  13.402  65.985  0.00  0.00    +0.201 C 
ATOM      8  O   UNL     1     -12.164  12.084  66.742  0.00  0.00    -0.219 OA
ATOM      9  C   UNL     1     -11.915  14.173  67.400  0.00  0.00    +0.108 C 
ENDROOT
BRANCH   2  10
ATOM     10  C   UNL     1     -11.075  15.376  65.202  0.00  0.00    +0.201 C 
ATOM     11  O   UNL     1     -11.127  16.477  64.472  0.00  0.00    -0.219 OA
ENDBRANCH   2  10
BRANCH   1  12
ATOM     12  C   UNL     1     -11.282  16.167  68.507  0.00  0.00    +0.072 C 
BRANCH  12  13
ATOM     13  C   UNL     1     -11.056  16.075  69.897  0.00  0.00    +0.017 C 
BRANCH  13  15
ATOM     14  C   UNL     1     -11.957  16.074  72.304  0.00  0.00    +0.000 C 
ATOM     15  C   UNL     1     -11.943  16.000  70.959  0.00  0.00    +0.001 C 
ENDBRANCH  13  15
ENDBRANCH  12  13
ENDBRANCH   1  12
TORSDOF 4
ENDMDL
MODEL 3
REMARK VINA RESULT:      -4.8      1.520      1.737
REMARK  Name = 
REMARK  4 active torsions:
REMARK  status: ('A' for Active; 'I' for Inactive)
REMARK    1  A    between atoms: C_2  and  C_3
REMARK    2  A    between atoms: C_3  and  C_4
REMARK    3  A    between atoms: C_4  and  N_5
REMARK    4  A    between atoms: C_13  and  C_14
REMARK                            x       y       z     vdW  Elec       q    Type
REMARK                         _______ _______ _______ _____ _____    ______ ____
ROOT
ATOM      1  N   UNL     1     -10.403  15.321  66.233  0.00  0.00    -0.267 NA
ATOM      2  C   UNL     1     -10.502  14.376  65.001  0.00  0.00    +0.124 C 
ATOM      3  C   UNL     1     -10.156  12.886  65.763  0.00  0.00    +0.202 C 
ATOM      4  O   UNL     1      -9.412  13.418  66.975  0.00  0.00    -0.219 OA
ATOM      5  C   UNL     1     -11.491  12.471  66.723  0.00  0.00    +0.215 C 
ATOM      6  O   UNL     1     -12.379  12.213  65.507  0.00  0.00    -0.218 OA
ATOM      7  C   UNL     1     -12.209  13.942  67.242  0.00  0.00    +0.201 C 
ATOM      8  O   UNL     1     -11.877  13.544  68.690  0.00  0.00    -0.219 OA
ATOM      9  C   UNL     1     -10.988  14.992  67.286  0.00  0.00    +0.108 C 
ENDROOT
BRANCH   2  10
ATOM     10  C   UNL     1     -12.122  14.342  64.989  0.00  0.00    +0.201 C 
ATOM     11  O   UNL     1     -12.626  15.007  63.964  0.00  0.00    -0.219 OA
ENDBRANCH   2  10
BRANCH   1  12
ATOM     12  C   UNL     1      -9.522  16.308  65.973  0.00  0.00    +0.072 C 
BRANCH  12  13
ATOM     13  C   UNL     1      -9.374  17.610  66.498  0.00  0.00    +0.017 C 
BRANCH  13  15
ATOM     14  C   UNL     1     -10.210  20.026  66.759  0.00  0.00    +0.000 C 
ATOM     15  C   UNL     1     -10.161  18.742  66.357  0.00  0.00    +0.001 C 
ENDBRANCH  13  15
ENDBRANCH  12  13
ENDBRANCH   1  12
TORSDOF 4
ENDMDL
MODEL 4
REMARK VINA RESULT:      -4.8      1.559      2.282
REMARK  Name = 
REMARK  4 active torsions:
REMARK  status: ('A' for Active; 'I' for Inactive)
REMARK    1  A    between atoms: C_2  and  C_3
REMARK    2  A    between atoms: C_3  and  C_4
REMARK    3  A    between atoms: C_4  and  N_5
REMARK    4  A    between atoms: C_13  and  C_14
REMARK                            x       y       z     vdW  Elec       q    Type
REMARK                         _______ _______ _______ _____ _____    ______ ____
ROOT
ATOM      1  N   UNL     1     -11.708  14.035  66.910  0.00  0.00    -0.267 NA
ATOM      2  C   UNL     1     -10.225  13.695  66.586  0.00  0.00    +0.124 C 
ATOM      3  C   UNL     1     -10.402  12.051  66.155  0.00  0.00    +0.202 C 
ATOM      4  O   UNL     1     -11.704  11.765  66.881  0.00  0.00    -0.219 OA
ATOM      5  C   UNL     1     -11.188  11.990  64.653  0.00  0.00    +0.215 C 
ATOM      6  O   UNL     1      -9.983  12.570  63.915  0.00  0.00    -0.218 OA
ATOM      7  C   UNL     1     -12.211  13.366  64.569  0.00  0.00    +0.201 C 
ATOM      8  O   UNL     1     -13.416  12.413  64.498  0.00  0.00    -0.219 OA
ATOM      9  C   UNL     1     -12.592  13.679  66.103  0.00  0.00    +0.108 C 
ENDROOT
BRANCH   2  10
ATOM     10  C   UNL     1     -10.243  14.396  65.126  0.00  0.00    +0.201 C 
ATOM     11  O   UNL     1      -9.792  15.638  65.163  0.00  0.00    -0.219 OA
ENDBRANCH   2  10
BRANCH   1  12
ATOM     12  C   UNL     1     -11.792  14.547  68.155  0.00  0.00    +0.072 C 
BRANCH  12  13
ATOM     13  C   UNL     1     -11.637  15.858  68.654  0.00  0.00    +0.017 C 
BRANCH  13  15
ATOM     14  C   UNL     1     -10.501  17.964  67.715  0.00  0.00    +0.000 C 
ATOM     15  C   UNL     1     -10.670  16.818  68.402  0.00  0.00    +0.001 C 
ENDBRANCH  13  15
ENDBRANCH  12  13
ENDBRANCH   1  12
TORSDOF 4
ENDMDL
MODEL 5
REMARK VINA RESULT:      -4.7      1.383      2.982
REMARK  Name = 
REMARK  4 active torsions:
REMARK  status: ('A' for Active; 'I' for Inactive)
REMARK    1  A    between atoms: C_2  and  C_3
REMARK    2  A    between atoms: C_3  and  C_4
REMARK    3  A    between atoms: C_4  and  N_5
REMARK    4  A    between atoms: C_13  and  C_14
REMARK                            x       y       z     vdW  Elec       q    Type
REMARK                         _______ _______ _______ _____ _____    ______ ____
ROOT
ATOM      1  N   UNL     1     -10.664  15.147  65.601  0.00  0.00    -0.267 NA
ATOM      2  C   UNL     1     -11.644  14.725  66.733  0.00  0.00    +0.124 C 
ATOM      3  C   UNL     1     -12.783  13.852  65.805  0.00  0.00    +0.202 C 
ATOM      4  O   UNL     1     -12.505  14.482  64.452  0.00  0.00    -0.219 OA
ATOM      5  C   UNL     1     -12.052  12.401  65.317  0.00  0.00    +0.215 C 
ATOM      6  O   UNL     1     -12.037  11.844  66.739  0.00  0.00    -0.218 OA
ATOM      7  C   UNL     1     -10.372  12.717  65.160  0.00  0.00    +0.201 C 
ATOM      8  O   UNL     1     -10.493  12.394  63.662  0.00  0.00    -0.219 OA
ATOM      9  C   UNL     1     -10.289  14.281  64.782  0.00  0.00    +0.108 C 
ENDROOT
BRANCH   2  10
ATOM     10  C   UNL     1     -10.709  13.521  67.278  0.00  0.00    +0.201 C 
ATOM     11  O   UNL     1     -10.043  13.861  68.368  0.00  0.00    -0.219 OA
ENDBRANCH   2  10
BRANCH   1  12
ATOM     12  C   UNL     1     -10.505  16.486  65.617  0.00  0.00    +0.072 C 
BRANCH  12  13
ATOM     13  C   UNL     1     -10.145  17.387  66.640  0.00  0.00    +0.017 C 
BRANCH  13  15
ATOM     14  C   UNL     1     -10.328  19.706  67.734  0.00  0.00    +0.000 C 
ATOM     15  C   UNL     1     -10.422  18.735  66.806  0.00  0.00    +0.001 C 
ENDBRANCH  13  15
ENDBRANCH  12  13
ENDBRANCH   1  12
TORSDOF 4
ENDMDL
MODEL 6
REMARK VINA RESULT:      -4.7      2.517      3.810
REMARK  Name = 
REMARK  4 active torsions:
REMARK  status: ('A' for Active; 'I' for Inactive)
REMARK    1  A    between atoms: C_2  and  C_3
REMARK    2  A    between atoms: C_3  and  C_4
REMARK    3  A    between atoms: C_4  and  N_5
REMARK    4  A    between atoms: C_13  and  C_14
REMARK                            x       y       z     vdW  Elec       q    Type
REMARK                         _______ _______ _______ _____ _____    ______ ____
ROOT
ATOM      1  N   UNL     1     -11.030  16.013  68.238  0.00  0.00    -0.267 NA
ATOM      2  C   UNL     1      -9.979  17.137  68.466  0.00  0.00    +0.124 C 
ATOM      3  C   UNL     1      -8.586  16.340  67.880  0.00  0.00    +0.202 C 
ATOM      4  O   UNL     1      -9.058  14.906  68.046  0.00  0.00    -0.219 OA
ATOM      5  C   UNL     1      -8.723  16.225  66.193  0.00  0.00    +0.215 C 
ATOM      6  O   UNL     1      -8.552  17.731  66.003  0.00  0.00    -0.218 OA
ATOM      7  C   UNL     1     -10.400  16.124  65.835  0.00  0.00    +0.201 C 
ATOM      8  O   UNL     1     -10.147  14.724  65.251  0.00  0.00    -0.219 OA
ATOM      9  C   UNL     1     -11.048  15.427  67.135  0.00  0.00    +0.108 C 
ENDROOT
BRANCH   2  10
ATOM     10  C   UNL     1     -10.412  17.992  67.160  0.00  0.00    +0.201 C 
ATOM     11  O   UNL     1     -11.077  19.088  67.480  0.00  0.00    -0.219 OA
ENDBRANCH   2  10
BRANCH   1  12
ATOM     12  C   UNL     1     -11.671  15.754  69.396  0.00  0.00    +0.072 C 
BRANCH  12  13
ATOM     13  C   UNL     1     -11.344  16.021  70.742  0.00  0.00    +0.017 C 
BRANCH  13  15
ATOM     14  C   UNL     1     -12.233  15.380  73.067  0.00  0.00    +0.000 C 
ATOM     15  C   UNL     1     -12.127  16.018  71.886  0.00  0.00    +0.001 C 
ENDBRANCH  13  15
ENDBRANCH  12  13
ENDBRANCH   1  12
TORSDOF 4
ENDMDL
MODEL 7
REMARK VINA RESULT:      -4.6      2.509      3.920
REMARK  Name = 
REMARK  4 active torsions:
REMARK  status: ('A' for Active; 'I' for Inactive)
REMARK    1  A    between atoms: C_2  and  C_3
REMARK    2  A    between atoms: C_3  and  C_4
REMARK    3  A    between atoms: C_4  and  N_5
REMARK    4  A    between atoms: C_13  and  C_14
REMARK                            x       y       z     vdW  Elec       q    Type
REMARK                         _______ _______ _______ _____ _____    ______ ____
ROOT
ATOM      1  N   UNL     1     -11.553  13.855  67.181  0.00  0.00    -0.267 NA
ATOM      2  C   UNL     1     -11.569  12.442  66.529  0.00  0.00    +0.124 C 
ATOM      3  C   UNL     1     -12.415  12.808  65.090  0.00  0.00    +0.202 C 
ATOM      4  O   UNL     1     -13.125  14.066  65.557  0.00  0.00    -0.219 OA
ATOM      5  C   UNL     1     -11.383  13.720  64.099  0.00  0.00    +0.215 C 
ATOM      6  O   UNL     1     -10.457  12.532  63.843  0.00  0.00    -0.218 OA
ATOM      7  C   UNL     1     -10.351  14.614  65.141  0.00  0.00    +0.201 C 
ATOM      8  O   UNL     1     -10.962  15.904  64.570  0.00  0.00    -0.219 OA
ATOM      9  C   UNL     1     -11.222  14.833  66.478  0.00  0.00    +0.108 C 
ENDROOT
BRANCH   2  10
ATOM     10  C   UNL     1     -10.037  12.518  66.009  0.00  0.00    +0.201 C 
ATOM     11  O   UNL     1      -9.211  11.845  66.791  0.00  0.00    -0.219 OA
ENDBRANCH   2  10
BRANCH   1  12
ATOM     12  C   UNL     1     -12.079  13.786  68.421  0.00  0.00    +0.072 C 
BRANCH  12  13
ATOM     13  C   UNL     1     -11.647  14.290  69.665  0.00  0.00    +0.017 C 
BRANCH  13  15
ATOM     14  C   UNL     1     -11.913  15.999  71.566  0.00  0.00    +0.000 C 
ATOM     15  C   UNL     1     -12.234  15.198  70.532  0.00  0.00    +0.001 C 
ENDBRANCH  13  15
ENDBRANCH  12  13
ENDBRANCH   1  12
TORSDOF 4
ENDMDL
MODEL 8
REMARK VINA RESULT:      -4.6      3.033      5.053
REMARK  Name = 
REMARK  4 active torsions:
REMARK  status: ('A' for Active; 'I' for Inactive)
REMARK    1  A    between atoms: C_2  and  C_3
REMARK    2  A    between atoms: C_3  and  C_4
REMARK    3  A    between atoms: C_4  and  N_5
REMARK    4  A    between atoms: C_13  and  C_14
REMARK                            x       y       z     vdW  Elec       q    Type
REMARK                         _______ _______ _______ _____ _____    ______ ____
ROOT
ATOM      1  N   UNL     1     -10.601  12.644  66.303  0.00  0.00    -0.267 NA
ATOM      2  C   UNL     1     -11.902  12.224  65.562  0.00  0.00    +0.124 C 
ATOM      3  C   UNL     1     -12.795  13.672  65.722  0.00  0.00    +0.202 C 
ATOM      4  O   UNL     1     -12.080  14.248  66.931  0.00  0.00    -0.219 OA
ATOM      5  C   UNL     1     -12.087  14.834  64.709  0.00  0.00    +0.215 C 
ATOM      6  O   UNL     1     -12.537  14.109  63.441  0.00  0.00    -0.218 OA
ATOM      7  C   UNL     1     -10.413  14.464  64.619  0.00  0.00    +0.201 C 
ATOM      8  O   UNL     1     -10.121  15.821  65.281  0.00  0.00    -0.219 OA
ATOM      9  C   UNL     1     -10.084  13.746  66.024  0.00  0.00    +0.108 C 
ENDROOT
BRANCH   2  10
ATOM     10  C   UNL     1     -11.278  12.414  64.079  0.00  0.00    +0.201 C 
ATOM     11  O   UNL     1     -10.971  11.258  63.516  0.00  0.00    -0.219 OA
ENDBRANCH   2  10
BRANCH   1  12
ATOM     12  C   UNL     1     -10.334  11.758  67.284  0.00  0.00    +0.072 C 
BRANCH  12  13
ATOM     13  C   UNL     1     -11.149  10.843  67.983  0.00  0.00    +0.017 C 
BRANCH  13  15
ATOM     14  C   UNL     1     -11.867  10.952  70.449  0.00  0.00    +0.000 C 
ATOM     15  C   UNL     1     -11.945  11.007  69.106  0.00  0.00    +0.001 C 
ENDBRANCH  13  15
ENDBRANCH  12  13
ENDBRANCH   1  12
TORSDOF 4
ENDMDL
MODEL 9
REMARK VINA RESULT:      -4.5      2.765      4.801
REMARK  Name = 
REMARK  4 active torsions:
REMARK  status: ('A' for Active; 'I' for Inactive)
REMARK    1  A    between atoms: C_2  and  C_3
REMARK    2  A    between atoms: C_3  and  C_4
REMARK    3  A    between atoms: C_4  and  N_5
REMARK    4  A    between atoms: C_13  and  C_14
REMARK                            x       y       z     vdW  Elec       q    Type
REMARK                         _______ _______ _______ _____ _____    ______ ____
ROOT
ATOM      1  N   UNL     1     -10.444  16.871  68.184  0.00  0.00    -0.267 NA
ATOM      2  C   UNL     1     -10.326  16.758  66.637  0.00  0.00    +0.124 C 
ATOM      3  C   UNL     1     -10.327  18.419  66.235  0.00  0.00    +0.202 C 
ATOM      4  O   UNL     1     -11.008  18.954  67.481  0.00  0.00    -0.219 OA
ATOM      5  C   UNL     1      -8.840  19.073  66.726  0.00  0.00    +0.215 C 
ATOM      6  O   UNL     1      -8.065  18.303  65.659  0.00  0.00    -0.218 OA
ATOM      7  C   UNL     1      -8.328  18.173  68.096  0.00  0.00    +0.201 C 
ATOM      8  O   UNL     1      -8.422  19.464  68.926  0.00  0.00    -0.219 OA
ATOM      9  C   UNL     1      -9.697  17.672  68.783  0.00  0.00    +0.108 C 
ENDROOT
BRANCH   2  10
ATOM     10  C   UNL     1      -8.736  16.448  66.646  0.00  0.00    +0.201 C 
ATOM     11  O   UNL     1      -8.479  15.158  66.516  0.00  0.00    -0.219 OA
ENDBRANCH   2  10
BRANCH   1  12
ATOM     12  C   UNL     1     -11.503  16.152  68.609  0.00  0.00    +0.072 C 
BRANCH  12  13
ATOM     13  C   UNL     1     -11.675  15.265  69.692  0.00  0.00    +0.017 C 
BRANCH  13  15
ATOM     14  C   UNL     1     -11.972  16.083  72.111  0.00  0.00    +0.000 C 
ATOM     15  C   UNL     1     -11.455  15.435  71.050  0.00  0.00    +0.001 C 
ENDBRANCH  13  15
ENDBRANCH  12  13
ENDBRANCH   1  12
TORSDOF 4
ENDMDL
