MODEL 1
REMARK VINA RESULT:      -7.3      0.000      0.000
REMARK  Name = 
REMARK  2 active torsions:
REMARK  status: ('A' for Active; 'I' for Inactive)
REMARK    1  A    between atoms: C_21  and  C_23
REMARK    2  A    between atoms: C_23  and  C_25
REMARK                            x       y       z     vdW  Elec       q    Type
REMARK                         _______ _______ _______ _____ _____    ______ ____
ROOT
ATOM      1  C   UNL     1     -10.533  16.639  68.560  0.00  0.00    +0.003 C 
ATOM      2  C   UNL     1      -9.782  16.607  67.347  0.00  0.00    +0.035 C 
ATOM      3  C   UNL     1      -8.563  17.303  67.592  0.00  0.00    +0.180 C 
ATOM      4  O   UNL     1      -7.759  17.320  66.482  0.00  0.00    -0.218 OA
ATOM      5  C   UNL     1      -7.967  16.532  68.773  0.00  0.00    +0.038 C 
ATOM      6  C   UNL     1      -8.790  15.244  68.895  0.00  0.00    +0.003 C 
ATOM      7  C   UNL     1      -9.019  15.175  67.295  0.00  0.00    +0.003 C 
ATOM      8  C   UNL     1     -10.539  14.451  67.283  0.00  0.00    +0.003 C 
ATOM      9  C   UNL     1      -9.988  13.041  67.811  0.00  0.00    +0.004 C 
ATOM     10  C   UNL     1     -11.158  12.111  67.501  0.00  0.00    +0.022 C 
ATOM     11  C   UNL     1     -11.343  12.124  66.010  0.00  0.00    -0.042 C 
ATOM     12  C   UNL     1     -11.645  13.474  65.398  0.00  0.00    +0.018 C 
ATOM     13  C   UNL     1     -12.705  14.063  66.191  0.00  0.00    +0.004 C 
ATOM     14  C   UNL     1     -11.826  13.241  63.958  0.00  0.00    +0.012 C 
ATOM     15  C   UNL     1     -11.993  11.843  63.500  0.00  0.00    +0.069 C 
ATOM     16  C   UNL     1     -10.807  11.062  63.978  0.00  0.00    +0.173 C 
ATOM     17  O   UNL     1      -9.877  10.776  63.165  0.00  0.00    -0.291 OA
ATOM     18  C   UNL     1     -10.493  11.295  65.395  0.00  0.00    +0.029 C 
ATOM     19  C   UNL     1     -10.188  14.064  65.692  0.00  0.00    +0.034 C 
ATOM     20  C   UNL     1     -10.253  15.625  65.000  0.00  0.00    +0.152 C 
ATOM     21  O   UNL     1     -11.697  15.611  64.545  0.00  0.00    -0.223 OA
ATOM     22  C   UNL     1     -10.665  16.534  66.288  0.00  0.00    +0.036 C 
ENDROOT
BRANCH   3  23
ATOM     23  C   UNL     1      -8.637  18.706  68.106  0.00  0.00    +0.211 C 
ATOM     24  O   UNL     1      -7.681  19.000  68.826  0.00  0.00    -0.291 OA
BRANCH  23  25
ATOM     25  C   UNL     1      -8.860  19.724  67.021  0.00  0.00    +0.248 C 
ATOM     26  O   UNL     1     -10.189  20.067  66.874  0.00  0.00    -0.212 OA
ENDBRANCH  23  25
ENDBRANCH   3  23
TORSDOF 2
ENDMDL
MODEL 2
REMARK VINA RESULT:      -6.5      4.728      8.000
REMARK  Name = 
REMARK  2 active torsions:
REMARK  status: ('A' for Active; 'I' for Inactive)
REMARK    1  A    between atoms: C_21  and  C_23
REMARK    2  A    between atoms: C_23  and  C_25
REMARK                            x       y       z     vdW  Elec       q    Type
REMARK                         _______ _______ _______ _____ _____    ______ ____
ROOT
ATOM      1  C   UNL     1      -9.568   9.188  71.053  0.00  0.00    +0.003 C 
ATOM      2  C   UNL     1     -10.376   8.553  70.063  0.00  0.00    +0.035 C 
ATOM      3  C   UNL     1     -11.180   7.588  70.735  0.00  0.00    +0.180 C 
ATOM      4  O   UNL     1     -12.008   6.925  69.866  0.00  0.00    -0.218 OA
ATOM      5  C   UNL     1     -11.925   8.434  71.771  0.00  0.00    +0.038 C 
ATOM      6  C   UNL     1     -11.687   9.895  71.372  0.00  0.00    +0.003 C 
ATOM      7  C   UNL     1     -11.655   9.518  69.800  0.00  0.00    +0.003 C 
ATOM      8  C   UNL     1     -10.567  10.690  69.275  0.00  0.00    +0.003 C 
ATOM      9  C   UNL     1     -11.591  11.900  69.519  0.00  0.00    +0.004 C 
ATOM     10  C   UNL     1     -10.932  13.031  68.734  0.00  0.00    +0.022 C 
ATOM     11  C   UNL     1     -10.896  12.602  67.295  0.00  0.00    -0.042 C 
ATOM     12  C   UNL     1     -10.131  11.328  67.009  0.00  0.00    +0.018 C 
ATOM     13  C   UNL     1      -8.856  11.449  67.685  0.00  0.00    +0.004 C 
ATOM     14  C   UNL     1     -10.194  11.129  65.554  0.00  0.00    +0.012 C 
ATOM     15  C   UNL     1     -10.651  12.265  64.721  0.00  0.00    +0.069 C 
ATOM     16  C   UNL     1     -12.002  12.680  65.218  0.00  0.00    +0.173 C 
ATOM     17  O   UNL     1     -13.039  12.334  64.575  0.00  0.00    -0.291 OA
ATOM     18  C   UNL     1     -12.063  12.825  66.680  0.00  0.00    +0.029 C 
ATOM     19  C   UNL     1     -11.191  10.387  67.751  0.00  0.00    +0.034 C 
ATOM     20  C   UNL     1     -10.562   8.818  67.495  0.00  0.00    +0.152 C 
ATOM     21  O   UNL     1      -9.298   9.198  66.756  0.00  0.00    -0.223 OA
ATOM     22  C   UNL     1      -9.701   8.588  68.858  0.00  0.00    +0.036 C 
ENDROOT
BRANCH   3  23
ATOM     23  C   UNL     1     -10.497   6.552  71.571  0.00  0.00    +0.211 C 
ATOM     24  O   UNL     1     -11.090   6.326  72.627  0.00  0.00    -0.291 OA
BRANCH  23  25
ATOM     25  C   UNL     1     -10.188   5.290  70.816  0.00  0.00    +0.248 C 
ATOM     26  O   UNL     1      -8.933   5.303  70.239  0.00  0.00    -0.212 OA
ENDBRANCH  23  25
ENDBRANCH   3  23
TORSDOF 2
ENDMDL
MODEL 3
REMARK VINA RESULT:      -6.5      2.088      3.038
REMARK  Name = 
REMARK  2 active torsions:
REMARK  status: ('A' for Active; 'I' for Inactive)
REMARK    1  A    between atoms: C_21  and  C_23
REMARK    2  A    between atoms: C_23  and  C_25
REMARK                            x       y       z     vdW  Elec       q    Type
REMARK                         _______ _______ _______ _____ _____    ______ ____
ROOT
ATOM      1  C   UNL     1     -10.325  18.108  66.660  0.00  0.00    +0.003 C 
ATOM      2  C   UNL     1      -9.235  17.197  66.792  0.00  0.00    +0.035 C 
ATOM      3  C   UNL     1      -8.088  17.965  67.143  0.00  0.00    +0.180 C 
ATOM      4  O   UNL     1      -6.980  17.174  67.305  0.00  0.00    -0.218 OA
ATOM      5  C   UNL     1      -8.534  18.671  68.426  0.00  0.00    +0.038 C 
ATOM      6  C   UNL     1      -9.831  17.978  68.858  0.00  0.00    +0.003 C 
ATOM      7  C   UNL     1      -9.328  16.554  68.280  0.00  0.00    +0.003 C 
ATOM      8  C   UNL     1     -10.819  15.917  67.829  0.00  0.00    +0.003 C 
ATOM      9  C   UNL     1     -11.319  15.737  69.342  0.00  0.00    +0.004 C 
ATOM     10  C   UNL     1     -12.513  14.803  69.169  0.00  0.00    +0.022 C 
ATOM     11  C   UNL     1     -11.986  13.521  68.593  0.00  0.00    -0.042 C 
ATOM     12  C   UNL     1     -11.289  13.640  67.255  0.00  0.00    +0.018 C 
ATOM     13  C   UNL     1     -12.157  14.428  66.403  0.00  0.00    +0.004 C 
ATOM     14  C   UNL     1     -10.899  12.275  66.871  0.00  0.00    +0.012 C 
ATOM     15  C   UNL     1     -11.498  11.149  67.623  0.00  0.00    +0.069 C 
ATOM     16  C   UNL     1     -11.192  11.357  69.075  0.00  0.00    +0.173 C 
ATOM     17  O   UNL     1     -10.267  10.684  69.623  0.00  0.00    -0.291 OA
ATOM     18  C   UNL     1     -11.471  12.724  69.537  0.00  0.00    +0.029 C 
ATOM     19  C   UNL     1     -10.035  14.437  67.847  0.00  0.00    +0.034 C 
ATOM     20  C   UNL     1      -9.023  14.637  66.484  0.00  0.00    +0.152 C 
ATOM     21  O   UNL     1      -9.917  13.999  65.442  0.00  0.00    -0.223 OA
ATOM     22  C   UNL     1      -9.466  16.115  65.965  0.00  0.00    +0.036 C 
ENDROOT
BRANCH   3  23
ATOM     23  C   UNL     1      -7.693  19.101  66.251  0.00  0.00    +0.211 C 
ATOM     24  O   UNL     1      -7.803  20.198  66.802  0.00  0.00    -0.291 OA
BRANCH  23  25
ATOM     25  C   UNL     1      -6.341  18.917  65.621  0.00  0.00    +0.248 C 
ATOM     26  O   UNL     1      -6.370  19.032  64.245  0.00  0.00    -0.212 OA
ENDBRANCH  23  25
ENDBRANCH   3  23
TORSDOF 2
ENDMDL
MODEL 4
REMARK VINA RESULT:      -6.4      1.944      6.555
REMARK  Name = 
REMARK  2 active torsions:
REMARK  status: ('A' for Active; 'I' for Inactive)
REMARK    1  A    between atoms: C_21  and  C_23
REMARK    2  A    between atoms: C_23  and  C_25
REMARK                            x       y       z     vdW  Elec       q    Type
REMARK                         _______ _______ _______ _____ _____    ______ ____
ROOT
ATOM      1  C   UNL     1      -8.978  13.958  66.114  0.00  0.00    +0.003 C 
ATOM      2  C   UNL     1      -9.806  14.892  66.807  0.00  0.00    +0.035 C 
ATOM      3  C   UNL     1     -10.897  14.157  67.355  0.00  0.00    +0.180 C 
ATOM      4  O   UNL     1     -11.752  14.969  68.055  0.00  0.00    -0.218 OA
ATOM      5  C   UNL     1     -10.194  13.108  68.222  0.00  0.00    +0.038 C 
ATOM      6  C   UNL     1      -8.731  13.555  68.321  0.00  0.00    +0.003 C 
ATOM      7  C   UNL     1      -9.148  15.117  68.274  0.00  0.00    +0.003 C 
ATOM      8  C   UNL     1      -7.789  15.724  67.487  0.00  0.00    +0.003 C 
ATOM      9  C   UNL     1      -6.818  15.462  68.737  0.00  0.00    +0.004 C 
ATOM     10  C   UNL     1      -5.601  16.307  68.371  0.00  0.00    +0.022 C 
ATOM     11  C   UNL     1      -6.063  17.734  68.303  0.00  0.00    -0.042 C 
ATOM     12  C   UNL     1      -7.153  18.024  67.293  0.00  0.00    +0.018 C 
ATOM     13  C   UNL     1      -6.737  17.414  66.047  0.00  0.00    +0.004 C 
ATOM     14  C   UNL     1      -7.412  19.469  67.372  0.00  0.00    +0.012 C 
ATOM     15  C   UNL     1      -6.431  20.308  68.097  0.00  0.00    +0.069 C 
ATOM     16  C   UNL     1      -6.298  19.757  69.484  0.00  0.00    +0.173 C 
ATOM     17  O   UNL     1      -6.881  20.340  70.448  0.00  0.00    -0.291 OA
ATOM     18  C   UNL     1      -6.118  18.298  69.514  0.00  0.00    +0.029 C 
ATOM     19  C   UNL     1      -8.273  17.208  68.093  0.00  0.00    +0.034 C 
ATOM     20  C   UNL     1      -9.678  17.453  67.152  0.00  0.00    +0.152 C 
ATOM     21  O   UNL     1      -9.062  18.262  66.030  0.00  0.00    -0.223 OA
ATOM     22  C   UNL     1      -9.669  16.128  66.205  0.00  0.00    +0.036 C 
ENDROOT
BRANCH   3  23
ATOM     23  C   UNL     1     -11.731  13.329  66.430  0.00  0.00    +0.211 C 
ATOM     24  O   UNL     1     -12.166  12.308  66.967  0.00  0.00    -0.291 OA
BRANCH  23  25
ATOM     25  C   UNL     1     -12.817  14.113  65.747  0.00  0.00    +0.248 C 
ATOM     26  O   UNL     1     -12.571  14.310  64.403  0.00  0.00    -0.212 OA
ENDBRANCH  23  25
ENDBRANCH   3  23
TORSDOF 2
ENDMDL
MODEL 5
REMARK VINA RESULT:      -6.3      2.095      6.621
REMARK  Name = 
REMARK  2 active torsions:
REMARK  status: ('A' for Active; 'I' for Inactive)
REMARK    1  A    between atoms: C_21  and  C_23
REMARK    2  A    between atoms: C_23  and  C_25
REMARK                            x       y       z     vdW  Elec       q    Type
REMARK                         _______ _______ _______ _____ _____    ______ ____
ROOT
ATOM      1  C   UNL     1     -11.726  14.760  67.567  0.00  0.00    +0.003 C 
ATOM      2  C   UNL     1     -10.347  14.481  67.328  0.00  0.00    +0.035 C 
ATOM      3  C   UNL     1     -10.288  13.268  66.584  0.00  0.00    +0.180 C 
ATOM      4  O   UNL     1      -8.995  12.916  66.292  0.00  0.00    -0.218 OA
ATOM      5  C   UNL     1     -11.133  13.590  65.347  0.00  0.00    +0.038 C 
ATOM      6  C   UNL     1     -11.347  15.108  65.369  0.00  0.00    +0.003 C 
ATOM      7  C   UNL     1      -9.897  15.359  66.039  0.00  0.00    +0.003 C 
ATOM      8  C   UNL     1     -10.264  16.731  66.942  0.00  0.00    +0.003 C 
ATOM      9  C   UNL     1     -10.430  17.667  65.650  0.00  0.00    +0.004 C 
ATOM     10  C   UNL     1     -10.385  19.063  66.264  0.00  0.00    +0.022 C 
ATOM     11  C   UNL     1      -9.034  19.216  66.903  0.00  0.00    -0.042 C 
ATOM     12  C   UNL     1      -8.705  18.216  67.990  0.00  0.00    +0.018 C 
ATOM     13  C   UNL     1      -9.847  18.181  68.881  0.00  0.00    +0.004 C 
ATOM     14  C   UNL     1      -7.372  18.579  68.492  0.00  0.00    +0.012 C 
ATOM     15  C   UNL     1      -6.827  19.901  68.111  0.00  0.00    +0.069 C 
ATOM     16  C   UNL     1      -6.825  19.980  66.615  0.00  0.00    +0.173 C 
ATOM     17  O   UNL     1      -5.740  19.815  65.980  0.00  0.00    -0.291 OA
ATOM     18  C   UNL     1      -8.096  19.554  66.011  0.00  0.00    +0.029 C 
ATOM     19  C   UNL     1      -8.608  16.976  66.984  0.00  0.00    +0.034 C 
ATOM     20  C   UNL     1      -8.157  15.682  68.004  0.00  0.00    +0.152 C 
ATOM     21  O   UNL     1      -8.164  16.421  69.325  0.00  0.00    -0.223 OA
ATOM     22  C   UNL     1      -9.606  15.027  68.358  0.00  0.00    +0.036 C 
ENDROOT
BRANCH   3  23
ATOM     23  C   UNL     1     -10.960  12.055  67.146  0.00  0.00    +0.211 C 
ATOM     24  O   UNL     1     -11.822  11.597  66.393  0.00  0.00    -0.291 OA
BRANCH  23  25
ATOM     25  C   UNL     1      -9.993  11.000  67.606  0.00  0.00    +0.248 C 
ATOM     26  O   UNL     1      -9.768  11.035  68.967  0.00  0.00    -0.212 OA
ENDBRANCH  23  25
ENDBRANCH   3  23
TORSDOF 2
ENDMDL
MODEL 6
REMARK VINA RESULT:      -6.2      3.447      6.182
REMARK  Name = 
REMARK  2 active torsions:
REMARK  status: ('A' for Active; 'I' for Inactive)
REMARK    1  A    between atoms: C_21  and  C_23
REMARK    2  A    between atoms: C_23  and  C_25
REMARK                            x       y       z     vdW  Elec       q    Type
REMARK                         _______ _______ _______ _____ _____    ______ ____
ROOT
ATOM      1  C   UNL     1      -9.436  12.439  65.414  0.00  0.00    +0.003 C 
ATOM      2  C   UNL     1     -10.754  12.205  65.909  0.00  0.00    +0.035 C 
ATOM      3  C   UNL     1     -11.659  12.524  64.856  0.00  0.00    +0.180 C 
ATOM      4  O   UNL     1     -12.962  12.321  65.230  0.00  0.00    -0.218 OA
ATOM      5  C   UNL     1     -11.193  11.606  63.723  0.00  0.00    +0.038 C 
ATOM      6  C   UNL     1     -10.225  10.605  64.363  0.00  0.00    +0.003 C 
ATOM      7  C   UNL     1     -11.047  10.616  65.755  0.00  0.00    +0.003 C 
ATOM      8  C   UNL     1      -9.765  10.355  66.814  0.00  0.00    +0.003 C 
ATOM      9  C   UNL     1      -9.539   8.841  66.335  0.00  0.00    +0.004 C 
ATOM     10  C   UNL     1      -8.662   8.285  67.452  0.00  0.00    +0.022 C 
ATOM     11  C   UNL     1      -9.465   8.363  68.719  0.00  0.00    -0.042 C 
ATOM     12  C   UNL     1      -9.918   9.748  69.126  0.00  0.00    +0.018 C 
ATOM     13  C   UNL     1      -8.754  10.607  69.039  0.00  0.00    +0.004 C 
ATOM     14  C   UNL     1     -10.639   9.588  70.396  0.00  0.00    +0.012 C 
ATOM     15  C   UNL     1     -10.502   8.299  71.111  0.00  0.00    +0.069 C 
ATOM     16  C   UNL     1     -10.917   7.210  70.171  0.00  0.00    +0.173 C 
ATOM     17  O   UNL     1     -12.061   6.677  70.294  0.00  0.00    -0.291 OA
ATOM     18  C   UNL     1     -10.308   7.331  68.838  0.00  0.00    +0.029 C 
ATOM     19  C   UNL     1     -10.946   9.897  67.910  0.00  0.00    +0.034 C 
ATOM     20  C   UNL     1     -11.670  11.418  68.198  0.00  0.00    +0.152 C 
ATOM     21  O   UNL     1     -10.878  11.818  69.423  0.00  0.00    -0.223 OA
ATOM     22  C   UNL     1     -10.748  12.395  67.277  0.00  0.00    +0.036 C 
ENDROOT
BRANCH   3  23
ATOM     23  C   UNL     1     -11.583  13.886  64.242  0.00  0.00    +0.211 C 
ATOM     24  O   UNL     1     -12.520  14.115  63.474  0.00  0.00    -0.291 OA
BRANCH  23  25
ATOM     25  C   UNL     1     -11.402  14.984  65.253  0.00  0.00    +0.248 C 
ATOM     26  O   UNL     1     -10.817  16.114  64.719  0.00  0.00    -0.212 OA
ENDBRANCH  23  25
ENDBRANCH   3  23
TORSDOF 2
ENDMDL
MODEL 7
REMARK VINA RESULT:      -6.1      1.148      1.281
REMARK  Name = 
REMARK  2 active torsions:
REMARK  status: ('A' for Active; 'I' for Inactive)
REMARK    1  A    between atoms: C_21  and  C_23
REMARK    2  A    between atoms: C_23  and  C_25
REMARK                            x       y       z     vdW  Elec       q    Type
REMARK                         _______ _______ _______ _____ _____    ______ ____
ROOT
ATOM      1  C   UNL     1      -8.909  16.472  68.829  0.00  0.00    +0.003 C 
ATOM      2  C   UNL     1      -8.840  16.675  67.418  0.00  0.00    +0.035 C 
ATOM      3  C   UNL     1      -7.748  17.556  67.175  0.00  0.00    +0.180 C 
ATOM      4  O   UNL     1      -7.590  17.808  65.836  0.00  0.00    -0.218 OA
ATOM      5  C   UNL     1      -6.568  16.811  67.805  0.00  0.00    +0.038 C 
ATOM      6  C   UNL     1      -7.070  15.391  68.090  0.00  0.00    +0.003 C 
ATOM      7  C   UNL     1      -8.034  15.412  66.792  0.00  0.00    +0.003 C 
ATOM      8  C   UNL     1      -9.272  14.431  67.374  0.00  0.00    +0.003 C 
ATOM      9  C   UNL     1      -8.372  13.104  67.355  0.00  0.00    +0.004 C 
ATOM     10  C   UNL     1      -9.427  12.008  67.482  0.00  0.00    +0.022 C 
ATOM     11  C   UNL     1     -10.310  12.109  66.272  0.00  0.00    -0.042 C 
ATOM     12  C   UNL     1     -11.028  13.429  66.091  0.00  0.00    +0.018 C 
ATOM     13  C   UNL     1     -11.633  13.750  67.368  0.00  0.00    +0.004 C 
ATOM     14  C   UNL     1     -11.855  13.285  64.884  0.00  0.00    +0.012 C 
ATOM     15  C   UNL     1     -12.056  11.922  64.342  0.00  0.00    +0.069 C 
ATOM     16  C   UNL     1     -10.704  11.331  64.084  0.00  0.00    +0.173 C 
ATOM     17  O   UNL     1     -10.257  11.284  62.898  0.00  0.00    -0.291 OA
ATOM     18  C   UNL     1      -9.772  11.499  65.209  0.00  0.00    +0.029 C 
ATOM     19  C   UNL     1      -9.692  14.245  65.763  0.00  0.00    +0.034 C 
ATOM     20  C   UNL     1     -10.269  15.820  65.437  0.00  0.00    +0.152 C 
ATOM     21  O   UNL     1     -11.739  15.584  65.709  0.00  0.00    -0.223 OA
ATOM     22  C   UNL     1     -10.110  16.531  66.894  0.00  0.00    +0.036 C 
ENDROOT
BRANCH   3  23
ATOM     23  C   UNL     1      -7.730  18.877  67.878  0.00  0.00    +0.211 C 
ATOM     24  O   UNL     1      -6.678  19.075  68.491  0.00  0.00    -0.291 OA
BRANCH  23  25
ATOM     25  C   UNL     1      -8.087  20.030  66.983  0.00  0.00    +0.248 C 
ATOM     26  O   UNL     1      -7.325  21.155  67.227  0.00  0.00    -0.212 OA
ENDBRANCH  23  25
ENDBRANCH   3  23
TORSDOF 2
ENDMDL
MODEL 8
REMARK VINA RESULT:      -6.1      2.889      7.357
REMARK  Name = 
REMARK  2 active torsions:
REMARK  status: ('A' for Active; 'I' for Inactive)
REMARK    1  A    between atoms: C_21  and  C_23
REMARK    2  A    between atoms: C_23  and  C_25
REMARK                            x       y       z     vdW  Elec       q    Type
REMARK                         _______ _______ _______ _____ _____    ______ ____
ROOT
ATOM      1  C   UNL     1      -8.816  15.967  68.745  0.00  0.00    +0.003 C 
ATOM      2  C   UNL     1      -8.625  16.444  67.414  0.00  0.00    +0.035 C 
ATOM      3  C   UNL     1      -9.885  16.361  66.754  0.00  0.00    +0.180 C 
ATOM      4  O   UNL     1      -9.809  16.810  65.461  0.00  0.00    -0.218 OA
ATOM      5  C   UNL     1     -10.790  17.211  67.650  0.00  0.00    +0.038 C 
ATOM      6  C   UNL     1      -9.854  17.966  68.600  0.00  0.00    +0.003 C 
ATOM      7  C   UNL     1      -8.699  18.065  67.472  0.00  0.00    +0.003 C 
ATOM      8  C   UNL     1      -7.350  18.014  68.477  0.00  0.00    +0.003 C 
ATOM      9  C   UNL     1      -7.625  19.468  69.096  0.00  0.00    +0.004 C 
ATOM     10  C   UNL     1      -6.288  19.787  69.758  0.00  0.00    +0.022 C 
ATOM     11  C   UNL     1      -5.257  19.822  68.666  0.00  0.00    -0.042 C 
ATOM     12  C   UNL     1      -5.094  18.542  67.875  0.00  0.00    +0.018 C 
ATOM     13  C   UNL     1      -4.982  17.469  68.841  0.00  0.00    +0.004 C 
ATOM     14  C   UNL     1      -4.018  18.794  66.905  0.00  0.00    +0.012 C 
ATOM     15  C   UNL     1      -3.178  19.997  67.101  0.00  0.00    +0.069 C 
ATOM     16  C   UNL     1      -4.087  21.186  67.143  0.00  0.00    +0.173 C 
ATOM     17  O   UNL     1      -4.188  21.935  66.125  0.00  0.00    -0.291 OA
ATOM     18  C   UNL     1      -5.246  20.998  68.029  0.00  0.00    +0.029 C 
ATOM     19  C   UNL     1      -6.525  18.658  67.170  0.00  0.00    +0.034 C 
ATOM     20  C   UNL     1      -6.553  17.306  66.125  0.00  0.00    +0.152 C 
ATOM     21  O   UNL     1      -5.217  16.701  66.500  0.00  0.00    -0.223 OA
ATOM     22  C   UNL     1      -7.316  16.200  67.046  0.00  0.00    +0.036 C 
ENDROOT
BRANCH   3  23
ATOM     23  C   UNL     1     -10.584  15.038  66.723  0.00  0.00    +0.211 C 
ATOM     24  O   UNL     1     -11.688  15.072  67.270  0.00  0.00    -0.291 OA
BRANCH  23  25
ATOM     25  C   UNL     1     -10.654  14.437  65.347  0.00  0.00    +0.248 C 
ATOM     26  O   UNL     1     -11.946  14.334  64.871  0.00  0.00    -0.212 OA
ENDBRANCH  23  25
ENDBRANCH   3  23
TORSDOF 2
ENDMDL
MODEL 9
REMARK VINA RESULT:      -6.0      2.450      6.701
REMARK  Name = 
REMARK  2 active torsions:
REMARK  status: ('A' for Active; 'I' for Inactive)
REMARK    1  A    between atoms: C_21  and  C_23
REMARK    2  A    between atoms: C_23  and  C_25
REMARK                            x       y       z     vdW  Elec       q    Type
REMARK                         _______ _______ _______ _____ _____    ______ ____
ROOT
ATOM      1  C   UNL     1      -9.367  15.308  69.654  0.00  0.00    +0.003 C 
ATOM      2  C   UNL     1      -9.362  15.270  68.228  0.00  0.00    +0.035 C 
ATOM      3  C   UNL     1     -10.588  14.670  67.820  0.00  0.00    +0.180 C 
ATOM      4  O   UNL     1     -10.686  14.597  66.455  0.00  0.00    -0.218 OA
ATOM      5  C   UNL     1     -11.638  15.581  68.465  0.00  0.00    +0.038 C 
ATOM      6  C   UNL     1     -10.880  16.824  68.943  0.00  0.00    +0.003 C 
ATOM      7  C   UNL     1      -9.839  16.732  67.709  0.00  0.00    +0.003 C 
ATOM      8  C   UNL     1      -8.477  17.363  68.471  0.00  0.00    +0.003 C 
ATOM      9  C   UNL     1      -9.082  18.846  68.557  0.00  0.00    +0.004 C 
ATOM     10  C   UNL     1      -7.840  19.674  68.872  0.00  0.00    +0.022 C 
ATOM     11  C   UNL     1      -6.900  19.512  67.711  0.00  0.00    -0.042 C 
ATOM     12  C   UNL     1      -6.456  18.096  67.418  0.00  0.00    +0.018 C 
ATOM     13  C   UNL     1      -6.035  17.524  68.681  0.00  0.00    +0.004 C 
ATOM     14  C   UNL     1      -5.522  18.184  66.286  0.00  0.00    +0.012 C 
ATOM     15  C   UNL     1      -5.004  19.521  65.920  0.00  0.00    +0.069 C 
ATOM     16  C   UNL     1      -6.181  20.409  65.656  0.00  0.00    +0.173 C 
ATOM     17  O   UNL     1      -6.512  20.672  64.460  0.00  0.00    -0.291 OA
ATOM     18  C   UNL     1      -7.215  20.328  66.698  0.00  0.00    +0.029 C 
ATOM     19  C   UNL     1      -7.900  17.620  66.921  0.00  0.00    +0.034 C 
ATOM     20  C   UNL     1      -7.633  16.000  66.446  0.00  0.00    +0.152 C 
ATOM     21  O   UNL     1      -6.172  15.890  66.828  0.00  0.00    -0.223 OA
ATOM     22  C   UNL     1      -8.051  15.193  67.798  0.00  0.00    +0.036 C 
ENDROOT
BRANCH   3  23
ATOM     23  C   UNL     1     -10.933  13.319  68.362  0.00  0.00    +0.211 C 
ATOM     24  O   UNL     1     -12.053  13.284  68.875  0.00  0.00    -0.291 OA
BRANCH  23  25
ATOM     25  C   UNL     1     -10.735  12.212  67.364  0.00  0.00    +0.248 C 
ATOM     26  O   UNL     1     -11.902  11.532  67.078  0.00  0.00    -0.212 OA
ENDBRANCH  23  25
ENDBRANCH   3  23
TORSDOF 2
ENDMDL
