MODEL 1
REMARK VINA RESULT:      -7.4      0.000      0.000
REMARK  Name = 
REMARK  14 active torsions:
REMARK  status: ('A' for Active; 'I' for Inactive)
REMARK    1  A    between atoms: C_2  and  O_4
REMARK    2  A    between atoms: O_4  and  C_5
REMARK    3  A    between atoms: C_9  and  O_10
REMARK    4  A    between atoms: O_10  and  C_11
REMARK    5  A    between atoms: C_11  and  C_13
REMARK    6  A    between atoms: C_13  and  C_15
REMARK    7  A    between atoms: C_15  and  N_16
REMARK    8  A    between atoms: C_15  and  C_25
REMARK    9  A    between atoms: C_17  and  C_19
REMARK   10  A    between atoms: C_34  and  O_35
REMARK   11  A    between atoms: O_35  and  C_36
REMARK   12  A    between atoms: C_36  and  C_38
REMARK   13  A    between atoms: C_45  and  O_46
REMARK   14  A    between atoms: O_46  and  C_47
REMARK                            x       y       z     vdW  Elec       q    Type
REMARK                         _______ _______ _______ _____ _____    ______ ____
ROOT
ATOM      1  C   UNL     1     -12.459  12.732  70.672  0.00  0.00    +0.243 C 
ATOM      2  C   UNL     1     -12.360  11.275  71.013  0.00  0.00    +0.196 C 
ATOM      3  O   UNL     1     -13.315  10.873  72.097  0.00  0.00    -0.292 OA
ATOM      4  C   UNL     1     -11.529  10.125  70.524  0.00  0.00    +0.090 C 
ATOM      5  C   UNL     1     -10.455   9.957  69.492  0.00  0.00    +0.093 C 
ATOM      6  C   UNL     1      -9.831   8.611  69.271  0.00  0.00    +0.191 C 
ATOM      7  C   UNL     1     -10.283   7.433  70.083  0.00  0.00    +0.157 C 
ATOM      8  C   UNL     1     -11.358   7.601  71.115  0.00  0.00    +0.067 C 
ATOM      9  O   UNL     1      -9.303   6.558  69.359  0.00  0.00    -0.349 OA
ATOM     10  C   UNL     1      -8.851   7.736  68.548  0.00  0.00    +0.185 C 
ATOM     11  C   UNL     1      -9.764  10.868  68.520  0.00  0.00    +0.201 C 
ATOM     12  C   UNL     1      -9.863  12.326  68.180  0.00  0.00    +0.170 C 
ATOM     13  C   UNL     1     -10.693  13.475  68.668  0.00  0.00    +0.048 C 
ATOM     14  C   UNL     1     -10.179  14.125  67.954  0.00  0.00    +0.007 C 
ATOM     15  C   UNL     1     -10.811  14.935  68.346  0.00  0.00    +0.007 C 
ATOM     16  O   UNL     1      -8.907  12.727  67.095  0.00  0.00    -0.222 OA
ATOM     17  C   UNL     1      -9.543  13.607  67.469  0.00  0.00    +0.082 C 
ATOM     18  C   UNL     1     -10.276  14.867  67.827  0.00  0.00    +0.189 C 
ATOM     19  C   UNL     1     -11.329  14.843  68.895  0.00  0.00    -0.009 C 
ATOM     20  C   UNL     1     -12.062  16.102  69.253  0.00  0.00    +0.029 C 
ATOM     21  C   UNL     1     -12.583  10.103  71.592  0.00  0.00    +0.010 C 
ATOM     22  C   UNL     1     -11.981   8.948  71.336  0.00  0.00    +0.161 C 
ATOM     23  O   UNL     1     -13.056   9.117  72.368  0.00  0.00    -0.223 OA
ATOM     24  C   UNL     1     -11.768  13.644  69.700  0.00  0.00    -0.000 C 
ENDROOT
BRANCH  11  25
ATOM     25  O   UNL     1      -8.733  10.155  67.697  0.00  0.00    -0.446 OA
BRANCH  25  26
ATOM     26  C   UNL     1      -7.326  10.672  67.644  0.00  0.00    +0.341 C 
ATOM     27  O   UNL     1      -6.723  11.071  66.329  0.00  0.00    -0.245 OA
BRANCH  26  28
ATOM     28  C   UNL     1      -6.522  10.791  68.905  0.00  0.00    +0.076 A 
ATOM     29  C   UNL     1      -6.431  12.110  69.615  0.00  0.00    +0.006 A 
ATOM     30  C   UNL     1      -5.627  12.229  70.875  0.00  0.00    +0.000 A 
ATOM     31  C   UNL     1      -4.914  11.029  71.426  0.00  0.00    +0.000 A 
ATOM     32  C   UNL     1      -5.006   9.711  70.717  0.00  0.00    +0.000 A 
ATOM     33  C   UNL     1      -5.810   9.592  69.455  0.00  0.00    +0.006 A 
ENDBRANCH  26  28
ENDBRANCH  25  26
ENDBRANCH  11  25
BRANCH   6  34
ATOM     34  O   UNL     1      -9.141   9.521  68.300  0.00  0.00    -0.451 OA
BRANCH  34  35
ATOM     35  C   UNL     1      -8.989   9.112  66.865  0.00  0.00    +0.317 C 
ATOM     36  O   UNL     1      -7.842   8.239  66.451  0.00  0.00    -0.250 OA
ATOM     37  C   UNL     1      -9.985   9.577  65.844  0.00  0.00    +0.121 C 
ENDBRANCH  34  35
ENDBRANCH   6  34
BRANCH   1  38
ATOM     38  O   UNL     1     -13.490  13.446  71.495  0.00  0.00    -0.440 OA
BRANCH  38  40
ATOM     39  C   UNL     1     -11.826  14.922  72.838  0.00  0.00    +0.121 C 
ATOM     40  C   UNL     1     -13.151  14.749  72.155  0.00  0.00    +0.318 C 
ATOM     41  O   UNL     1     -14.136  15.881  72.133  0.00  0.00    -0.250 OA
ENDBRANCH  38  40
ENDBRANCH   1  38
BRANCH  18  42
ATOM     42  O   UNL     1      -9.956  16.148  67.117  0.00  0.00    -0.446 OA
BRANCH  42  43
ATOM     43  C   UNL     1      -8.954  17.099  67.703  0.00  0.00    +0.350 C 
ATOM     44  O   UNL     1      -9.369  18.057  68.781  0.00  0.00    -0.247 OA
BRANCH  43  45
ATOM     45  C   UNL     1      -7.537  17.093  67.210  0.00  0.00    +0.273 C 
ATOM     46  O   UNL     1      -7.256  17.109  65.737  0.00  0.00    -0.209 OA
BRANCH  45  47
ATOM     47  C   UNL     1      -6.402  17.070  68.191  0.00  0.00    +0.159 C 
BRANCH  47  48
ATOM     48  C   UNL     1      -5.963  18.340  68.858  0.00  0.00    +0.000 A 
ATOM     49  C   UNL     1      -6.072  19.646  68.129  0.00  0.00    -0.003 A 
ATOM     50  C   UNL     1      -5.633  20.916  68.796  0.00  0.00    -0.000 A 
ATOM     51  C   UNL     1      -5.085  20.879  70.192  0.00  0.00    -0.000 A 
ATOM     52  C   UNL     1      -4.977  19.573  70.921  0.00  0.00    -0.000 A 
ATOM     53  C   UNL     1      -5.415  18.303  70.255  0.00  0.00    -0.003 A 
ENDBRANCH  47  48
BRANCH  47  54
ATOM     54  N   UNL     1      -5.707  15.779  68.504  0.00  0.00    -0.196 NA
ATOM     55  C   UNL     1      -4.446  15.411  67.779  0.00  0.00    +0.265 C 
ATOM     56  O   UNL     1      -3.881  16.335  66.741  0.00  0.00    -0.268 OA
BRANCH  55  57
ATOM     57  C   UNL     1      -3.751  14.119  68.092  0.00  0.00    +0.055 A 
ATOM     58  C   UNL     1      -2.857  14.020  69.291  0.00  0.00    +0.005 A 
ATOM     59  C   UNL     1      -2.162  12.728  69.604  0.00  0.00    +0.000 A 
ATOM     60  C   UNL     1      -2.362  11.535  68.717  0.00  0.00    +0.000 A 
ATOM     61  C   UNL     1      -3.257  11.634  67.517  0.00  0.00    +0.000 A 
ATOM     62  C   UNL     1      -3.951  12.926  67.205  0.00  0.00    +0.005 A 
ENDBRANCH  55  57
ENDBRANCH  47  54
ENDBRANCH  45  47
ENDBRANCH  43  45
ENDBRANCH  42  43
ENDBRANCH  18  42
TORSDOF 14
ENDMDL
MODEL 2
REMARK VINA RESULT:      -7.4      1.994      3.650
REMARK  Name = 
REMARK  14 active torsions:
REMARK  status: ('A' for Active; 'I' for Inactive)
REMARK    1  A    between atoms: C_2  and  O_4
REMARK    2  A    between atoms: O_4  and  C_5
REMARK    3  A    between atoms: C_9  and  O_10
REMARK    4  A    between atoms: O_10  and  C_11
REMARK    5  A    between atoms: C_11  and  C_13
REMARK    6  A    between atoms: C_13  and  C_15
REMARK    7  A    between atoms: C_15  and  N_16
REMARK    8  A    between atoms: C_15  and  C_25
REMARK    9  A    between atoms: C_17  and  C_19
REMARK   10  A    between atoms: C_34  and  O_35
REMARK   11  A    between atoms: O_35  and  C_36
REMARK   12  A    between atoms: C_36  and  C_38
REMARK   13  A    between atoms: C_45  and  O_46
REMARK   14  A    between atoms: O_46  and  C_47
REMARK                            x       y       z     vdW  Elec       q    Type
REMARK                         _______ _______ _______ _____ _____    ______ ____
ROOT
ATOM      1  C   UNL     1     -12.078  13.420  69.978  0.00  0.00    +0.243 C 
ATOM      2  C   UNL     1     -12.190  12.038  70.550  0.00  0.00    +0.196 C 
ATOM      3  O   UNL     1     -13.200  11.954  71.655  0.00  0.00    -0.292 OA
ATOM      4  C   UNL     1     -11.528  10.720  70.276  0.00  0.00    +0.090 C 
ATOM      5  C   UNL     1     -10.481  10.238  69.317  0.00  0.00    +0.093 C 
ATOM      6  C   UNL     1     -10.053   8.801  69.332  0.00  0.00    +0.191 C 
ATOM      7  C   UNL     1     -10.674   7.845  70.307  0.00  0.00    +0.157 C 
ATOM      8  C   UNL     1     -11.721   8.325  71.267  0.00  0.00    +0.067 C 
ATOM      9  O   UNL     1      -9.822   6.736  69.762  0.00  0.00    -0.349 OA
ATOM     10  C   UNL     1      -9.202   7.692  68.787  0.00  0.00    +0.185 C 
ATOM     11  C   UNL     1      -9.661  10.875  68.233  0.00  0.00    +0.201 C 
ATOM     12  C   UNL     1      -9.550  12.257  67.662  0.00  0.00    +0.170 C 
ATOM     13  C   UNL     1     -10.211  13.575  67.935  0.00  0.00    +0.048 C 
ATOM     14  C   UNL     1      -9.605  14.022  67.142  0.00  0.00    +0.007 C 
ATOM     15  C   UNL     1     -10.118  14.965  67.380  0.00  0.00    +0.007 C 
ATOM     16  O   UNL     1      -8.538  12.340  66.556  0.00  0.00    -0.222 OA
ATOM     17  C   UNL     1      -9.045  13.349  66.766  0.00  0.00    +0.082 C 
ATOM     18  C   UNL     1      -9.594  14.740  66.896  0.00  0.00    +0.189 C 
ATOM     19  C   UNL     1     -10.647  15.036  67.921  0.00  0.00    -0.009 C 
ATOM     20  C   UNL     1     -11.197  16.426  68.052  0.00  0.00    +0.029 C 
ATOM     21  C   UNL     1     -12.581  11.017  71.302  0.00  0.00    +0.010 C 
ATOM     22  C   UNL     1     -12.148   9.764  71.251  0.00  0.00    +0.161 C 
ATOM     23  O   UNL     1     -13.196  10.246  72.210  0.00  0.00    -0.223 OA
ATOM     24  C   UNL     1     -11.258  14.057  68.894  0.00  0.00    -0.000 C 
ENDROOT
BRANCH  11  25
ATOM     25  O   UNL     1      -8.736   9.901  67.566  0.00  0.00    -0.446 OA
BRANCH  25  26
ATOM     26  C   UNL     1      -7.257  10.151  67.565  0.00  0.00    +0.341 C 
ATOM     27  O   UNL     1      -6.492  10.122  66.275  0.00  0.00    -0.245 OA
BRANCH  26  28
ATOM     28  C   UNL     1      -6.542  10.429  68.855  0.00  0.00    +0.076 A 
ATOM     29  C   UNL     1      -6.280  11.845  69.276  0.00  0.00    +0.006 A 
ATOM     30  C   UNL     1      -5.565  12.123  70.565  0.00  0.00    +0.000 A 
ATOM     31  C   UNL     1      -5.113  10.986  71.433  0.00  0.00    +0.000 A 
ATOM     32  C   UNL     1      -5.376   9.571  71.011  0.00  0.00    +0.000 A 
ATOM     33  C   UNL     1      -6.091   9.292  69.722  0.00  0.00    +0.006 A 
ENDBRANCH  26  28
ENDBRANCH  25  26
ENDBRANCH  11  25
BRANCH   6  34
ATOM     34  O   UNL     1      -9.234   9.437  68.249  0.00  0.00    -0.451 OA
BRANCH  34  35
ATOM     35  C   UNL     1      -9.141   8.789  66.899  0.00  0.00    +0.317 C 
ATOM     36  O   UNL     1      -8.202   7.640  66.682  0.00  0.00    -0.250 OA
ATOM     37  C   UNL     1      -9.987   9.291  65.767  0.00  0.00    +0.121 C 
ENDBRANCH  34  35
ENDBRANCH   6  34
BRANCH   1  38
ATOM     38  O   UNL     1     -13.004  14.394  70.645  0.00  0.00    -0.440 OA
BRANCH  38  40
ATOM     39  C   UNL     1     -12.902  14.919  73.187  0.00  0.00    +0.121 C 
ATOM     40  C   UNL     1     -12.507  15.244  71.777  0.00  0.00    +0.318 C 
ATOM     41  O   UNL     1     -11.616  16.418  71.499  0.00  0.00    -0.250 OA
ENDBRANCH  38  40
ENDBRANCH   1  38
BRANCH  18  42
ATOM     42  O   UNL     1      -9.091  15.832  66.000  0.00  0.00    -0.446 OA
BRANCH  42  43
ATOM     43  C   UNL     1      -7.840  16.578  66.359  0.00  0.00    +0.350 C 
ATOM     44  O   UNL     1      -6.655  15.838  66.907  0.00  0.00    -0.247 OA
BRANCH  43  45
ATOM     45  C   UNL     1      -7.773  18.065  66.170  0.00  0.00    +0.273 C 
ATOM     46  O   UNL     1      -9.037  18.866  66.073  0.00  0.00    -0.209 OA
BRANCH  45  47
ATOM     47  C   UNL     1      -6.442  18.751  66.079  0.00  0.00    +0.159 C 
BRANCH  47  48
ATOM     48  C   UNL     1      -5.932  19.222  64.750  0.00  0.00    +0.000 A 
ATOM     49  C   UNL     1      -4.918  18.406  64.003  0.00  0.00    -0.003 A 
ATOM     50  C   UNL     1      -4.408  18.878  62.673  0.00  0.00    -0.000 A 
ATOM     51  C   UNL     1      -4.911  20.166  62.091  0.00  0.00    -0.000 A 
ATOM     52  C   UNL     1      -5.924  20.981  62.838  0.00  0.00    -0.000 A 
ATOM     53  C   UNL     1      -6.434  20.511  64.167  0.00  0.00    -0.003 A 
ENDBRANCH  47  48
BRANCH  47  54
ATOM     54  N   UNL     1      -5.622  18.964  67.316  0.00  0.00    -0.196 NA
ATOM     55  C   UNL     1      -5.680  20.278  68.037  0.00  0.00    +0.265 C 
ATOM     56  O   UNL     1      -6.559  21.379  67.521  0.00  0.00    -0.268 OA
BRANCH  55  57
ATOM     57  C   UNL     1      -4.860  20.491  69.275  0.00  0.00    +0.055 A 
ATOM     58  C   UNL     1      -5.487  20.331  70.627  0.00  0.00    +0.005 A 
ATOM     59  C   UNL     1      -4.666  20.544  71.865  0.00  0.00    +0.000 A 
ATOM     60  C   UNL     1      -3.219  20.917  71.749  0.00  0.00    +0.000 A 
ATOM     61  C   UNL     1      -2.591  21.078  70.396  0.00  0.00    +0.000 A 
ATOM     62  C   UNL     1      -3.412  20.864  69.159  0.00  0.00    +0.005 A 
ENDBRANCH  55  57
ENDBRANCH  47  54
ENDBRANCH  45  47
ENDBRANCH  43  45
ENDBRANCH  42  43
ENDBRANCH  18  42
TORSDOF 14
ENDMDL
MODEL 3
REMARK VINA RESULT:      -7.3      2.454      3.362
REMARK  Name = 
REMARK  14 active torsions:
REMARK  status: ('A' for Active; 'I' for Inactive)
REMARK    1  A    between atoms: C_2  and  O_4
REMARK    2  A    between atoms: O_4  and  C_5
REMARK    3  A    between atoms: C_9  and  O_10
REMARK    4  A    between atoms: O_10  and  C_11
REMARK    5  A    between atoms: C_11  and  C_13
REMARK    6  A    between atoms: C_13  and  C_15
REMARK    7  A    between atoms: C_15  and  N_16
REMARK    8  A    between atoms: C_15  and  C_25
REMARK    9  A    between atoms: C_17  and  C_19
REMARK   10  A    between atoms: C_34  and  O_35
REMARK   11  A    between atoms: O_35  and  C_36
REMARK   12  A    between atoms: C_36  and  C_38
REMARK   13  A    between atoms: C_45  and  O_46
REMARK   14  A    between atoms: O_46  and  C_47
REMARK                            x       y       z     vdW  Elec       q    Type
REMARK                         _______ _______ _______ _____ _____    ______ ____
ROOT
ATOM      1  C   UNL     1     -12.128  13.114  70.038  0.00  0.00    +0.243 C 
ATOM      2  C   UNL     1     -12.179  11.725  70.602  0.00  0.00    +0.196 C 
ATOM      3  O   UNL     1     -13.201  11.585  71.691  0.00  0.00    -0.292 OA
ATOM      4  C   UNL     1     -11.448  10.443  70.331  0.00  0.00    +0.090 C 
ATOM      5  C   UNL     1     -10.365  10.020  69.385  0.00  0.00    +0.093 C 
ATOM      6  C   UNL     1      -9.866   8.605  69.400  0.00  0.00    +0.191 C 
ATOM      7  C   UNL     1     -10.452   7.614  70.361  0.00  0.00    +0.157 C 
ATOM      8  C   UNL     1     -11.537   8.037  71.307  0.00  0.00    +0.067 C 
ATOM      9  O   UNL     1      -9.539   6.553  69.823  0.00  0.00    -0.349 OA
ATOM     10  C   UNL     1      -8.953   7.544  68.862  0.00  0.00    +0.185 C 
ATOM     11  C   UNL     1      -9.561  10.703  68.317  0.00  0.00    +0.201 C 
ATOM     12  C   UNL     1      -9.511  12.092  67.754  0.00  0.00    +0.170 C 
ATOM     13  C   UNL     1     -10.241  13.374  68.024  0.00  0.00    +0.048 C 
ATOM     14  C   UNL     1      -9.647  13.855  67.243  0.00  0.00    +0.007 C 
ATOM     15  C   UNL     1     -10.210  14.770  67.478  0.00  0.00    +0.007 C 
ATOM     16  O   UNL     1      -8.489  12.232  66.664  0.00  0.00    -0.222 OA
ATOM     17  C   UNL     1      -9.049  13.213  66.871  0.00  0.00    +0.082 C 
ATOM     18  C   UNL     1      -9.668  14.574  67.000  0.00  0.00    +0.189 C 
ATOM     19  C   UNL     1     -10.750  14.811  68.012  0.00  0.00    -0.009 C 
ATOM     20  C   UNL     1     -11.370  16.172  68.141  0.00  0.00    +0.029 C 
ATOM     21  C   UNL     1     -12.530  10.682  71.342  0.00  0.00    +0.010 C 
ATOM     22  C   UNL     1     -12.035   9.452  71.292  0.00  0.00    +0.161 C 
ATOM     23  O   UNL     1     -13.119   9.875  72.238  0.00  0.00    -0.223 OA
ATOM     24  C   UNL     1     -11.326  13.797  68.970  0.00  0.00    -0.000 C 
ENDROOT
BRANCH  11  25
ATOM     25  O   UNL     1      -8.579   9.780  67.659  0.00  0.00    -0.446 OA
BRANCH  25  26
ATOM     26  C   UNL     1      -7.118  10.118  67.657  0.00  0.00    +0.341 C 
ATOM     27  O   UNL     1      -6.368  10.193  66.360  0.00  0.00    -0.245 OA
BRANCH  26  28
ATOM     28  C   UNL     1      -6.406  10.380  68.951  0.00  0.00    +0.076 A 
ATOM     29  C   UNL     1      -6.210  11.789  69.427  0.00  0.00    +0.006 A 
ATOM     30  C   UNL     1      -5.498  12.051  70.720  0.00  0.00    +0.000 A 
ATOM     31  C   UNL     1      -4.984  10.904  71.540  0.00  0.00    +0.000 A 
ATOM     32  C   UNL     1      -5.181   9.496  71.064  0.00  0.00    +0.000 A 
ATOM     33  C   UNL     1      -5.892   9.233  69.769  0.00  0.00    +0.006 A 
ENDBRANCH  26  28
ENDBRANCH  25  26
ENDBRANCH  11  25
BRANCH   6  34
ATOM     34  O   UNL     1      -9.063   9.288  68.332  0.00  0.00    -0.451 OA
BRANCH  34  35
ATOM     35  C   UNL     1      -8.944   8.668  66.971  0.00  0.00    +0.317 C 
ATOM     36  O   UNL     1      -7.891   7.632  66.710  0.00  0.00    -0.250 OA
ATOM     37  C   UNL     1      -9.876   9.085  65.873  0.00  0.00    +0.121 C 
ENDBRANCH  34  35
ENDBRANCH   6  34
BRANCH   1  38
ATOM     38  O   UNL     1     -13.111  14.037  70.697  0.00  0.00    -0.440 OA
BRANCH  38  40
ATOM     39  C   UNL     1     -11.810  16.011  71.773  0.00  0.00    +0.121 C 
ATOM     40  C   UNL     1     -12.708  14.817  71.912  0.00  0.00    +0.318 C 
ATOM     41  O   UNL     1     -13.201  14.403  73.267  0.00  0.00    -0.250 OA
ENDBRANCH  38  40
ENDBRANCH   1  38
BRANCH  18  42
ATOM     42  O   UNL     1      -9.207  15.695  66.118  0.00  0.00    -0.446 OA
BRANCH  42  43
ATOM     43  C   UNL     1      -8.136  16.632  66.595  0.00  0.00    +0.350 C 
ATOM     44  O   UNL     1      -6.870  16.086  67.187  0.00  0.00    -0.247 OA
BRANCH  43  45
ATOM     45  C   UNL     1      -8.331  18.115  66.479  0.00  0.00    +0.273 C 
ATOM     46  O   UNL     1      -9.712  18.696  66.538  0.00  0.00    -0.209 OA
BRANCH  45  47
ATOM     47  C   UNL     1      -7.145  19.016  66.304  0.00  0.00    +0.159 C 
BRANCH  47  48
ATOM     48  C   UNL     1      -6.450  19.581  67.506  0.00  0.00    +0.000 A 
ATOM     49  C   UNL     1      -5.155  20.322  67.344  0.00  0.00    -0.003 A 
ATOM     50  C   UNL     1      -4.459  20.888  68.547  0.00  0.00    -0.000 A 
ATOM     51  C   UNL     1      -5.059  20.713  69.911  0.00  0.00    -0.000 A 
ATOM     52  C   UNL     1      -6.353  19.972  70.072  0.00  0.00    -0.000 A 
ATOM     53  C   UNL     1      -7.048  19.407  68.871  0.00  0.00    -0.003 A 
ENDBRANCH  47  48
BRANCH  47  54
ATOM     54  N   UNL     1      -6.654  19.351  64.927  0.00  0.00    -0.196 NA
ATOM     55  C   UNL     1      -5.482  18.615  64.349  0.00  0.00    +0.265 C 
ATOM     56  O   UNL     1      -4.800  17.544  65.148  0.00  0.00    -0.268 OA
BRANCH  55  57
ATOM     57  C   UNL     1      -4.991  18.950  62.972  0.00  0.00    +0.055 A 
ATOM     58  C   UNL     1      -3.823  18.210  62.391  0.00  0.00    +0.005 A 
ATOM     59  C   UNL     1      -3.332  18.546  61.013  0.00  0.00    +0.000 A 
ATOM     60  C   UNL     1      -4.010  19.620  60.217  0.00  0.00    +0.000 A 
ATOM     61  C   UNL     1      -5.179  20.360  60.798  0.00  0.00    +0.000 A 
ATOM     62  C   UNL     1      -5.669  20.025  62.175  0.00  0.00    +0.005 A 
ENDBRANCH  55  57
ENDBRANCH  47  54
ENDBRANCH  45  47
ENDBRANCH  43  45
ENDBRANCH  42  43
ENDBRANCH  18  42
TORSDOF 14
ENDMDL
MODEL 4
REMARK VINA RESULT:      -7.3      2.690      4.925
REMARK  Name = 
REMARK  14 active torsions:
REMARK  status: ('A' for Active; 'I' for Inactive)
REMARK    1  A    between atoms: C_2  and  O_4
REMARK    2  A    between atoms: O_4  and  C_5
REMARK    3  A    between atoms: C_9  and  O_10
REMARK    4  A    between atoms: O_10  and  C_11
REMARK    5  A    between atoms: C_11  and  C_13
REMARK    6  A    between atoms: C_13  and  C_15
REMARK    7  A    between atoms: C_15  and  N_16
REMARK    8  A    between atoms: C_15  and  C_25
REMARK    9  A    between atoms: C_17  and  C_19
REMARK   10  A    between atoms: C_34  and  O_35
REMARK   11  A    between atoms: O_35  and  C_36
REMARK   12  A    between atoms: C_36  and  C_38
REMARK   13  A    between atoms: C_45  and  O_46
REMARK   14  A    between atoms: O_46  and  C_47
REMARK                            x       y       z     vdW  Elec       q    Type
REMARK                         _______ _______ _______ _____ _____    ______ ____
ROOT
ATOM      1  C   UNL     1     -11.812   8.416  71.288  0.00  0.00    +0.243 C 
ATOM      2  C   UNL     1     -11.070   7.188  70.850  0.00  0.00    +0.196 C 
ATOM      3  O   UNL     1     -11.407   5.986  71.682  0.00  0.00    -0.292 OA
ATOM      4  C   UNL     1     -10.069   6.881  69.775  0.00  0.00    +0.090 C 
ATOM      5  C   UNL     1      -9.397   7.673  68.695  0.00  0.00    +0.093 C 
ATOM      6  C   UNL     1      -8.418   7.007  67.774  0.00  0.00    +0.191 C 
ATOM      7  C   UNL     1      -8.111   5.547  67.935  0.00  0.00    +0.157 C 
ATOM      8  C   UNL     1      -8.783   4.754  69.016  0.00  0.00    +0.067 C 
ATOM      9  O   UNL     1      -7.158   5.620  66.780  0.00  0.00    -0.349 OA
ATOM     10  C   UNL     1      -7.464   7.079  66.618  0.00  0.00    +0.185 C 
ATOM     11  C   UNL     1      -9.446   9.102  68.239  0.00  0.00    +0.201 C 
ATOM     12  C   UNL     1     -10.189  10.329  68.678  0.00  0.00    +0.170 C 
ATOM     13  C   UNL     1     -11.189  10.637  69.752  0.00  0.00    +0.048 C 
ATOM     14  C   UNL     1     -11.212  11.674  69.407  0.00  0.00    +0.007 C 
ATOM     15  C   UNL     1     -11.943  11.850  70.210  0.00  0.00    +0.007 C 
ATOM     16  O   UNL     1      -9.851  11.532  67.846  0.00  0.00    -0.222 OA
ATOM     17  C   UNL     1     -10.617  11.767  68.668  0.00  0.00    +0.082 C 
ATOM     18  C   UNL     1     -11.615  12.259  69.675  0.00  0.00    +0.189 C 
ATOM     19  C   UNL     1     -12.184  11.312  70.689  0.00  0.00    -0.009 C 
ATOM     20  C   UNL     1     -13.183  11.803  71.696  0.00  0.00    +0.029 C 
ATOM     21  C   UNL     1     -10.639   5.935  70.791  0.00  0.00    +0.010 C 
ATOM     22  C   UNL     1      -9.762   5.421  69.937  0.00  0.00    +0.161 C 
ATOM     23  O   UNL     1     -10.435   4.629  71.018  0.00  0.00    -0.223 OA
ATOM     24  C   UNL     1     -11.861   9.845  70.834  0.00  0.00    -0.000 C 
ENDROOT
BRANCH  11  25
ATOM     25  O   UNL     1      -8.541   9.365  67.073  0.00  0.00    -0.446 OA
BRANCH  25  26
ATOM     26  C   UNL     1      -7.386  10.310  67.217  0.00  0.00    +0.341 C 
ATOM     27  O   UNL     1      -7.147  11.367  66.179  0.00  0.00    -0.245 OA
BRANCH  26  28
ATOM     28  C   UNL     1      -6.469  10.200  68.399  0.00  0.00    +0.076 A 
ATOM     29  C   UNL     1      -6.661  11.099  69.584  0.00  0.00    +0.006 A 
ATOM     30  C   UNL     1      -5.744  10.989  70.766  0.00  0.00    +0.000 A 
ATOM     31  C   UNL     1      -4.635   9.978  70.763  0.00  0.00    +0.000 A 
ATOM     32  C   UNL     1      -4.443   9.079  69.579  0.00  0.00    +0.000 A 
ATOM     33  C   UNL     1      -5.361   9.190  68.396  0.00  0.00    +0.006 A 
ENDBRANCH  26  28
ENDBRANCH  25  26
ENDBRANCH  11  25
BRANCH   6  34
ATOM     34  O   UNL     1      -8.467   8.435  67.319  0.00  0.00    -0.451 OA
BRANCH  34  35
ATOM     35  C   UNL     1      -8.779   8.756  65.887  0.00  0.00    +0.317 C 
ATOM     36  O   UNL     1     -10.115   9.330  65.522  0.00  0.00    -0.250 OA
ATOM     37  C   UNL     1      -7.754   8.503  64.822  0.00  0.00    +0.121 C 
ENDBRANCH  34  35
ENDBRANCH   6  34
BRANCH   1  38
ATOM     38  O   UNL     1     -12.717   8.153  72.456  0.00  0.00    -0.440 OA
BRANCH  38  40
ATOM     39  C   UNL     1     -14.769   6.728  71.743  0.00  0.00    +0.121 C 
ATOM     40  C   UNL     1     -14.195   8.022  72.242  0.00  0.00    +0.318 C 
ATOM     41  O   UNL     1     -15.101   9.183  72.527  0.00  0.00    -0.250 OA
ENDBRANCH  38  40
ENDBRANCH   1  38
BRANCH  18  42
ATOM     42  O   UNL     1     -12.044  13.696  69.666  0.00  0.00    -0.446 OA
BRANCH  42  43
ATOM     43  C   UNL     1     -11.136  14.752  70.224  0.00  0.00    +0.350 C 
ATOM     44  O   UNL     1     -11.235  15.140  71.670  0.00  0.00    -0.247 OA
BRANCH  43  45
ATOM     45  C   UNL     1     -10.128  15.421  69.336  0.00  0.00    +0.273 C 
ATOM     46  O   UNL     1      -8.699  15.530  69.774  0.00  0.00    -0.209 OA
BRANCH  45  47
ATOM     47  C   UNL     1     -10.552  15.980  68.010  0.00  0.00    +0.159 C 
BRANCH  47  48
ATOM     48  C   UNL     1     -10.348  17.435  67.711  0.00  0.00    +0.000 A 
ATOM     49  C   UNL     1     -10.454  17.932  66.299  0.00  0.00    -0.003 A 
ATOM     50  C   UNL     1     -10.251  19.389  66.000  0.00  0.00    -0.000 A 
ATOM     51  C   UNL     1      -9.941  20.346  67.112  0.00  0.00    -0.000 A 
ATOM     52  C   UNL     1      -9.834  19.849  68.523  0.00  0.00    -0.000 A 
ATOM     53  C   UNL     1     -10.038  18.394  68.823  0.00  0.00    -0.003 A 
ENDBRANCH  47  48
BRANCH  47  54
ATOM     54  N   UNL     1     -11.179  15.084  66.984  0.00  0.00    -0.196 NA
ATOM     55  C   UNL     1     -10.314  14.210  66.123  0.00  0.00    +0.265 C 
ATOM     56  O   UNL     1      -8.823  14.234  66.288  0.00  0.00    -0.268 OA
BRANCH  55  57
ATOM     57  C   UNL     1     -10.941  13.314  65.097  0.00  0.00    +0.055 A 
ATOM     58  C   UNL     1     -12.432  13.157  65.048  0.00  0.00    +0.005 A 
ATOM     59  C   UNL     1     -13.059  12.260  64.021  0.00  0.00    +0.000 A 
ATOM     60  C   UNL     1     -12.194  11.521  63.044  0.00  0.00    +0.000 A 
ATOM     61  C   UNL     1     -10.703  11.678  63.092  0.00  0.00    +0.000 A 
ATOM     62  C   UNL     1     -10.077  12.574  64.119  0.00  0.00    +0.005 A 
ENDBRANCH  55  57
ENDBRANCH  47  54
ENDBRANCH  45  47
ENDBRANCH  43  45
ENDBRANCH  42  43
ENDBRANCH  18  42
TORSDOF 14
ENDMDL
MODEL 5
REMARK VINA RESULT:      -7.2      3.400      6.525
REMARK  Name = 
REMARK  14 active torsions:
REMARK  status: ('A' for Active; 'I' for Inactive)
REMARK    1  A    between atoms: C_2  and  O_4
REMARK    2  A    between atoms: O_4  and  C_5
REMARK    3  A    between atoms: C_9  and  O_10
REMARK    4  A    between atoms: O_10  and  C_11
REMARK    5  A    between atoms: C_11  and  C_13
REMARK    6  A    between atoms: C_13  and  C_15
REMARK    7  A    between atoms: C_15  and  N_16
REMARK    8  A    between atoms: C_15  and  C_25
REMARK    9  A    between atoms: C_17  and  C_19
REMARK   10  A    between atoms: C_34  and  O_35
REMARK   11  A    between atoms: O_35  and  C_36
REMARK   12  A    between atoms: C_36  and  C_38
REMARK   13  A    between atoms: C_45  and  O_46
REMARK   14  A    between atoms: O_46  and  C_47
REMARK                            x       y       z     vdW  Elec       q    Type
REMARK                         _______ _______ _______ _____ _____    ______ ____
ROOT
ATOM      1  C   UNL     1     -10.081   8.483  67.044  0.00  0.00    +0.243 C 
ATOM      2  C   UNL     1      -9.381   7.240  66.581  0.00  0.00    +0.196 C 
ATOM      3  O   UNL     1      -9.467   6.126  67.581  0.00  0.00    -0.292 OA
ATOM      4  C   UNL     1      -8.615   6.850  65.351  0.00  0.00    +0.090 C 
ATOM      5  C   UNL     1      -8.233   7.541  64.076  0.00  0.00    +0.093 C 
ATOM      6  C   UNL     1      -7.435   6.811  63.037  0.00  0.00    +0.191 C 
ATOM      7  C   UNL     1      -7.020   5.389  63.273  0.00  0.00    +0.157 C 
ATOM      8  C   UNL     1      -7.403   4.697  64.548  0.00  0.00    +0.067 C 
ATOM      9  O   UNL     1      -6.339   5.365  61.937  0.00  0.00    -0.349 OA
ATOM     10  C   UNL     1      -6.754   6.788  61.701  0.00  0.00    +0.185 C 
ATOM     11  C   UNL     1      -8.457   8.909  63.502  0.00  0.00    +0.201 C 
ATOM     12  C   UNL     1      -9.157  10.152  63.966  0.00  0.00    +0.170 C 
ATOM     13  C   UNL     1      -9.923  10.542  65.195  0.00  0.00    +0.048 C 
ATOM     14  C   UNL     1     -10.076  11.534  64.761  0.00  0.00    +0.007 C 
ATOM     15  C   UNL     1     -10.629  11.773  65.681  0.00  0.00    +0.007 C 
ATOM     16  O   UNL     1      -9.071  11.266  62.965  0.00  0.00    -0.222 OA
ATOM     17  C   UNL     1      -9.657  11.565  63.906  0.00  0.00    +0.082 C 
ATOM     18  C   UNL     1     -10.446  12.131  65.050  0.00  0.00    +0.189 C 
ATOM     19  C   UNL     1     -10.733  11.283  66.253  0.00  0.00    -0.009 C 
ATOM     20  C   UNL     1     -11.522  11.848  67.398  0.00  0.00    +0.029 C 
ATOM     21  C   UNL     1      -8.903   6.003  66.555  0.00  0.00    +0.010 C 
ATOM     22  C   UNL     1      -8.200   5.428  65.587  0.00  0.00    +0.161 C 
ATOM     23  O   UNL     1      -8.583   4.737  66.862  0.00  0.00    -0.223 OA
ATOM     24  C   UNL     1     -10.305   9.852  66.470  0.00  0.00    -0.000 C 
ENDROOT
BRANCH  11  25
ATOM     25  O   UNL     1      -7.836   9.072  62.147  0.00  0.00    -0.446 OA
BRANCH  25  26
ATOM     26  C   UNL     1      -6.767  10.102  61.930  0.00  0.00    +0.341 C 
ATOM     27  O   UNL     1      -6.986  11.215  60.948  0.00  0.00    -0.245 OA
BRANCH  26  28
ATOM     28  C   UNL     1      -5.479  10.019  62.695  0.00  0.00    +0.076 A 
ATOM     29  C   UNL     1      -4.251   9.461  62.038  0.00  0.00    +0.006 A 
ATOM     30  C   UNL     1      -2.964   9.379  62.802  0.00  0.00    +0.000 A 
ATOM     31  C   UNL     1      -2.904   9.854  64.224  0.00  0.00    +0.000 A 
ATOM     32  C   UNL     1      -4.131  10.411  64.881  0.00  0.00    +0.000 A 
ATOM     33  C   UNL     1      -5.420  10.494  64.116  0.00  0.00    +0.006 A 
ENDBRANCH  26  28
ENDBRANCH  25  26
ENDBRANCH  11  25
BRANCH   6  34
ATOM     34  O   UNL     1      -7.659   8.178  62.463  0.00  0.00    -0.451 OA
BRANCH  34  35
ATOM     35  C   UNL     1      -8.135   8.329  61.048  0.00  0.00    +0.317 C 
ATOM     36  O   UNL     1      -7.151   8.288  59.918  0.00  0.00    -0.250 OA
ATOM     37  C   UNL     1      -9.595   8.521  60.765  0.00  0.00    +0.121 C 
ENDBRANCH  34  35
ENDBRANCH   6  34
BRANCH   1  38
ATOM     38  O   UNL     1     -10.702   8.321  68.400  0.00  0.00    -0.440 OA
BRANCH  38  40
ATOM     39  C   UNL     1     -11.230   9.713  70.529  0.00  0.00    +0.121 C 
ATOM     40  C   UNL     1     -10.236   9.169  69.545  0.00  0.00    +0.318 C 
ATOM     41  O   UNL     1      -8.776   9.476  69.707  0.00  0.00    -0.250 OA
ENDBRANCH  38  40
ENDBRANCH   1  38
BRANCH  18  42
ATOM     42  O   UNL     1     -10.946  13.543  64.991  0.00  0.00    -0.446 OA
BRANCH  42  43
ATOM     43  C   UNL     1     -10.147  14.648  65.615  0.00  0.00    +0.350 C 
ATOM     44  O   UNL     1      -8.802  14.357  66.214  0.00  0.00    -0.247 OA
BRANCH  43  45
ATOM     45  C   UNL     1     -10.692  16.046  65.642  0.00  0.00    +0.273 C 
ATOM     46  O   UNL     1     -11.250  16.656  64.391  0.00  0.00    -0.209 OA
BRANCH  45  47
ATOM     47  C   UNL     1     -10.678  16.832  66.919  0.00  0.00    +0.159 C 
BRANCH  47  48
ATOM     48  C   UNL     1      -9.851  18.079  67.022  0.00  0.00    +0.000 A 
ATOM     49  C   UNL     1     -10.484  19.363  67.470  0.00  0.00    -0.003 A 
ATOM     50  C   UNL     1      -9.657  20.611  67.573  0.00  0.00    -0.000 A 
ATOM     51  C   UNL     1      -8.197  20.573  67.229  0.00  0.00    -0.000 A 
ATOM     52  C   UNL     1      -7.565  19.289  66.782  0.00  0.00    -0.000 A 
ATOM     53  C   UNL     1      -8.391  18.042  66.678  0.00  0.00    -0.003 A 
ENDBRANCH  47  48
BRANCH  47  54
ATOM     54  N   UNL     1     -11.491  16.371  68.092  0.00  0.00    -0.196 NA
ATOM     55  C   UNL     1     -10.814  15.738  69.271  0.00  0.00    +0.265 C 
ATOM     56  O   UNL     1      -9.323  15.566  69.277  0.00  0.00    -0.268 OA
BRANCH  55  57
ATOM     57  C   UNL     1     -11.626  15.277  70.444  0.00  0.00    +0.055 A 
ATOM     58  C   UNL     1     -11.789  16.166  71.641  0.00  0.00    +0.005 A 
ATOM     59  C   UNL     1     -12.602  15.705  72.814  0.00  0.00    +0.000 A 
ATOM     60  C   UNL     1     -13.253  14.354  72.790  0.00  0.00    +0.000 A 
ATOM     61  C   UNL     1     -13.091  13.464  71.593  0.00  0.00    +0.000 A 
ATOM     62  C   UNL     1     -12.278  13.926  70.421  0.00  0.00    +0.005 A 
ENDBRANCH  55  57
ENDBRANCH  47  54
ENDBRANCH  45  47
ENDBRANCH  43  45
ENDBRANCH  42  43
ENDBRANCH  18  42
TORSDOF 14
ENDMDL
MODEL 6
REMARK VINA RESULT:      -7.2      3.062      5.683
REMARK  Name = 
REMARK  14 active torsions:
REMARK  status: ('A' for Active; 'I' for Inactive)
REMARK    1  A    between atoms: C_2  and  O_4
REMARK    2  A    between atoms: O_4  and  C_5
REMARK    3  A    between atoms: C_9  and  O_10
REMARK    4  A    between atoms: O_10  and  C_11
REMARK    5  A    between atoms: C_11  and  C_13
REMARK    6  A    between atoms: C_13  and  C_15
REMARK    7  A    between atoms: C_15  and  N_16
REMARK    8  A    between atoms: C_15  and  C_25
REMARK    9  A    between atoms: C_17  and  C_19
REMARK   10  A    between atoms: C_34  and  O_35
REMARK   11  A    between atoms: O_35  and  C_36
REMARK   12  A    between atoms: C_36  and  C_38
REMARK   13  A    between atoms: C_45  and  O_46
REMARK   14  A    between atoms: O_46  and  C_47
REMARK                            x       y       z     vdW  Elec       q    Type
REMARK                         _______ _______ _______ _____ _____    ______ ____
ROOT
ATOM      1  C   UNL     1     -11.161   8.480  70.951  0.00  0.00    +0.243 C 
ATOM      2  C   UNL     1     -10.768   7.074  71.297  0.00  0.00    +0.196 C 
ATOM      3  O   UNL     1     -11.075   6.726  72.723  0.00  0.00    -0.292 OA
ATOM      4  C   UNL     1     -10.139   5.935  70.550  0.00  0.00    +0.090 C 
ATOM      5  C   UNL     1      -9.644   5.730  69.150  0.00  0.00    +0.093 C 
ATOM      6  C   UNL     1      -9.055   4.410  68.748  0.00  0.00    +0.191 C 
ATOM      7  C   UNL     1      -8.962   3.295  69.748  0.00  0.00    +0.157 C 
ATOM      8  C   UNL     1      -9.458   3.500  71.149  0.00  0.00    +0.067 C 
ATOM      9  O   UNL     1      -8.337   2.414  68.708  0.00  0.00    -0.349 OA
ATOM     10  C   UNL     1      -8.429   3.529  67.708  0.00  0.00    +0.185 C 
ATOM     11  C   UNL     1      -9.571   6.578  67.915  0.00  0.00    +0.201 C 
ATOM     12  C   UNL     1      -9.965   7.984  67.570  0.00  0.00    +0.170 C 
ATOM     13  C   UNL     1     -10.593   9.123  68.316  0.00  0.00    +0.048 C 
ATOM     14  C   UNL     1     -10.533   9.727  67.406  0.00  0.00    +0.007 C 
ATOM     15  C   UNL     1     -10.995  10.532  67.995  0.00  0.00    +0.007 C 
ATOM     16  O   UNL     1      -9.657   8.332  66.143  0.00  0.00    -0.222 OA
ATOM     17  C   UNL     1     -10.139   9.203  66.714  0.00  0.00    +0.082 C 
ATOM     18  C   UNL     1     -10.752  10.444  67.293  0.00  0.00    +0.189 C 
ATOM     19  C   UNL     1     -11.192  10.464  68.726  0.00  0.00    -0.009 C 
ATOM     20  C   UNL     1     -11.806  11.705  69.306  0.00  0.00    +0.029 C 
ATOM     21  C   UNL     1     -10.579   5.955  71.984  0.00  0.00    +0.010 C 
ATOM     22  C   UNL     1     -10.046   4.820  71.550  0.00  0.00    +0.161 C 
ATOM     23  O   UNL     1     -10.542   5.026  72.950  0.00  0.00    -0.223 OA
ATOM     24  C   UNL     1     -11.089   9.329  69.716  0.00  0.00    -0.000 C 
ENDROOT
BRANCH  11  25
ATOM     25  O   UNL     1      -8.963   5.851  66.753  0.00  0.00    -0.446 OA
BRANCH  25  26
ATOM     26  C   UNL     1      -7.715   6.376  66.109  0.00  0.00    +0.341 C 
ATOM     27  O   UNL     1      -7.674   6.602  64.626  0.00  0.00    -0.245 OA
BRANCH  26  28
ATOM     28  C   UNL     1      -6.507   6.676  66.947  0.00  0.00    +0.076 A 
ATOM     29  C   UNL     1      -6.297   8.058  67.491  0.00  0.00    +0.006 A 
ATOM     30  C   UNL     1      -5.089   8.357  68.329  0.00  0.00    +0.000 A 
ATOM     31  C   UNL     1      -4.092   7.275  68.622  0.00  0.00    +0.000 A 
ATOM     32  C   UNL     1      -4.303   5.894  68.077  0.00  0.00    +0.000 A 
ATOM     33  C   UNL     1      -5.511   5.594  67.239  0.00  0.00    +0.006 A 
ENDBRANCH  26  28
ENDBRANCH  25  26
ENDBRANCH  11  25
BRANCH   6  34
ATOM     34  O   UNL     1      -8.983   5.258  67.514  0.00  0.00    -0.451 OA
BRANCH  34  35
ATOM     35  C   UNL     1      -9.481   4.721  66.204  0.00  0.00    +0.317 C 
ATOM     36  O   UNL     1      -8.567   3.917  65.328  0.00  0.00    -0.250 OA
ATOM     37  C   UNL     1     -10.891   4.989  65.772  0.00  0.00    +0.121 C 
ENDBRANCH  34  35
ENDBRANCH   6  34
BRANCH   1  38
ATOM     38  O   UNL     1     -11.769   9.208  72.114  0.00  0.00    -0.440 OA
BRANCH  38  40
ATOM     39  C   UNL     1     -14.293   8.604  71.987  0.00  0.00    +0.121 C 
ATOM     40  C   UNL     1     -13.206   9.635  72.061  0.00  0.00    +0.318 C 
ATOM     41  O   UNL     1     -13.556  11.094  72.083  0.00  0.00    -0.250 OA
ENDBRANCH  38  40
ENDBRANCH   1  38
BRANCH  18  42
ATOM     42  O   UNL     1     -10.926  11.664  66.438  0.00  0.00    -0.446 OA
BRANCH  42  43
ATOM     43  C   UNL     1      -9.998  12.832  66.601  0.00  0.00    +0.350 C 
ATOM     44  O   UNL     1      -8.711  12.669  67.353  0.00  0.00    -0.247 OA
BRANCH  43  45
ATOM     45  C   UNL     1     -10.358  14.164  66.011  0.00  0.00    +0.273 C 
ATOM     46  O   UNL     1     -10.633  14.282  64.541  0.00  0.00    -0.209 OA
BRANCH  45  47
ATOM     47  C   UNL     1     -10.443  15.376  66.891  0.00  0.00    +0.159 C 
BRANCH  47  48
ATOM     48  C   UNL     1      -9.543  16.549  66.638  0.00  0.00    +0.000 A 
ATOM     49  C   UNL     1     -10.098  17.942  66.683  0.00  0.00    -0.003 A 
ATOM     50  C   UNL     1      -9.199  19.116  66.431  0.00  0.00    -0.000 A 
ATOM     51  C   UNL     1      -7.745  18.896  66.133  0.00  0.00    -0.000 A 
ATOM     52  C   UNL     1      -7.191  17.503  66.089  0.00  0.00    -0.000 A 
ATOM     53  C   UNL     1      -8.089  16.330  66.341  0.00  0.00    -0.003 A 
ENDBRANCH  47  48
BRANCH  47  54
ATOM     54  N   UNL     1     -11.426  15.414  68.022  0.00  0.00    -0.196 NA
ATOM     55  C   UNL     1     -10.938  15.396  69.441  0.00  0.00    +0.265 C 
ATOM     56  O   UNL     1      -9.466  15.341  69.727  0.00  0.00    -0.268 OA
BRANCH  55  57
ATOM     57  C   UNL     1     -11.921  15.434  70.572  0.00  0.00    +0.055 A 
ATOM     58  C   UNL     1     -13.331  14.971  70.357  0.00  0.00    +0.005 A 
ATOM     59  C   UNL     1     -14.315  15.009  71.489  0.00  0.00    +0.000 A 
ATOM     60  C   UNL     1     -13.887  15.510  72.837  0.00  0.00    +0.000 A 
ATOM     61  C   UNL     1     -12.477  15.973  73.053  0.00  0.00    +0.000 A 
ATOM     62  C   UNL     1     -11.494  15.935  71.920  0.00  0.00    +0.005 A 
ENDBRANCH  55  57
ENDBRANCH  47  54
ENDBRANCH  45  47
ENDBRANCH  43  45
ENDBRANCH  42  43
ENDBRANCH  18  42
TORSDOF 14
ENDMDL
MODEL 7
REMARK VINA RESULT:      -7.1      3.602      6.680
REMARK  Name = 
REMARK  14 active torsions:
REMARK  status: ('A' for Active; 'I' for Inactive)
REMARK    1  A    between atoms: C_2  and  O_4
REMARK    2  A    between atoms: O_4  and  C_5
REMARK    3  A    between atoms: C_9  and  O_10
REMARK    4  A    between atoms: O_10  and  C_11
REMARK    5  A    between atoms: C_11  and  C_13
REMARK    6  A    between atoms: C_13  and  C_15
REMARK    7  A    between atoms: C_15  and  N_16
REMARK    8  A    between atoms: C_15  and  C_25
REMARK    9  A    between atoms: C_17  and  C_19
REMARK   10  A    between atoms: C_34  and  O_35
REMARK   11  A    between atoms: O_35  and  C_36
REMARK   12  A    between atoms: C_36  and  C_38
REMARK   13  A    between atoms: C_45  and  O_46
REMARK   14  A    between atoms: O_46  and  C_47
REMARK                            x       y       z     vdW  Elec       q    Type
REMARK                         _______ _______ _______ _____ _____    ______ ____
ROOT
ATOM      1  C   UNL     1     -10.566  11.940  65.848  0.00  0.00    +0.243 C 
ATOM      2  C   UNL     1     -11.110  11.979  67.245  0.00  0.00    +0.196 C 
ATOM      3  O   UNL     1     -11.781  13.282  67.563  0.00  0.00    -0.292 OA
ATOM      4  C   UNL     1     -11.138  11.021  68.399  0.00  0.00    +0.090 C 
ATOM      5  C   UNL     1     -10.636   9.628  68.633  0.00  0.00    +0.093 C 
ATOM      6  C   UNL     1     -10.855   8.964  69.961  0.00  0.00    +0.191 C 
ATOM      7  C   UNL     1     -11.577   9.695  71.054  0.00  0.00    +0.157 C 
ATOM      8  C   UNL     1     -12.079  11.089  70.820  0.00  0.00    +0.067 C 
ATOM      9  O   UNL     1     -11.414   8.508  71.956  0.00  0.00    -0.349 OA
ATOM     10  C   UNL     1     -10.692   7.777  70.862  0.00  0.00    +0.185 C 
ATOM     11  C   UNL     1      -9.897   8.613  67.811  0.00  0.00    +0.201 C 
ATOM     12  C   UNL     1      -9.354   8.575  66.413  0.00  0.00    +0.170 C 
ATOM     13  C   UNL     1      -9.325   9.532  65.259  0.00  0.00    +0.048 C 
ATOM     14  C   UNL     1      -8.787   8.781  64.674  0.00  0.00    +0.007 C 
ATOM     15  C   UNL     1      -8.791   9.518  63.858  0.00  0.00    +0.007 C 
ATOM     16  O   UNL     1      -8.682   7.271  66.095  0.00  0.00    -0.222 OA
ATOM     17  C   UNL     1      -8.660   8.005  65.212  0.00  0.00    +0.082 C 
ATOM     18  C   UNL     1      -8.534   8.822  63.960  0.00  0.00    +0.189 C 
ATOM     19  C   UNL     1      -9.103  10.209  63.910  0.00  0.00    -0.009 C 
ATOM     20  C   UNL     1      -8.978  11.027  62.659  0.00  0.00    +0.029 C 
ATOM     21  C   UNL     1     -11.707  12.408  68.349  0.00  0.00    +0.010 C 
ATOM     22  C   UNL     1     -11.860  11.752  69.492  0.00  0.00    +0.161 C 
ATOM     23  O   UNL     1     -12.362  13.146  69.258  0.00  0.00    -0.223 OA
ATOM     24  C   UNL     1      -9.827  10.926  65.024  0.00  0.00    -0.000 C 
ENDROOT
BRANCH  11  25
ATOM     25  O   UNL     1      -9.641   7.341  68.562  0.00  0.00    -0.446 OA
BRANCH  25  26
ATOM     26  C   UNL     1      -8.257   6.766  68.613  0.00  0.00    +0.341 C 
ATOM     27  O   UNL     1      -7.998   5.387  68.082  0.00  0.00    -0.245 OA
BRANCH  26  28
ATOM     28  C   UNL     1      -7.131   7.569  69.196  0.00  0.00    +0.076 A 
ATOM     29  C   UNL     1      -7.242   8.113  70.590  0.00  0.00    +0.006 A 
ATOM     30  C   UNL     1      -6.117   8.916  71.172  0.00  0.00    +0.000 A 
ATOM     31  C   UNL     1      -4.881   9.175  70.361  0.00  0.00    +0.000 A 
ATOM     32  C   UNL     1      -4.772   8.630  68.968  0.00  0.00    +0.000 A 
ATOM     33  C   UNL     1      -5.897   7.827  68.385  0.00  0.00    +0.006 A 
ENDBRANCH  26  28
ENDBRANCH  25  26
ENDBRANCH  11  25
BRANCH   6  34
ATOM     34  O   UNL     1     -10.116   7.951  69.139  0.00  0.00    -0.451 OA
BRANCH  34  35
ATOM     35  C   UNL     1     -10.669   6.565  68.981  0.00  0.00    +0.317 C 
ATOM     36  O   UNL     1     -11.334   6.165  67.697  0.00  0.00    -0.250 OA
ATOM     37  C   UNL     1     -10.556   5.581  70.106  0.00  0.00    +0.121 C 
ENDBRANCH  34  35
ENDBRANCH   6  34
BRANCH   1  38
ATOM     38  O   UNL     1     -10.822  13.213  65.096  0.00  0.00    -0.440 OA
BRANCH  38  40
ATOM     39  C   UNL     1     -12.483  12.077  63.452  0.00  0.00    +0.121 C 
ATOM     40  C   UNL     1     -11.986  13.306  64.155  0.00  0.00    +0.318 C 
ATOM     41  O   UNL     1     -12.655  14.628  63.917  0.00  0.00    -0.250 OA
ENDBRANCH  38  40
ENDBRANCH   1  38
BRANCH  18  42
ATOM     42  O   UNL     1      -7.841   8.253  62.758  0.00  0.00    -0.446 OA
BRANCH  42  43
ATOM     43  C   UNL     1      -6.377   7.931  62.821  0.00  0.00    +0.350 C 
ATOM     44  O   UNL     1      -5.908   6.703  63.543  0.00  0.00    -0.247 OA
BRANCH  43  45
ATOM     45  C   UNL     1      -5.381   8.838  62.160  0.00  0.00    +0.273 C 
ATOM     46  O   UNL     1      -4.426   8.288  61.143  0.00  0.00    -0.209 OA
BRANCH  45  47
ATOM     47  C   UNL     1      -5.341  10.295  62.517  0.00  0.00    +0.159 C 
BRANCH  47  48
ATOM     48  C   UNL     1      -4.861  11.299  61.512  0.00  0.00    +0.000 A 
ATOM     49  C   UNL     1      -3.436  11.769  61.543  0.00  0.00    -0.003 A 
ATOM     50  C   UNL     1      -2.956  12.774  60.538  0.00  0.00    -0.000 A 
ATOM     51  C   UNL     1      -3.901  13.309  59.502  0.00  0.00    -0.000 A 
ATOM     52  C   UNL     1      -5.325  12.839  59.472  0.00  0.00    -0.000 A 
ATOM     53  C   UNL     1      -5.805  11.835  60.476  0.00  0.00    -0.003 A 
ENDBRANCH  47  48
BRANCH  47  54
ATOM     54  N   UNL     1      -5.780  10.745  63.878  0.00  0.00    -0.196 NA
ATOM     55  C   UNL     1      -4.786  10.824  64.999  0.00  0.00    +0.265 C 
ATOM     56  O   UNL     1      -3.353  10.451  64.758  0.00  0.00    -0.268 OA
BRANCH  55  57
ATOM     57  C   UNL     1      -5.226  11.274  66.360  0.00  0.00    +0.055 A 
ATOM     58  C   UNL     1      -4.250  11.946  67.279  0.00  0.00    +0.005 A 
ATOM     59  C   UNL     1      -4.690  12.397  68.641  0.00  0.00    +0.000 A 
ATOM     60  C   UNL     1      -6.106  12.176  69.083  0.00  0.00    +0.000 A 
ATOM     61  C   UNL     1      -7.083  11.503  68.163  0.00  0.00    +0.000 A 
ATOM     62  C   UNL     1      -6.642  11.053  66.802  0.00  0.00    +0.005 A 
ENDBRANCH  55  57
ENDBRANCH  47  54
ENDBRANCH  45  47
ENDBRANCH  43  45
ENDBRANCH  42  43
ENDBRANCH  18  42
TORSDOF 14
ENDMDL
MODEL 8
REMARK VINA RESULT:      -7.1      2.673      6.008
REMARK  Name = 
REMARK  14 active torsions:
REMARK  status: ('A' for Active; 'I' for Inactive)
REMARK    1  A    between atoms: C_2  and  O_4
REMARK    2  A    between atoms: O_4  and  C_5
REMARK    3  A    between atoms: C_9  and  O_10
REMARK    4  A    between atoms: O_10  and  C_11
REMARK    5  A    between atoms: C_11  and  C_13
REMARK    6  A    between atoms: C_13  and  C_15
REMARK    7  A    between atoms: C_15  and  N_16
REMARK    8  A    between atoms: C_15  and  C_25
REMARK    9  A    between atoms: C_17  and  C_19
REMARK   10  A    between atoms: C_34  and  O_35
REMARK   11  A    between atoms: O_35  and  C_36
REMARK   12  A    between atoms: C_36  and  C_38
REMARK   13  A    between atoms: C_45  and  O_46
REMARK   14  A    between atoms: O_46  and  C_47
REMARK                            x       y       z     vdW  Elec       q    Type
REMARK                         _______ _______ _______ _____ _____    ______ ____
ROOT
ATOM      1  C   UNL     1      -6.120  11.821  69.800  0.00  0.00    +0.243 C 
ATOM      2  C   UNL     1      -5.908  10.612  70.662  0.00  0.00    +0.196 C 
ATOM      3  O   UNL     1      -4.731  10.761  71.579  0.00  0.00    -0.292 OA
ATOM      4  C   UNL     1      -6.597   9.289  70.821  0.00  0.00    +0.090 C 
ATOM      5  C   UNL     1      -7.783   8.628  70.184  0.00  0.00    +0.093 C 
ATOM      6  C   UNL     1      -8.193   7.250  70.612  0.00  0.00    +0.191 C 
ATOM      7  C   UNL     1      -7.416   6.534  71.677  0.00  0.00    +0.157 C 
ATOM      8  C   UNL     1      -6.230   7.194  72.314  0.00  0.00    +0.067 C 
ATOM      9  O   UNL     1      -8.337   5.356  71.557  0.00  0.00    -0.349 OA
ATOM     10  C   UNL     1      -9.114   6.072  70.492  0.00  0.00    +0.185 C 
ATOM     11  C   UNL     1      -8.772   9.015  69.125  0.00  0.00    +0.201 C 
ATOM     12  C   UNL     1      -8.984  10.225  68.263  0.00  0.00    +0.170 C 
ATOM     13  C   UNL     1      -8.295  11.547  68.104  0.00  0.00    +0.048 C 
ATOM     14  C   UNL     1      -9.025  11.812  67.334  0.00  0.00    +0.007 C 
ATOM     15  C   UNL     1      -8.486  12.768  67.253  0.00  0.00    +0.007 C 
ATOM     16  O   UNL     1     -10.162  10.075  67.345  0.00  0.00    -0.222 OA
ATOM     17  C   UNL     1      -9.634  11.088  67.224  0.00  0.00    +0.082 C 
ATOM     18  C   UNL     1      -9.080  12.451  66.927  0.00  0.00    +0.189 C 
ATOM     19  C   UNL     1      -7.877  12.948  67.670  0.00  0.00    -0.009 C 
ATOM     20  C   UNL     1      -7.322  14.311  67.375  0.00  0.00    +0.029 C 
ATOM     21  C   UNL     1      -5.393   9.787  71.564  0.00  0.00    +0.010 C 
ATOM     22  C   UNL     1      -5.820   8.572  71.885  0.00  0.00    +0.161 C 
ATOM     23  O   UNL     1      -4.634   9.234  72.521  0.00  0.00    -0.223 OA
ATOM     24  C   UNL     1      -7.109  12.209  68.740  0.00  0.00    -0.000 C 
ENDROOT
BRANCH  11  25
ATOM     25  O   UNL     1      -9.787   7.941  68.866  0.00  0.00    -0.446 OA
BRANCH  25  26
ATOM     26  C   UNL     1      -9.834   7.259  67.532  0.00  0.00    +0.341 C 
ATOM     27  O   UNL     1     -11.148   7.071  66.832  0.00  0.00    -0.245 OA
BRANCH  26  28
ATOM     28  C   UNL     1      -8.568   6.765  66.896  0.00  0.00    +0.076 A 
ATOM     29  C   UNL     1      -8.108   5.357  67.137  0.00  0.00    +0.006 A 
ATOM     30  C   UNL     1      -6.843   4.863  66.502  0.00  0.00    +0.000 A 
ATOM     31  C   UNL     1      -6.037   5.776  65.626  0.00  0.00    +0.000 A 
ATOM     32  C   UNL     1      -6.497   7.183  65.385  0.00  0.00    +0.000 A 
ATOM     33  C   UNL     1      -7.763   7.678  66.021  0.00  0.00    +0.006 A 
ENDBRANCH  26  28
ENDBRANCH  25  26
ENDBRANCH  11  25
BRANCH   6  34
ATOM     34  O   UNL     1      -9.182   7.637  69.553  0.00  0.00    -0.451 OA
BRANCH  34  35
ATOM     35  C   UNL     1     -10.653   7.571  69.840  0.00  0.00    +0.317 C 
ATOM     36  O   UNL     1     -11.412   6.306  69.573  0.00  0.00    -0.250 OA
ATOM     37  C   UNL     1     -11.363   8.770  70.393  0.00  0.00    +0.121 C 
ENDBRANCH  34  35
ENDBRANCH   6  34
BRANCH   1  38
ATOM     38  O   UNL     1      -5.105  12.895  70.058  0.00  0.00    -0.440 OA
BRANCH  38  40
ATOM     39  C   UNL     1      -5.414  15.453  70.394  0.00  0.00    +0.121 C 
ATOM     40  C   UNL     1      -5.451  14.056  70.942  0.00  0.00    +0.318 C 
ATOM     41  O   UNL     1      -5.834  13.822  72.373  0.00  0.00    -0.250 OA
ENDBRANCH  38  40
ENDBRANCH   1  38
BRANCH  18  42
ATOM     42  O   UNL     1      -9.730  13.315  65.888  0.00  0.00    -0.446 OA
BRANCH  42  43
ATOM     43  C   UNL     1     -10.877  14.206  66.264  0.00  0.00    +0.350 C 
ATOM     44  O   UNL     1     -12.140  13.612  66.815  0.00  0.00    -0.247 OA
BRANCH  43  45
ATOM     45  C   UNL     1     -10.761  15.692  66.089  0.00  0.00    +0.273 C 
ATOM     46  O   UNL     1     -10.676  16.280  64.712  0.00  0.00    -0.209 OA
BRANCH  45  47
ATOM     47  C   UNL     1     -10.729  16.588  67.291  0.00  0.00    +0.159 C 
BRANCH  47  48
ATOM     48  C   UNL     1      -9.879  17.823  67.283  0.00  0.00    +0.000 A 
ATOM     49  C   UNL     1      -8.383  17.703  67.285  0.00  0.00    -0.003 A 
ATOM     50  C   UNL     1      -7.532  18.939  67.277  0.00  0.00    -0.000 A 
ATOM     51  C   UNL     1      -8.177  20.293  67.267  0.00  0.00    -0.000 A 
ATOM     52  C   UNL     1      -9.672  20.412  67.265  0.00  0.00    -0.000 A 
ATOM     53  C   UNL     1     -10.523  19.178  67.273  0.00  0.00    -0.003 A 
ENDBRANCH  47  48
BRANCH  47  54
ATOM     54  N   UNL     1     -11.548  16.249  68.501  0.00  0.00    -0.196 NA
ATOM     55  C   UNL     1     -10.888  15.662  69.713  0.00  0.00    +0.265 C 
ATOM     56  O   UNL     1      -9.408  15.414  69.715  0.00  0.00    -0.268 OA
BRANCH  55  57
ATOM     57  C   UNL     1     -11.707  15.323  70.923  0.00  0.00    +0.055 A 
ATOM     58  C   UNL     1     -12.461  14.028  70.979  0.00  0.00    +0.005 A 
ATOM     59  C   UNL     1     -13.281  13.689  72.190  0.00  0.00    +0.000 A 
ATOM     60  C   UNL     1     -13.345  14.645  73.343  0.00  0.00    +0.000 A 
ATOM     61  C   UNL     1     -12.590  15.941  73.287  0.00  0.00    +0.000 A 
ATOM     62  C   UNL     1     -11.771  16.279  72.077  0.00  0.00    +0.005 A 
ENDBRANCH  55  57
ENDBRANCH  47  54
ENDBRANCH  45  47
ENDBRANCH  43  45
ENDBRANCH  42  43
ENDBRANCH  18  42
TORSDOF 14
ENDMDL
MODEL 9
REMARK VINA RESULT:      -7.1      2.797      7.364
REMARK  Name = 
REMARK  14 active torsions:
REMARK  status: ('A' for Active; 'I' for Inactive)
REMARK    1  A    between atoms: C_2  and  O_4
REMARK    2  A    between atoms: O_4  and  C_5
REMARK    3  A    between atoms: C_9  and  O_10
REMARK    4  A    between atoms: O_10  and  C_11
REMARK    5  A    between atoms: C_11  and  C_13
REMARK    6  A    between atoms: C_13  and  C_15
REMARK    7  A    between atoms: C_15  and  N_16
REMARK    8  A    between atoms: C_15  and  C_25
REMARK    9  A    between atoms: C_17  and  C_19
REMARK   10  A    between atoms: C_34  and  O_35
REMARK   11  A    between atoms: O_35  and  C_36
REMARK   12  A    between atoms: C_36  and  C_38
REMARK   13  A    between atoms: C_45  and  O_46
REMARK   14  A    between atoms: O_46  and  C_47
REMARK                            x       y       z     vdW  Elec       q    Type
REMARK                         _______ _______ _______ _____ _____    ______ ____
ROOT
ATOM      1  C   UNL     1      -7.190   9.591  64.439  0.00  0.00    +0.243 C 
ATOM      2  C   UNL     1      -6.335   8.435  64.867  0.00  0.00    +0.196 C 
ATOM      3  O   UNL     1      -5.087   8.307  64.044  0.00  0.00    -0.292 OA
ATOM      4  C   UNL     1      -6.436   7.376  65.925  0.00  0.00    +0.090 C 
ATOM      5  C   UNL     1      -7.433   7.036  66.992  0.00  0.00    +0.093 C 
ATOM      6  C   UNL     1      -7.192   5.864  67.897  0.00  0.00    +0.191 C 
ATOM      7  C   UNL     1      -5.954   5.033  67.734  0.00  0.00    +0.157 C 
ATOM      8  C   UNL     1      -4.956   5.373  66.667  0.00  0.00    +0.067 C 
ATOM      9  O   UNL     1      -6.390   4.160  68.873  0.00  0.00    -0.349 OA
ATOM     10  C   UNL     1      -7.628   4.991  69.036  0.00  0.00    +0.185 C 
ATOM     11  C   UNL     1      -8.742   7.612  67.445  0.00  0.00    +0.201 C 
ATOM     12  C   UNL     1      -9.596   8.768  67.016  0.00  0.00    +0.170 C 
ATOM     13  C   UNL     1      -9.495   9.827  65.958  0.00  0.00    +0.048 C 
ATOM     14  C   UNL     1     -10.451  10.233  66.301  0.00  0.00    +0.007 C 
ATOM     15  C   UNL     1     -10.332  10.989  65.511  0.00  0.00    +0.007 C 
ATOM     16  O   UNL     1     -10.844   8.895  67.839  0.00  0.00    -0.222 OA
ATOM     17  C   UNL     1     -10.767   9.705  67.029  0.00  0.00    +0.082 C 
ATOM     18  C   UNL     1     -10.838  10.831  66.039  0.00  0.00    +0.189 C 
ATOM     19  C   UNL     1      -9.738  11.017  65.037  0.00  0.00    -0.009 C 
ATOM     20  C   UNL     1      -9.809  12.142  64.046  0.00  0.00    +0.029 C 
ATOM     21  C   UNL     1      -5.336   7.563  64.922  0.00  0.00    +0.010 C 
ATOM     22  C   UNL     1      -5.198   6.545  65.762  0.00  0.00    +0.161 C 
ATOM     23  O   UNL     1      -4.202   6.886  64.694  0.00  0.00    -0.223 OA
ATOM     24  C   UNL     1      -8.499  10.168  64.890  0.00  0.00    -0.000 C 
ENDROOT
BRANCH  11  25
ATOM     25  O   UNL     1      -9.337   6.855  68.595  0.00  0.00    -0.446 OA
BRANCH  25  26
ATOM     26  C   UNL     1      -9.352   7.463  69.965  0.00  0.00    +0.341 C 
ATOM     27  O   UNL     1      -8.069   7.642  70.721  0.00  0.00    -0.245 OA
BRANCH  26  28
ATOM     28  C   UNL     1     -10.652   7.893  70.581  0.00  0.00    +0.076 A 
ATOM     29  C   UNL     1     -10.872   9.333  70.938  0.00  0.00    +0.006 A 
ATOM     30  C   UNL     1     -12.171   9.762  71.553  0.00  0.00    +0.000 A 
ATOM     31  C   UNL     1     -13.250   8.751  71.811  0.00  0.00    +0.000 A 
ATOM     32  C   UNL     1     -13.028   7.312  71.454  0.00  0.00    +0.000 A 
ATOM     33  C   UNL     1     -11.729   6.882  70.839  0.00  0.00    +0.006 A 
ENDBRANCH  26  28
ENDBRANCH  25  26
ENDBRANCH  11  25
BRANCH   6  34
ATOM     34  O   UNL     1      -8.501   6.440  68.350  0.00  0.00    -0.451 OA
BRANCH  34  35
ATOM     35  C   UNL     1      -9.719   5.567  68.426  0.00  0.00    +0.317 C 
ATOM     36  O   UNL     1      -9.894   4.625  69.580  0.00  0.00    -0.250 OA
ATOM     37  C   UNL     1     -10.760   5.638  67.349  0.00  0.00    +0.121 C 
ENDBRANCH  34  35
ENDBRANCH   6  34
BRANCH   1  38
ATOM     38  O   UNL     1      -6.595  10.348  63.288  0.00  0.00    -0.440 OA
BRANCH  38  40
ATOM     39  C   UNL     1      -8.094   9.264  61.465  0.00  0.00    +0.121 C 
ATOM     40  C   UNL     1      -7.343  10.451  61.992  0.00  0.00    +0.318 C 
ATOM     41  O   UNL     1      -7.340  11.739  61.223  0.00  0.00    -0.250 OA
ENDBRANCH  38  40
ENDBRANCH   1  38
BRANCH  18  42
ATOM     42  O   UNL     1     -12.008  11.768  66.051  0.00  0.00    -0.446 OA
BRANCH  42  43
ATOM     43  C   UNL     1     -11.923  13.064  66.803  0.00  0.00    +0.350 C 
ATOM     44  O   UNL     1     -12.559  14.301  66.241  0.00  0.00    -0.247 OA
BRANCH  43  45
ATOM     45  C   UNL     1     -11.200  13.123  68.117  0.00  0.00    +0.273 C 
ATOM     46  O   UNL     1     -11.863  12.609  69.360  0.00  0.00    -0.209 OA
BRANCH  45  47
ATOM     47  C   UNL     1      -9.815  13.696  68.186  0.00  0.00    +0.159 C 
BRANCH  47  48
ATOM     48  C   UNL     1      -8.625  12.785  68.142  0.00  0.00    +0.000 A 
ATOM     49  C   UNL     1      -7.513  13.050  67.170  0.00  0.00    -0.003 A 
ATOM     50  C   UNL     1      -6.322  12.139  67.126  0.00  0.00    -0.000 A 
ATOM     51  C   UNL     1      -6.243  10.963  68.054  0.00  0.00    -0.000 A 
ATOM     52  C   UNL     1      -7.354  10.698  69.025  0.00  0.00    -0.000 A 
ATOM     53  C   UNL     1      -8.545  11.608  69.070  0.00  0.00    -0.003 A 
ENDBRANCH  47  48
BRANCH  47  54
ATOM     54  N   UNL     1      -9.622  15.178  68.299  0.00  0.00    -0.196 NA
ATOM     55  C   UNL     1      -9.491  16.014  67.060  0.00  0.00    +0.265 C 
ATOM     56  O   UNL     1      -9.553  15.366  65.708  0.00  0.00    -0.268 OA
BRANCH  55  57
ATOM     57  C   UNL     1      -9.297  17.497  67.173  0.00  0.00    +0.055 A 
ATOM     58  C   UNL     1     -10.331  18.433  66.622  0.00  0.00    +0.005 A 
ATOM     59  C   UNL     1     -10.138  19.916  66.735  0.00  0.00    +0.000 A 
ATOM     60  C   UNL     1      -8.910  20.463  67.399  0.00  0.00    +0.000 A 
ATOM     61  C   UNL     1      -7.875  19.527  67.951  0.00  0.00    +0.000 A 
ATOM     62  C   UNL     1      -8.069  18.045  67.837  0.00  0.00    +0.005 A 
ENDBRANCH  55  57
ENDBRANCH  47  54
ENDBRANCH  45  47
ENDBRANCH  43  45
ENDBRANCH  42  43
ENDBRANCH  18  42
TORSDOF 14
ENDMDL
