MODEL 1
REMARK VINA RESULT:      -7.5      0.000      0.000
REMARK  Name = 
REMARK  14 active torsions:
REMARK  status: ('A' for Active; 'I' for Inactive)
REMARK    1  A    between atoms: C_2  and  O_4
REMARK    2  A    between atoms: O_4  and  C_5
REMARK    3  A    between atoms: C_5  and  C_7
REMARK    4  A    between atoms: C_7  and  C_8
REMARK    5  A    between atoms: C_8  and  C_9
REMARK    6  A    between atoms: C_9  and  C_10
REMARK    7  A    between atoms: C_11  and  C_12
REMARK    8  A    between atoms: C_12  and  C_13
REMARK    9  A    between atoms: C_14  and  C_15
REMARK   10  A    between atoms: C_16  and  C_17
REMARK   11  A    between atoms: C_17  and  C_19
REMARK   12  A    between atoms: C_19  and  O_20
REMARK   13  A    between atoms: O_20  and  C_21
REMARK   14  A    between atoms: C_25  and  C_26
REMARK                            x       y       z     vdW  Elec       q    Type
REMARK                         _______ _______ _______ _____ _____    ______ ____
ROOT
ATOM      1  C   UNL     1     -10.073  12.725  65.594  0.00  0.00    +0.041 C 
ATOM      2  C   UNL     1     -11.335  11.820  64.899  0.00  0.00    +0.155 C 
ATOM      3  O   UNL     1     -12.418  12.169  65.915  0.00  0.00    -0.223 OA
ATOM      4  C   UNL     1     -11.528  13.006  63.825  0.00  0.00    +0.066 C 
ATOM      5  C   UNL     1     -11.747  14.366  64.645  0.00  0.00    +0.159 C 
ATOM      6  O   UNL     1     -13.195  14.018  64.984  0.00  0.00    -0.223 OA
ATOM      7  C   UNL     1     -11.099  13.900  66.146  0.00  0.00    +0.055 C 
ENDROOT
BRANCH   7   8
ATOM      8  C   UNL     1      -9.974  15.015  65.952  0.00  0.00    -0.026 C 
ATOM      9  C   UNL     1      -9.334  15.516  66.885  0.00  0.00    +0.005 C 
BRANCH   9  10
ATOM     10  C   UNL     1      -9.121  17.112  67.094  0.00  0.00    +0.217 C 
ATOM     11  O   UNL     1      -9.659  17.519  65.723  0.00  0.00    -0.214 OA
BRANCH  10  12
ATOM     12  C   UNL     1     -10.577  17.233  67.877  0.00  0.00    +0.243 C 
BRANCH  12  13
ATOM     13  O   UNL     1     -10.543  16.665  69.063  0.00  0.00    -0.472 OA
BRANCH  13  14
ATOM     14  C   UNL     1     -11.147  15.786  69.863  0.00  0.00    +0.139 A 
ATOM     15  C   UNL     1     -11.586  16.194  71.121  0.00  0.00    +0.041 A 
ATOM     16  C   UNL     1     -12.325  15.332  71.912  0.00  0.00    +0.074 A 
ATOM     17  C   UNL     1     -12.507  14.051  71.478  0.00  0.00    +0.004 A 
ATOM     18  C   UNL     1     -12.165  13.660  70.187  0.00  0.00    +0.003 A 
ATOM     19  C   UNL     1     -11.782  14.682  69.338  0.00  0.00    +0.037 A 
BRANCH  16  20
ATOM     20  C   UNL     1     -12.729  15.867  73.235  0.00  0.00    +0.419 C 
ATOM     21  F   UNL     1     -14.060  16.225  73.240  0.00  0.00    -0.166 F 
ATOM     22  F   UNL     1     -11.980  16.942  73.644  0.00  0.00    -0.166 F 
ATOM     23  F   UNL     1     -12.578  14.840  74.140  0.00  0.00    -0.166 F 
ENDBRANCH  16  20
ENDBRANCH  13  14
ENDBRANCH  12  13
ENDBRANCH  10  12
ENDBRANCH   9  10
ENDBRANCH   7   8
BRANCH   1  24
ATOM     24  C   UNL     1     -10.231  11.820  66.921  0.00  0.00    +0.029 C 
BRANCH  24  26
ATOM     25  C   UNL     1      -8.991  11.084  68.786  0.00  0.00    -0.031 C 
ATOM     26  C   UNL     1      -9.007  11.869  67.700  0.00  0.00    -0.031 C 
BRANCH  25  27
ATOM     27  C   UNL     1     -10.320  10.515  69.184  0.00  0.00    +0.026 C 
BRANCH  27  28
ATOM     28  C   UNL     1     -10.031   9.051  69.504  0.00  0.00    +0.016 C 
BRANCH  28  29
ATOM     29  C   UNL     1      -9.965   8.994  71.031  0.00  0.00    +0.110 C 
BRANCH  29  30
ATOM     30  C   UNL     1     -11.091   8.108  71.431  0.00  0.00    +0.317 C 
ATOM     31  O   UNL     1     -11.438   7.186  70.665  0.00  0.00    -0.250 OA
BRANCH  30  32
ATOM     32  O   UNL     1     -11.929   8.461  72.469  0.00  0.00    -0.452 OA
BRANCH  32  34
ATOM     33  C   UNL     1     -13.397   8.973  72.236  0.00  0.00    +0.047 C 
ATOM     34  C   UNL     1     -13.216   8.989  72.199  0.00  0.00    +0.169 C 
ATOM     35  C   UNL     1     -13.166  10.465  71.774  0.00  0.00    +0.047 C 
ENDBRANCH  32  34
ENDBRANCH  30  32
ENDBRANCH  29  30
ENDBRANCH  28  29
ENDBRANCH  27  28
ENDBRANCH  25  27
ENDBRANCH  24  26
ENDBRANCH   1  24
TORSDOF 14
ENDMDL
MODEL 2
REMARK VINA RESULT:      -7.1      3.286      7.931
REMARK  Name = 
REMARK  14 active torsions:
REMARK  status: ('A' for Active; 'I' for Inactive)
REMARK    1  A    between atoms: C_2  and  O_4
REMARK    2  A    between atoms: O_4  and  C_5
REMARK    3  A    between atoms: C_5  and  C_7
REMARK    4  A    between atoms: C_7  and  C_8
REMARK    5  A    between atoms: C_8  and  C_9
REMARK    6  A    between atoms: C_9  and  C_10
REMARK    7  A    between atoms: C_11  and  C_12
REMARK    8  A    between atoms: C_12  and  C_13
REMARK    9  A    between atoms: C_14  and  C_15
REMARK   10  A    between atoms: C_16  and  C_17
REMARK   11  A    between atoms: C_17  and  C_19
REMARK   12  A    between atoms: C_19  and  O_20
REMARK   13  A    between atoms: O_20  and  C_21
REMARK   14  A    between atoms: C_25  and  C_26
REMARK                            x       y       z     vdW  Elec       q    Type
REMARK                         _______ _______ _______ _____ _____    ______ ____
ROOT
ATOM      1  C   UNL     1     -11.589  14.765  71.182  0.00  0.00    +0.041 C 
ATOM      2  C   UNL     1     -12.461  15.817  72.194  0.00  0.00    +0.155 C 
ATOM      3  O   UNL     1     -13.738  15.886  71.362  0.00  0.00    -0.223 OA
ATOM      4  C   UNL     1     -12.782  14.556  73.145  0.00  0.00    +0.066 C 
ATOM      5  C   UNL     1     -13.459  13.426  72.232  0.00  0.00    +0.159 C 
ATOM      6  O   UNL     1     -14.806  14.144  72.207  0.00  0.00    -0.223 OA
ATOM      7  C   UNL     1     -12.950  13.955  70.699  0.00  0.00    +0.055 C 
ENDROOT
BRANCH   7   8
ATOM      8  C   UNL     1     -12.126  12.596  70.557  0.00  0.00    -0.026 C 
ATOM      9  C   UNL     1     -11.652  12.188  69.489  0.00  0.00    +0.005 C 
BRANCH   9  10
ATOM     10  C   UNL     1     -11.840  10.678  68.923  0.00  0.00    +0.217 C 
ATOM     11  O   UNL     1     -11.910  11.076  67.449  0.00  0.00    -0.214 OA
BRANCH  10  12
ATOM     12  C   UNL     1     -10.200  10.436  68.942  0.00  0.00    +0.243 C 
BRANCH  12  13
ATOM     13  O   UNL     1      -9.889   9.172  68.752  0.00  0.00    -0.472 OA
BRANCH  13  14
ATOM     14  C   UNL     1     -10.102   7.928  69.178  0.00  0.00    +0.139 A 
ATOM     15  C   UNL     1     -10.750   7.722  70.395  0.00  0.00    +0.041 A 
ATOM     16  C   UNL     1     -11.091   6.441  70.791  0.00  0.00    +0.074 A 
ATOM     17  C   UNL     1     -10.674   5.392  70.023  0.00  0.00    +0.004 A 
ATOM     18  C   UNL     1     -10.117   5.584  68.763  0.00  0.00    +0.003 A 
ATOM     19  C   UNL     1     -10.162   6.881  68.285  0.00  0.00    +0.037 A 
BRANCH  16  20
ATOM     20  C   UNL     1     -11.768   6.338  72.107  0.00  0.00    +0.419 C 
ATOM     21  F   UNL     1     -13.130   6.503  71.979  0.00  0.00    -0.166 F 
ATOM     22  F   UNL     1     -11.299   7.233  73.036  0.00  0.00    -0.166 F 
ATOM     23  F   UNL     1     -11.552   5.058  72.565  0.00  0.00    -0.166 F 
ENDBRANCH  16  20
ENDBRANCH  13  14
ENDBRANCH  12  13
ENDBRANCH  10  12
ENDBRANCH   9  10
ENDBRANCH   7   8
BRANCH   1  24
ATOM     24  C   UNL     1     -11.711  15.874  70.016  0.00  0.00    +0.029 C 
BRANCH  24  26
ATOM     25  C   UNL     1     -10.338  15.955  68.103  0.00  0.00    -0.031 C 
ATOM     26  C   UNL     1     -10.407  16.121  69.431  0.00  0.00    -0.031 C 
BRANCH  25  27
ATOM     27  C   UNL     1     -11.517  15.268  67.481  0.00  0.00    +0.026 C 
BRANCH  27  28
ATOM     28  C   UNL     1     -10.907  14.193  66.585  0.00  0.00    +0.016 C 
BRANCH  28  29
ATOM     29  C   UNL     1     -10.790  14.855  65.212  0.00  0.00    +0.110 C 
BRANCH  29  30
ATOM     30  C   UNL     1     -12.015  14.442  64.479  0.00  0.00    +0.317 C 
ATOM     31  O   UNL     1     -12.724  15.316  63.940  0.00  0.00    -0.250 OA
BRANCH  30  32
ATOM     32  O   UNL     1     -12.532  13.170  64.634  0.00  0.00    -0.452 OA
BRANCH  32  34
ATOM     33  C   UNL     1     -12.385  12.145  63.452  0.00  0.00    +0.047 C 
ATOM     34  C   UNL     1     -12.340  12.195  63.624  0.00  0.00    +0.169 C 
ATOM     35  C   UNL     1     -10.999  11.458  63.770  0.00  0.00    +0.047 C 
ENDBRANCH  32  34
ENDBRANCH  30  32
ENDBRANCH  29  30
ENDBRANCH  28  29
ENDBRANCH  27  28
ENDBRANCH  25  27
ENDBRANCH  24  26
ENDBRANCH   1  24
TORSDOF 14
ENDMDL
MODEL 3
REMARK VINA RESULT:      -7.0      3.044      5.565
REMARK  Name = 
REMARK  14 active torsions:
REMARK  status: ('A' for Active; 'I' for Inactive)
REMARK    1  A    between atoms: C_2  and  O_4
REMARK    2  A    between atoms: O_4  and  C_5
REMARK    3  A    between atoms: C_5  and  C_7
REMARK    4  A    between atoms: C_7  and  C_8
REMARK    5  A    between atoms: C_8  and  C_9
REMARK    6  A    between atoms: C_9  and  C_10
REMARK    7  A    between atoms: C_11  and  C_12
REMARK    8  A    between atoms: C_12  and  C_13
REMARK    9  A    between atoms: C_14  and  C_15
REMARK   10  A    between atoms: C_16  and  C_17
REMARK   11  A    between atoms: C_17  and  C_19
REMARK   12  A    between atoms: C_19  and  O_20
REMARK   13  A    between atoms: O_20  and  C_21
REMARK   14  A    between atoms: C_25  and  C_26
REMARK                            x       y       z     vdW  Elec       q    Type
REMARK                         _______ _______ _______ _____ _____    ______ ____
ROOT
ATOM      1  C   UNL     1      -9.704  11.745  66.541  0.00  0.00    +0.041 C 
ATOM      2  C   UNL     1      -8.673  10.756  67.463  0.00  0.00    +0.155 C 
ATOM      3  O   UNL     1      -9.622   9.572  67.628  0.00  0.00    -0.223 OA
ATOM      4  C   UNL     1      -7.917  10.355  66.097  0.00  0.00    +0.066 C 
ATOM      5  C   UNL     1      -9.024   9.795  65.082  0.00  0.00    +0.159 C 
ATOM      6  O   UNL     1      -9.107   8.447  65.796  0.00  0.00    -0.223 OA
ATOM      7  C   UNL     1     -10.420  10.455  65.792  0.00  0.00    +0.055 C 
ENDROOT
BRANCH   7   8
ATOM      8  C   UNL     1     -10.634  11.309  64.461  0.00  0.00    -0.026 C 
ATOM      9  C   UNL     1     -10.783  12.537  64.449  0.00  0.00    +0.005 C 
BRANCH   9  10
ATOM     10  C   UNL     1     -11.966  13.308  63.646  0.00  0.00    +0.217 C 
ATOM     11  O   UNL     1     -13.117  12.653  64.408  0.00  0.00    -0.214 OA
BRANCH  10  12
ATOM     12  C   UNL     1     -11.835  14.617  64.655  0.00  0.00    +0.243 C 
BRANCH  12  13
ATOM     13  O   UNL     1     -10.582  14.879  64.957  0.00  0.00    -0.472 OA
BRANCH  13  14
ATOM     14  C   UNL     1      -9.784  15.586  65.757  0.00  0.00    +0.139 A 
ATOM     15  C   UNL     1     -10.223  16.812  66.253  0.00  0.00    +0.041 A 
ATOM     16  C   UNL     1      -9.463  17.497  67.183  0.00  0.00    +0.074 A 
ATOM     17  C   UNL     1      -8.233  17.001  67.506  0.00  0.00    +0.004 A 
ATOM     18  C   UNL     1      -7.825  15.735  67.100  0.00  0.00    +0.003 A 
ATOM     19  C   UNL     1      -8.798  14.964  66.491  0.00  0.00    +0.037 A 
BRANCH  16  20
ATOM     20  C   UNL     1     -10.021  18.795  67.633  0.00  0.00    +0.419 C 
ATOM     21  F   UNL     1     -10.126  18.841  69.007  0.00  0.00    -0.166 F 
ATOM     22  F   UNL     1     -11.246  19.085  67.086  0.00  0.00    -0.166 F 
ATOM     23  F   UNL     1      -9.119  19.766  67.259  0.00  0.00    -0.166 F 
ENDBRANCH  16  20
ENDBRANCH  13  14
ENDBRANCH  12  13
ENDBRANCH  10  12
ENDBRANCH   9  10
ENDBRANCH   7   8
BRANCH   1  24
ATOM     24  C   UNL     1     -10.737  11.729  67.781  0.00  0.00    +0.029 C 
BRANCH  24  26
ATOM     25  C   UNL     1     -11.855  13.739  68.293  0.00  0.00    -0.031 C 
ATOM     26  C   UNL     1     -11.833  12.643  67.523  0.00  0.00    -0.031 C 
BRANCH  25  27
ATOM     27  C   UNL     1     -10.935  13.708  69.476  0.00  0.00    +0.026 C 
BRANCH  27  28
ATOM     28  C   UNL     1     -10.664  15.177  69.791  0.00  0.00    +0.016 C 
BRANCH  28  29
ATOM     29  C   UNL     1     -12.052  15.810  69.908  0.00  0.00    +0.110 C 
BRANCH  29  30
ATOM     30  C   UNL     1     -12.331  15.855  71.368  0.00  0.00    +0.317 C 
ATOM     31  O   UNL     1     -11.422  15.557  72.169  0.00  0.00    -0.250 OA
BRANCH  30  32
ATOM     32  O   UNL     1     -13.629  15.930  71.834  0.00  0.00    -0.452 OA
BRANCH  32  34
ATOM     33  C   UNL     1     -14.632  14.734  71.650  0.00  0.00    +0.047 C 
ATOM     34  C   UNL     1     -14.487  14.806  71.740  0.00  0.00    +0.169 C 
ATOM     35  C   UNL     1     -13.823  13.519  72.252  0.00  0.00    +0.047 C 
ENDBRANCH  32  34
ENDBRANCH  30  32
ENDBRANCH  29  30
ENDBRANCH  28  29
ENDBRANCH  27  28
ENDBRANCH  25  27
ENDBRANCH  24  26
ENDBRANCH   1  24
TORSDOF 14
ENDMDL
MODEL 4
REMARK VINA RESULT:      -7.0      2.269      3.104
REMARK  Name = 
REMARK  14 active torsions:
REMARK  status: ('A' for Active; 'I' for Inactive)
REMARK    1  A    between atoms: C_2  and  O_4
REMARK    2  A    between atoms: O_4  and  C_5
REMARK    3  A    between atoms: C_5  and  C_7
REMARK    4  A    between atoms: C_7  and  C_8
REMARK    5  A    between atoms: C_8  and  C_9
REMARK    6  A    between atoms: C_9  and  C_10
REMARK    7  A    between atoms: C_11  and  C_12
REMARK    8  A    between atoms: C_12  and  C_13
REMARK    9  A    between atoms: C_14  and  C_15
REMARK   10  A    between atoms: C_16  and  C_17
REMARK   11  A    between atoms: C_17  and  C_19
REMARK   12  A    between atoms: C_19  and  O_20
REMARK   13  A    between atoms: O_20  and  C_21
REMARK   14  A    between atoms: C_25  and  C_26
REMARK                            x       y       z     vdW  Elec       q    Type
REMARK                         _______ _______ _______ _____ _____    ______ ____
ROOT
ATOM      1  C   UNL     1     -10.271  12.258  66.219  0.00  0.00    +0.041 C 
ATOM      2  C   UNL     1     -11.159  11.683  64.886  0.00  0.00    +0.155 C 
ATOM      3  O   UNL     1     -12.539  12.139  65.350  0.00  0.00    -0.223 OA
ATOM      4  C   UNL     1     -10.668  12.978  64.063  0.00  0.00    +0.066 C 
ATOM      5  C   UNL     1     -11.072  14.273  64.917  0.00  0.00    +0.159 C 
ATOM      6  O   UNL     1     -12.540  14.182  64.504  0.00  0.00    -0.223 OA
ATOM      7  C   UNL     1     -11.276  13.554  66.444  0.00  0.00    +0.055 C 
ENDROOT
BRANCH   7   8
ATOM      8  C   UNL     1     -10.061  14.443  66.971  0.00  0.00    -0.026 C 
ATOM      9  C   UNL     1      -9.958  14.844  68.137  0.00  0.00    +0.005 C 
BRANCH   9  10
ATOM     10  C   UNL     1      -9.633  16.380  68.551  0.00  0.00    +0.217 C 
ATOM     11  O   UNL     1     -10.403  17.015  67.394  0.00  0.00    -0.214 OA
BRANCH  10  12
ATOM     12  C   UNL     1     -10.906  16.393  69.612  0.00  0.00    +0.243 C 
BRANCH  12  13
ATOM     13  O   UNL     1     -11.379  15.184  69.824  0.00  0.00    -0.472 OA
BRANCH  13  14
ATOM     14  C   UNL     1     -12.175  14.452  70.603  0.00  0.00    +0.139 A 
ATOM     15  C   UNL     1     -12.122  13.062  70.521  0.00  0.00    +0.041 A 
ATOM     16  C   UNL     1     -12.848  12.286  71.408  0.00  0.00    +0.074 A 
ATOM     17  C   UNL     1     -13.694  12.915  72.276  0.00  0.00    +0.004 A 
ATOM     18  C   UNL     1     -13.683  14.296  72.437  0.00  0.00    +0.003 A 
ATOM     19  C   UNL     1     -12.661  14.963  71.787  0.00  0.00    +0.037 A 
BRANCH  16  20
ATOM     20  C   UNL     1     -12.725  10.820  71.223  0.00  0.00    +0.419 C 
ATOM     21  F   UNL     1     -11.414  10.412  71.345  0.00  0.00    -0.166 F 
ATOM     22  F   UNL     1     -13.217  10.376  70.021  0.00  0.00    -0.166 F 
ATOM     23  F   UNL     1     -13.434  10.231  72.246  0.00  0.00    -0.166 F 
ENDBRANCH  16  20
ENDBRANCH  13  14
ENDBRANCH  12  13
ENDBRANCH  10  12
ENDBRANCH   9  10
ENDBRANCH   7   8
BRANCH   1  24
ATOM     24  C   UNL     1     -11.151  11.282  67.155  0.00  0.00    +0.029 C 
BRANCH  24  26
ATOM     25  C   UNL     1      -9.970   9.568  68.260  0.00  0.00    -0.031 C 
ATOM     26  C   UNL     1     -10.363  10.848  68.294  0.00  0.00    -0.031 C 
BRANCH  25  27
ATOM     27  C   UNL     1     -10.639   8.720  67.219  0.00  0.00    +0.026 C 
BRANCH  27  28
ATOM     28  C   UNL     1      -9.813   7.437  67.178  0.00  0.00    +0.016 C 
BRANCH  28  29
ATOM     29  C   UNL     1     -10.842   6.310  67.271  0.00  0.00    +0.110 C 
BRANCH  29  30
ATOM     30  C   UNL     1     -10.813   5.881  68.695  0.00  0.00    +0.317 C 
ATOM     31  O   UNL     1     -10.024   4.977  69.039  0.00  0.00    -0.250 OA
BRANCH  30  32
ATOM     32  O   UNL     1     -11.824   6.246  69.561  0.00  0.00    -0.452 OA
BRANCH  32  34
ATOM     33  C   UNL     1     -11.543   7.253  70.734  0.00  0.00    +0.047 C 
ATOM     34  C   UNL     1     -11.544   7.079  70.673  0.00  0.00    +0.169 C 
ATOM     35  C   UNL     1     -11.665   6.330  72.009  0.00  0.00    +0.047 C 
ENDBRANCH  32  34
ENDBRANCH  30  32
ENDBRANCH  29  30
ENDBRANCH  28  29
ENDBRANCH  27  28
ENDBRANCH  25  27
ENDBRANCH  24  26
ENDBRANCH   1  24
TORSDOF 14
ENDMDL
MODEL 5
REMARK VINA RESULT:      -7.0      3.555      5.890
REMARK  Name = 
REMARK  14 active torsions:
REMARK  status: ('A' for Active; 'I' for Inactive)
REMARK    1  A    between atoms: C_2  and  O_4
REMARK    2  A    between atoms: O_4  and  C_5
REMARK    3  A    between atoms: C_5  and  C_7
REMARK    4  A    between atoms: C_7  and  C_8
REMARK    5  A    between atoms: C_8  and  C_9
REMARK    6  A    between atoms: C_9  and  C_10
REMARK    7  A    between atoms: C_11  and  C_12
REMARK    8  A    between atoms: C_12  and  C_13
REMARK    9  A    between atoms: C_14  and  C_15
REMARK   10  A    between atoms: C_16  and  C_17
REMARK   11  A    between atoms: C_17  and  C_19
REMARK   12  A    between atoms: C_19  and  O_20
REMARK   13  A    between atoms: O_20  and  C_21
REMARK   14  A    between atoms: C_25  and  C_26
REMARK                            x       y       z     vdW  Elec       q    Type
REMARK                         _______ _______ _______ _____ _____    ______ ____
ROOT
ATOM      1  C   UNL     1     -13.019  14.376  70.817  0.00  0.00    +0.041 C 
ATOM      2  C   UNL     1     -14.118  14.005  72.062  0.00  0.00    +0.155 C 
ATOM      3  O   UNL     1     -13.097  13.585  73.114  0.00  0.00    -0.223 OA
ATOM      4  C   UNL     1     -14.234  15.585  72.362  0.00  0.00    +0.066 C 
ATOM      5  C   UNL     1     -12.751  16.137  72.612  0.00  0.00    +0.159 C 
ATOM      6  O   UNL     1     -12.691  15.558  74.024  0.00  0.00    -0.223 OA
ATOM      7  C   UNL     1     -11.856  14.894  71.875  0.00  0.00    +0.055 C 
ENDROOT
BRANCH   7   8
ATOM      8  C   UNL     1     -11.329  15.966  70.817  0.00  0.00    -0.026 C 
ATOM      9  C   UNL     1     -10.815  15.666  69.732  0.00  0.00    +0.005 C 
BRANCH   9  10
ATOM     10  C   UNL     1      -9.417  16.281  69.182  0.00  0.00    +0.217 C 
ATOM     11  O   UNL     1      -8.627  14.977  69.282  0.00  0.00    -0.214 OA
BRANCH  10  12
ATOM     12  C   UNL     1      -9.901  16.051  67.613  0.00  0.00    +0.243 C 
BRANCH  12  13
ATOM     13  O   UNL     1     -10.477  14.880  67.446  0.00  0.00    -0.472 OA
BRANCH  13  14
ATOM     14  C   UNL     1     -10.931  14.014  66.540  0.00  0.00    +0.139 A 
ATOM     15  C   UNL     1     -10.261  12.807  66.351  0.00  0.00    +0.041 A 
ATOM     16  C   UNL     1     -10.788  11.845  65.509  0.00  0.00    +0.074 A 
ATOM     17  C   UNL     1     -11.905  12.156  64.789  0.00  0.00    +0.004 A 
ATOM     18  C   UNL     1     -12.639  13.311  65.039  0.00  0.00    +0.003 A 
ATOM     19  C   UNL     1     -12.254  14.028  66.157  0.00  0.00    +0.037 A 
BRANCH  16  20
ATOM     20  C   UNL     1      -9.986  10.604  65.375  0.00  0.00    +0.419 C 
ATOM     21  F   UNL     1      -8.643  10.859  65.549  0.00  0.00    -0.166 F 
ATOM     22  F   UNL     1     -10.163   9.964  64.173  0.00  0.00    -0.166 F 
ATOM     23  F   UNL     1     -10.379   9.766  66.395  0.00  0.00    -0.166 F 
ENDBRANCH  16  20
ENDBRANCH  13  14
ENDBRANCH  12  13
ENDBRANCH  10  12
ENDBRANCH   9  10
ENDBRANCH   7   8
BRANCH   1  24
ATOM     24  C   UNL     1     -12.528  12.840  70.869  0.00  0.00    +0.029 C 
BRANCH  24  26
ATOM     25  C   UNL     1     -11.736  11.156  69.424  0.00  0.00    -0.031 C 
ATOM     26  C   UNL     1     -11.930  12.469  69.600  0.00  0.00    -0.031 C 
BRANCH  25  27
ATOM     27  C   UNL     1     -11.889  10.315  70.656  0.00  0.00    +0.026 C 
BRANCH  27  28
ATOM     28  C   UNL     1     -10.602   9.496  70.726  0.00  0.00    +0.016 C 
BRANCH  28  29
ATOM     29  C   UNL     1     -11.053   8.048  70.528  0.00  0.00    +0.110 C 
BRANCH  29  30
ATOM     30  C   UNL     1     -11.642   7.648  71.834  0.00  0.00    +0.317 C 
ATOM     31  O   UNL     1     -10.984   7.832  72.878  0.00  0.00    -0.250 OA
BRANCH  30  32
ATOM     32  O   UNL     1     -12.751   6.827  71.883  0.00  0.00    -0.452 OA
BRANCH  32  34
ATOM     33  C   UNL     1     -14.176   7.272  71.392  0.00  0.00    +0.047 C 
ATOM     34  C   UNL     1     -14.019   7.315  71.479  0.00  0.00    +0.169 C 
ATOM     35  C   UNL     1     -14.517   8.461  72.373  0.00  0.00    +0.047 C 
ENDBRANCH  32  34
ENDBRANCH  30  32
ENDBRANCH  29  30
ENDBRANCH  28  29
ENDBRANCH  27  28
ENDBRANCH  25  27
ENDBRANCH  24  26
ENDBRANCH   1  24
TORSDOF 14
ENDMDL
MODEL 6
REMARK VINA RESULT:      -6.9      2.359      7.015
REMARK  Name = 
REMARK  14 active torsions:
REMARK  status: ('A' for Active; 'I' for Inactive)
REMARK    1  A    between atoms: C_2  and  O_4
REMARK    2  A    between atoms: O_4  and  C_5
REMARK    3  A    between atoms: C_5  and  C_7
REMARK    4  A    between atoms: C_7  and  C_8
REMARK    5  A    between atoms: C_8  and  C_9
REMARK    6  A    between atoms: C_9  and  C_10
REMARK    7  A    between atoms: C_11  and  C_12
REMARK    8  A    between atoms: C_12  and  C_13
REMARK    9  A    between atoms: C_14  and  C_15
REMARK   10  A    between atoms: C_16  and  C_17
REMARK   11  A    between atoms: C_17  and  C_19
REMARK   12  A    between atoms: C_19  and  O_20
REMARK   13  A    between atoms: O_20  and  C_21
REMARK   14  A    between atoms: C_25  and  C_26
REMARK                            x       y       z     vdW  Elec       q    Type
REMARK                         _______ _______ _______ _____ _____    ______ ____
ROOT
ATOM      1  C   UNL     1     -10.205  11.054  67.199  0.00  0.00    +0.041 C 
ATOM      2  C   UNL     1      -8.598  11.236  66.671  0.00  0.00    +0.155 C 
ATOM      3  O   UNL     1      -8.076  12.014  67.875  0.00  0.00    -0.223 OA
ATOM      4  C   UNL     1      -8.324   9.719  67.143  0.00  0.00    +0.066 C 
ATOM      5  C   UNL     1      -8.754   9.610  68.683  0.00  0.00    +0.159 C 
ATOM      6  O   UNL     1      -7.489  10.318  69.166  0.00  0.00    -0.223 OA
ATOM      7  C   UNL     1      -9.767  10.970  68.793  0.00  0.00    +0.055 C 
ENDROOT
BRANCH   7   8
ATOM      8  C   UNL     1     -10.980   9.981  69.104  0.00  0.00    -0.026 C 
ATOM      9  C   UNL     1     -11.868  10.222  69.931  0.00  0.00    +0.005 C 
BRANCH   9  10
ATOM     10  C   UNL     1     -12.357   9.182  71.079  0.00  0.00    +0.217 C 
ATOM     11  O   UNL     1     -11.056   9.217  71.880  0.00  0.00    -0.214 OA
BRANCH  10  12
ATOM     12  C   UNL     1     -13.091  10.409  71.918  0.00  0.00    +0.243 C 
BRANCH  12  13
ATOM     13  O   UNL     1     -12.962  11.566  71.306  0.00  0.00    -0.472 OA
BRANCH  13  14
ATOM     14  C   UNL     1     -12.887  12.885  71.484  0.00  0.00    +0.139 A 
ATOM     15  C   UNL     1     -12.186  13.661  70.563  0.00  0.00    +0.041 A 
ATOM     16  C   UNL     1     -12.204  15.041  70.662  0.00  0.00    +0.074 A 
ATOM     17  C   UNL     1     -12.822  15.605  71.741  0.00  0.00    +0.004 A 
ATOM     18  C   UNL     1     -13.608  14.854  72.609  0.00  0.00    +0.003 A 
ATOM     19  C   UNL     1     -13.845  13.549  72.218  0.00  0.00    +0.037 A 
BRANCH  16  20
ATOM     20  C   UNL     1     -11.416  15.766  69.636  0.00  0.00    +0.419 C 
ATOM     21  F   UNL     1     -10.995  16.992  70.106  0.00  0.00    -0.166 F 
ATOM     22  F   UNL     1     -12.092  15.953  68.456  0.00  0.00    -0.166 F 
ATOM     23  F   UNL     1     -10.289  15.012  69.396  0.00  0.00    -0.166 F 
ENDBRANCH  16  20
ENDBRANCH  13  14
ENDBRANCH  12  13
ENDBRANCH  10  12
ENDBRANCH   9  10
ENDBRANCH   7   8
BRANCH   1  24
ATOM     24  C   UNL     1     -10.324  12.663  67.210  0.00  0.00    +0.029 C 
BRANCH  24  26
ATOM     25  C   UNL     1     -11.800  13.805  65.770  0.00  0.00    -0.031 C 
ATOM     26  C   UNL     1     -11.680  13.060  66.877  0.00  0.00    -0.031 C 
BRANCH  25  27
ATOM     27  C   UNL     1     -10.515  14.351  65.223  0.00  0.00    +0.026 C 
BRANCH  27  28
ATOM     28  C   UNL     1     -10.587  15.851  65.495  0.00  0.00    +0.016 C 
BRANCH  28  29
ATOM     29  C   UNL     1      -9.199  16.216  66.023  0.00  0.00    +0.110 C 
BRANCH  29  30
ATOM     30  C   UNL     1      -9.430  17.344  66.963  0.00  0.00    +0.317 C 
ATOM     31  O   UNL     1      -8.761  17.404  68.015  0.00  0.00    -0.250 OA
BRANCH  30  32
ATOM     32  O   UNL     1     -10.549  18.144  66.841  0.00  0.00    -0.452 OA
BRANCH  32  34
ATOM     33  C   UNL     1     -10.510  19.576  66.196  0.00  0.00    +0.047 C 
ATOM     34  C   UNL     1     -10.436  19.454  66.314  0.00  0.00    +0.169 C 
ATOM     35  C   UNL     1      -9.735  20.417  67.285  0.00  0.00    +0.047 C 
ENDBRANCH  32  34
ENDBRANCH  30  32
ENDBRANCH  29  30
ENDBRANCH  28  29
ENDBRANCH  27  28
ENDBRANCH  25  27
ENDBRANCH  24  26
ENDBRANCH   1  24
TORSDOF 14
ENDMDL
MODEL 7
REMARK VINA RESULT:      -6.8      2.821      6.483
REMARK  Name = 
REMARK  14 active torsions:
REMARK  status: ('A' for Active; 'I' for Inactive)
REMARK    1  A    between atoms: C_2  and  O_4
REMARK    2  A    between atoms: O_4  and  C_5
REMARK    3  A    between atoms: C_5  and  C_7
REMARK    4  A    between atoms: C_7  and  C_8
REMARK    5  A    between atoms: C_8  and  C_9
REMARK    6  A    between atoms: C_9  and  C_10
REMARK    7  A    between atoms: C_11  and  C_12
REMARK    8  A    between atoms: C_12  and  C_13
REMARK    9  A    between atoms: C_14  and  C_15
REMARK   10  A    between atoms: C_16  and  C_17
REMARK   11  A    between atoms: C_17  and  C_19
REMARK   12  A    between atoms: C_19  and  O_20
REMARK   13  A    between atoms: O_20  and  C_21
REMARK   14  A    between atoms: C_25  and  C_26
REMARK                            x       y       z     vdW  Elec       q    Type
REMARK                         _______ _______ _______ _____ _____    ______ ____
ROOT
ATOM      1  C   UNL     1      -8.730  16.914  67.512  0.00  0.00    +0.041 C 
ATOM      2  C   UNL     1      -8.537  18.236  66.458  0.00  0.00    +0.155 C 
ATOM      3  O   UNL     1      -9.945  18.235  65.871  0.00  0.00    -0.223 OA
ATOM      4  C   UNL     1      -8.733  19.212  67.726  0.00  0.00    +0.066 C 
ATOM      5  C   UNL     1     -10.121  18.819  68.424  0.00  0.00    +0.159 C 
ATOM      6  O   UNL     1     -10.948  19.531  67.355  0.00  0.00    -0.223 OA
ATOM      7  C   UNL     1     -10.326  17.255  67.791  0.00  0.00    +0.055 C 
ENDROOT
BRANCH   7   8
ATOM      8  C   UNL     1     -10.217  16.691  69.279  0.00  0.00    -0.026 C 
ATOM      9  C   UNL     1     -10.416  15.508  69.582  0.00  0.00    +0.005 C 
BRANCH   9  10
ATOM     10  C   UNL     1     -11.377  15.024  70.799  0.00  0.00    +0.217 C 
ATOM     11  O   UNL     1     -12.275  16.261  70.784  0.00  0.00    -0.214 OA
BRANCH  10  12
ATOM     12  C   UNL     1     -12.309  14.142  69.750  0.00  0.00    +0.243 C 
BRANCH  12  13
ATOM     13  O   UNL     1     -12.477  12.905  70.166  0.00  0.00    -0.472 OA
BRANCH  13  14
ATOM     14  C   UNL     1     -11.911  11.701  70.243  0.00  0.00    +0.139 A 
ATOM     15  C   UNL     1     -12.453  10.744  71.098  0.00  0.00    +0.041 A 
ATOM     16  C   UNL     1     -11.957   9.452  71.098  0.00  0.00    +0.074 A 
ATOM     17  C   UNL     1     -10.860   9.179  70.332  0.00  0.00    +0.004 A 
ATOM     18  C   UNL     1     -10.372  10.092  69.402  0.00  0.00    +0.003 A 
ATOM     19  C   UNL     1     -11.158  11.211  69.198  0.00  0.00    +0.037 A 
BRANCH  16  20
ATOM     20  C   UNL     1     -12.601   8.520  72.055  0.00  0.00    +0.419 C 
ATOM     21  F   UNL     1     -13.131   7.427  71.403  0.00  0.00    -0.166 F 
ATOM     22  F   UNL     1     -13.587   9.105  72.811  0.00  0.00    -0.166 F 
ATOM     23  F   UNL     1     -11.608   8.057  72.888  0.00  0.00    -0.166 F 
ENDBRANCH  16  20
ENDBRANCH  13  14
ENDBRANCH  12  13
ENDBRANCH  10  12
ENDBRANCH   9  10
ENDBRANCH   7   8
BRANCH   1  24
ATOM     24  C   UNL     1      -9.046  16.001  66.219  0.00  0.00    +0.029 C 
BRANCH  24  26
ATOM     25  C   UNL     1     -10.066  13.878  66.164  0.00  0.00    -0.031 C 
ATOM     26  C   UNL     1      -9.019  14.598  66.587  0.00  0.00    -0.031 C 
BRANCH  25  27
ATOM     27  C   UNL     1     -11.222  14.676  65.641  0.00  0.00    +0.026 C 
BRANCH  27  28
ATOM     28  C   UNL     1     -12.415  13.727  65.728  0.00  0.00    +0.016 C 
BRANCH  28  29
ATOM     29  C   UNL     1     -11.829  12.342  65.446  0.00  0.00    +0.110 C 
BRANCH  29  30
ATOM     30  C   UNL     1     -11.874  12.200  63.966  0.00  0.00    +0.317 C 
ATOM     31  O   UNL     1     -12.977  12.038  63.406  0.00  0.00    -0.250 OA
BRANCH  30  32
ATOM     32  O   UNL     1     -10.721  11.953  63.248  0.00  0.00    -0.452 OA
BRANCH  32  34
ATOM     33  C   UNL     1      -9.894  10.683  63.663  0.00  0.00    +0.047 C 
ATOM     34  C   UNL     1      -9.930  10.814  63.537  0.00  0.00    +0.169 C 
ATOM     35  C   UNL     1      -9.452  10.096  62.266  0.00  0.00    +0.047 C 
ENDBRANCH  32  34
ENDBRANCH  30  32
ENDBRANCH  29  30
ENDBRANCH  28  29
ENDBRANCH  27  28
ENDBRANCH  25  27
ENDBRANCH  24  26
ENDBRANCH   1  24
TORSDOF 14
ENDMDL
MODEL 8
REMARK VINA RESULT:      -6.8      3.268      5.456
REMARK  Name = 
REMARK  14 active torsions:
REMARK  status: ('A' for Active; 'I' for Inactive)
REMARK    1  A    between atoms: C_2  and  O_4
REMARK    2  A    between atoms: O_4  and  C_5
REMARK    3  A    between atoms: C_5  and  C_7
REMARK    4  A    between atoms: C_7  and  C_8
REMARK    5  A    between atoms: C_8  and  C_9
REMARK    6  A    between atoms: C_9  and  C_10
REMARK    7  A    between atoms: C_11  and  C_12
REMARK    8  A    between atoms: C_12  and  C_13
REMARK    9  A    between atoms: C_14  and  C_15
REMARK   10  A    between atoms: C_16  and  C_17
REMARK   11  A    between atoms: C_17  and  C_19
REMARK   12  A    between atoms: C_19  and  O_20
REMARK   13  A    between atoms: O_20  and  C_21
REMARK   14  A    between atoms: C_25  and  C_26
REMARK                            x       y       z     vdW  Elec       q    Type
REMARK                         _______ _______ _______ _____ _____    ______ ____
ROOT
ATOM      1  C   UNL     1     -10.655  12.312  66.785  0.00  0.00    +0.041 C 
ATOM      2  C   UNL     1     -11.972  12.719  65.788  0.00  0.00    +0.155 C 
ATOM      3  O   UNL     1     -12.368  14.012  66.493  0.00  0.00    -0.223 OA
ATOM      4  C   UNL     1     -10.915  13.271  64.703  0.00  0.00    +0.066 C 
ATOM      5  C   UNL     1      -9.986  14.348  65.443  0.00  0.00    +0.159 C 
ATOM      6  O   UNL     1     -11.067  15.425  65.398  0.00  0.00    -0.223 OA
ATOM      7  C   UNL     1     -10.257  13.895  67.058  0.00  0.00    +0.055 C 
ENDROOT
BRANCH   7   8
ATOM      8  C   UNL     1      -8.710  13.519  67.162  0.00  0.00    -0.026 C 
ATOM      9  C   UNL     1      -8.129  13.282  68.229  0.00  0.00    +0.005 C 
BRANCH   9  10
ATOM     10  C   UNL     1      -6.718  13.950  68.671  0.00  0.00    +0.217 C 
ATOM     11  O   UNL     1      -6.439  14.621  67.326  0.00  0.00    -0.214 OA
BRANCH  10  12
ATOM     12  C   UNL     1      -7.508  15.249  69.333  0.00  0.00    +0.243 C 
BRANCH  12  13
ATOM     13  O   UNL     1      -6.918  16.386  69.032  0.00  0.00    -0.472 OA
BRANCH  13  14
ATOM     14  C   UNL     1      -7.109  17.610  68.542  0.00  0.00    +0.139 A 
ATOM     15  C   UNL     1      -8.408  18.089  68.383  0.00  0.00    +0.041 A 
ATOM     16  C   UNL     1      -8.622  19.400  67.996  0.00  0.00    +0.074 A 
ATOM     17  C   UNL     1      -7.539  20.164  67.667  0.00  0.00    +0.004 A 
ATOM     18  C   UNL     1      -6.239  19.735  67.916  0.00  0.00    +0.003 A 
ATOM     19  C   UNL     1      -6.128  18.571  68.654  0.00  0.00    +0.037 A 
BRANCH  16  20
ATOM     20  C   UNL     1     -10.042  19.799  67.848  0.00  0.00    +0.419 C 
ATOM     21  F   UNL     1     -10.518  20.382  69.003  0.00  0.00    -0.166 F 
ATOM     22  F   UNL     1     -10.871  18.760  67.503  0.00  0.00    -0.166 F 
ATOM     23  F   UNL     1     -10.084  20.757  66.860  0.00  0.00    -0.166 F 
ENDBRANCH  16  20
ENDBRANCH  13  14
ENDBRANCH  12  13
ENDBRANCH  10  12
ENDBRANCH   9  10
ENDBRANCH   7   8
BRANCH   1  24
ATOM     24  C   UNL     1     -11.685  12.250  68.026  0.00  0.00    +0.029 C 
BRANCH  24  26
ATOM     25  C   UNL     1     -11.839  11.297  70.175  0.00  0.00    -0.031 C 
ATOM     26  C   UNL     1     -11.265  11.229  68.966  0.00  0.00    -0.031 C 
BRANCH  25  27
ATOM     27  C   UNL     1     -12.586  12.566  70.459  0.00  0.00    +0.026 C 
BRANCH  27  28
ATOM     28  C   UNL     1     -13.035  12.431  71.911  0.00  0.00    +0.016 C 
BRANCH  28  29
ATOM     29  C   UNL     1     -13.949  13.635  72.148  0.00  0.00    +0.110 C 
BRANCH  29  30
ATOM     30  C   UNL     1     -13.039  14.727  72.582  0.00  0.00    +0.317 C 
ATOM     31  O   UNL     1     -12.639  14.749  73.764  0.00  0.00    -0.250 OA
BRANCH  30  32
ATOM     32  O   UNL     1     -12.870  15.854  71.803  0.00  0.00    -0.452 OA
BRANCH  32  34
ATOM     33  C   UNL     1     -11.499  16.014  71.050  0.00  0.00    +0.047 C 
ATOM     34  C   UNL     1     -11.684  16.028  71.047  0.00  0.00    +0.169 C 
ATOM     35  C   UNL     1     -11.932  15.915  69.535  0.00  0.00    +0.047 C 
ENDBRANCH  32  34
ENDBRANCH  30  32
ENDBRANCH  29  30
ENDBRANCH  28  29
ENDBRANCH  27  28
ENDBRANCH  25  27
ENDBRANCH  24  26
ENDBRANCH   1  24
TORSDOF 14
ENDMDL
MODEL 9
REMARK VINA RESULT:      -6.8      2.145      6.500
REMARK  Name = 
REMARK  14 active torsions:
REMARK  status: ('A' for Active; 'I' for Inactive)
REMARK    1  A    between atoms: C_2  and  O_4
REMARK    2  A    between atoms: O_4  and  C_5
REMARK    3  A    between atoms: C_5  and  C_7
REMARK    4  A    between atoms: C_7  and  C_8
REMARK    5  A    between atoms: C_8  and  C_9
REMARK    6  A    between atoms: C_9  and  C_10
REMARK    7  A    between atoms: C_11  and  C_12
REMARK    8  A    between atoms: C_12  and  C_13
REMARK    9  A    between atoms: C_14  and  C_15
REMARK   10  A    between atoms: C_16  and  C_17
REMARK   11  A    between atoms: C_17  and  C_19
REMARK   12  A    between atoms: C_19  and  O_20
REMARK   13  A    between atoms: O_20  and  C_21
REMARK   14  A    between atoms: C_25  and  C_26
REMARK                            x       y       z     vdW  Elec       q    Type
REMARK                         _______ _______ _______ _____ _____    ______ ____
ROOT
ATOM      1  C   UNL     1     -10.741  13.221  66.390  0.00  0.00    +0.041 C 
ATOM      2  C   UNL     1     -11.559  14.680  66.081  0.00  0.00    +0.155 C 
ATOM      3  O   UNL     1     -10.990  14.939  64.689  0.00  0.00    -0.223 OA
ATOM      4  C   UNL     1     -12.868  13.812  65.721  0.00  0.00    +0.066 C 
ATOM      5  C   UNL     1     -12.451  12.761  64.586  0.00  0.00    +0.159 C 
ATOM      6  O   UNL     1     -12.473  13.822  63.488  0.00  0.00    -0.223 OA
ATOM      7  C   UNL     1     -10.765  12.765  64.799  0.00  0.00    +0.055 C 
ENDROOT
BRANCH   7   8
ATOM      8  C   UNL     1     -10.862  11.227  65.211  0.00  0.00    -0.026 C 
ATOM      9  C   UNL     1     -10.649  10.806  66.356  0.00  0.00    +0.005 C 
BRANCH   9  10
ATOM     10  C   UNL     1      -9.678   9.552  66.703  0.00  0.00    +0.217 C 
ATOM     11  O   UNL     1      -8.550  10.393  67.300  0.00  0.00    -0.214 OA
BRANCH  10  12
ATOM     12  C   UNL     1     -10.466   9.304  68.140  0.00  0.00    +0.243 C 
BRANCH  12  13
ATOM     13  O   UNL     1     -10.786  10.438  68.725  0.00  0.00    -0.472 OA
BRANCH  13  14
ATOM     14  C   UNL     1     -11.475  10.986  69.726  0.00  0.00    +0.139 A 
ATOM     15  C   UNL     1     -11.654  12.367  69.758  0.00  0.00    +0.041 A 
ATOM     16  C   UNL     1     -12.470  12.939  70.718  0.00  0.00    +0.074 A 
ATOM     17  C   UNL     1     -12.992  12.133  71.688  0.00  0.00    +0.004 A 
ATOM     18  C   UNL     1     -12.906  10.747  71.612  0.00  0.00    +0.003 A 
ATOM     19  C   UNL     1     -12.404  10.247  70.425  0.00  0.00    +0.037 A 
BRANCH  16  20
ATOM     20  C   UNL     1     -12.581  14.417  70.665  0.00  0.00    +0.419 C 
ATOM     21  F   UNL     1     -13.787  14.844  71.177  0.00  0.00    -0.166 F 
ATOM     22  F   UNL     1     -12.428  14.933  69.402  0.00  0.00    -0.166 F 
ATOM     23  F   UNL     1     -11.590  14.918  71.479  0.00  0.00    -0.166 F 
ENDBRANCH  16  20
ENDBRANCH  13  14
ENDBRANCH  12  13
ENDBRANCH  10  12
ENDBRANCH   9  10
ENDBRANCH   7   8
BRANCH   1  24
ATOM     24  C   UNL     1      -9.353  14.032  66.243  0.00  0.00    +0.029 C 
BRANCH  24  26
ATOM     25  C   UNL     1      -8.118  14.597  68.169  0.00  0.00    -0.031 C 
ATOM     26  C   UNL     1      -8.435  13.634  67.293  0.00  0.00    -0.031 C 
BRANCH  25  27
ATOM     27  C   UNL     1      -8.519  15.985  67.767  0.00  0.00    +0.026 C 
BRANCH  27  28
ATOM     28  C   UNL     1      -9.181  16.569  69.012  0.00  0.00    +0.016 C 
BRANCH  28  29
ATOM     29  C   UNL     1     -10.502  17.153  68.511  0.00  0.00    +0.110 C 
BRANCH  29  30
ATOM     30  C   UNL     1     -10.240  18.607  68.344  0.00  0.00    +0.317 C 
ATOM     31  O   UNL     1      -9.579  19.208  69.215  0.00  0.00    -0.250 OA
BRANCH  30  32
ATOM     32  O   UNL     1     -10.948  19.348  67.418  0.00  0.00    -0.452 OA
BRANCH  32  34
ATOM     33  C   UNL     1     -10.405  19.733  65.995  0.00  0.00    +0.047 C 
ATOM     34  C   UNL     1     -10.379  19.643  66.154  0.00  0.00    +0.169 C 
ATOM     35  C   UNL     1      -8.845  19.566  66.171  0.00  0.00    +0.047 C 
ENDBRANCH  32  34
ENDBRANCH  30  32
ENDBRANCH  29  30
ENDBRANCH  28  29
ENDBRANCH  27  28
ENDBRANCH  25  27
ENDBRANCH  24  26
ENDBRANCH   1  24
TORSDOF 14
ENDMDL
