MODEL 1
REMARK VINA RESULT:      -7.6      0.000      0.000
REMARK  Name = 
REMARK  0 active torsions:
REMARK  status: ('A' for Active; 'I' for Inactive)
REMARK                            x       y       z     vdW  Elec       q    Type
REMARK                         _______ _______ _______ _____ _____    ______ ____
ROOT
ATOM      1  C   UNL     1      -6.083  19.869  65.692  0.00  0.00    +0.033 C 
ATOM      2  C   UNL     1      -6.807  20.033  67.024  0.00  0.00    +0.127 C 
ATOM      3  C   UNL     1      -7.889  19.042  67.228  0.00  0.00    +0.026 C 
ATOM      4  C   UNL     1      -6.941  17.754  66.879  0.00  0.00    +0.002 C 
ATOM      5  C   UNL     1      -7.989  16.697  67.693  0.00  0.00    +0.000 C 
ATOM      6  C   UNL     1      -8.951  16.514  66.303  0.00  0.00    +0.000 C 
ATOM      7  C   UNL     1      -9.880  17.799  66.716  0.00  0.00    +0.000 C 
ATOM      8  C   UNL     1      -9.951  15.438  67.010  0.00  0.00    +0.005 C 
ATOM      9  C   UNL     1      -9.155  14.041  66.654  0.00  0.00    +0.008 C 
ATOM     10  C   UNL     1     -10.085  13.160  67.694  0.00  0.00    +0.069 C 
ATOM     11  C   UNL     1     -11.384  13.015  67.009  0.00  0.00    +0.172 C 
ATOM     12  C   UNL     1     -11.906  14.119  66.231  0.00  0.00    +0.055 C 
ATOM     13  C   UNL     1     -12.790  13.814  65.279  0.00  0.00    +0.233 C 
ATOM     14  O   UNL     1     -13.052  12.504  64.887  0.00  0.00    -0.283 OA
ATOM     15  O   UNL     1     -11.949  11.892  67.027  0.00  0.00    -0.292 OA
ATOM     16  C   UNL     1      -8.006  14.285  67.814  0.00  0.00    +0.000 C 
ATOM     17  C   UNL     1     -10.034  15.603  68.430  0.00  0.00    +0.000 C 
ATOM     18  C   UNL     1     -11.214  15.424  66.215  0.00  0.00    +0.033 C 
ATOM     19  C   UNL     1      -7.124  15.391  67.319  0.00  0.00    +0.000 C 
ATOM     20  C   UNL     1      -6.062  18.050  68.225  0.00  0.00    +0.003 C 
ATOM     21  C   UNL     1      -8.203  18.974  68.683  0.00  0.00    +0.002 C 
ATOM     22  C   UNL     1      -9.013  18.989  66.296  0.00  0.00    +0.002 C 
ATOM     23  C   UNL     1      -5.810  19.537  68.073  0.00  0.00    +0.030 C 
ATOM     24  O   UNL     1      -7.139  21.348  67.276  0.00  0.00    -0.226 OA
ENDROOT
TORSDOF 0
ENDMDL
MODEL 2
REMARK VINA RESULT:      -7.4      4.673      8.456
REMARK  Name = 
REMARK  0 active torsions:
REMARK  status: ('A' for Active; 'I' for Inactive)
REMARK                            x       y       z     vdW  Elec       q    Type
REMARK                         _______ _______ _______ _____ _____    ______ ____
ROOT
ATOM      1  C   UNL     1     -11.612   6.572  70.338  0.00  0.00    +0.033 C 
ATOM      2  C   UNL     1     -10.156   7.009  70.204  0.00  0.00    +0.127 C 
ATOM      3  C   UNL     1      -9.964   8.120  69.245  0.00  0.00    +0.026 C 
ATOM      4  C   UNL     1     -11.122   9.062  69.917  0.00  0.00    +0.002 C 
ATOM      5  C   UNL     1     -10.457  10.462  69.224  0.00  0.00    +0.000 C 
ATOM      6  C   UNL     1     -11.329  10.213  67.785  0.00  0.00    +0.000 C 
ATOM      7  C   UNL     1     -10.126   9.296  67.157  0.00  0.00    +0.000 C 
ATOM      8  C   UNL     1     -10.780  11.584  67.094  0.00  0.00    +0.005 C 
ATOM      9  C   UNL     1     -11.928  12.641  67.619  0.00  0.00    +0.008 C 
ATOM     10  C   UNL     1     -11.050  13.950  67.132  0.00  0.00    +0.069 C 
ATOM     11  C   UNL     1     -11.188  13.973  65.662  0.00  0.00    +0.172 C 
ATOM     12  C   UNL     1     -11.209  12.724  64.930  0.00  0.00    +0.055 C 
ATOM     13  C   UNL     1     -11.790  12.745  63.729  0.00  0.00    +0.233 C 
ATOM     14  O   UNL     1     -12.534  13.831  63.272  0.00  0.00    -0.283 OA
ATOM     15  O   UNL     1     -11.400  15.076  65.097  0.00  0.00    -0.292 OA
ATOM     16  C   UNL     1     -11.297  12.724  69.141  0.00  0.00    +0.000 C 
ATOM     17  C   UNL     1      -9.494  11.979  67.584  0.00  0.00    +0.000 C 
ATOM     18  C   UNL     1     -10.972  11.441  65.621  0.00  0.00    +0.033 C 
ATOM     19  C   UNL     1     -11.612  11.420  69.809  0.00  0.00    +0.000 C 
ATOM     20  C   UNL     1     -10.211   9.199  71.267  0.00  0.00    +0.003 C 
ATOM     21  C   UNL     1      -8.653   8.769  69.525  0.00  0.00    +0.002 C 
ATOM     22  C   UNL     1     -10.339   7.945  67.843  0.00  0.00    +0.002 C 
ATOM     23  C   UNL     1      -9.850   7.747  71.510  0.00  0.00    +0.030 C 
ATOM     24  O   UNL     1      -9.303   5.934  70.062  0.00  0.00    -0.226 OA
ENDROOT
TORSDOF 0
ENDMDL
MODEL 3
REMARK VINA RESULT:      -7.1      1.400      6.853
REMARK  Name = 
REMARK  0 active torsions:
REMARK  status: ('A' for Active; 'I' for Inactive)
REMARK                            x       y       z     vdW  Elec       q    Type
REMARK                         _______ _______ _______ _____ _____    ______ ____
ROOT
ATOM      1  C   UNL     1     -11.989  14.056  66.280  0.00  0.00    +0.033 C 
ATOM      2  C   UNL     1     -11.085  13.879  67.495  0.00  0.00    +0.127 C 
ATOM      3  C   UNL     1      -9.948  14.828  67.522  0.00  0.00    +0.026 C 
ATOM      4  C   UNL     1     -10.887  16.149  67.291  0.00  0.00    +0.002 C 
ATOM      5  C   UNL     1      -9.691  17.173  67.925  0.00  0.00    +0.000 C 
ATOM      6  C   UNL     1      -8.937  17.300  66.406  0.00  0.00    +0.000 C 
ATOM      7  C   UNL     1      -8.008  15.983  66.703  0.00  0.00    +0.000 C 
ATOM      8  C   UNL     1      -7.804  18.343  66.940  0.00  0.00    +0.005 C 
ATOM      9  C   UNL     1      -8.590  19.766  66.679  0.00  0.00    +0.008 C 
ATOM     10  C   UNL     1      -7.484  20.622  67.556  0.00  0.00    +0.069 C 
ATOM     11  C   UNL     1      -6.295  20.706  66.686  0.00  0.00    +0.172 C 
ATOM     12  C   UNL     1      -5.935  19.572  65.860  0.00  0.00    +0.055 C 
ATOM     13  C   UNL     1      -5.189  19.829  64.785  0.00  0.00    +0.233 C 
ATOM     14  O   UNL     1      -4.937  21.123  64.335  0.00  0.00    -0.283 OA
ATOM     15  O   UNL     1      -5.691  21.805  66.601  0.00  0.00    -0.292 OA
ATOM     16  C   UNL     1      -9.565  19.583  67.998  0.00  0.00    +0.000 C 
ATOM     17  C   UNL     1      -7.520  18.192  68.335  0.00  0.00    +0.000 C 
ATOM     18  C   UNL     1      -6.672  18.297  65.969  0.00  0.00    +0.033 C 
ATOM     19  C   UNL     1     -10.552  18.508  67.657  0.00  0.00    +0.000 C 
ATOM     20  C   UNL     1     -11.570  15.905  68.756  0.00  0.00    +0.003 C 
ATOM     21  C   UNL     1      -9.422  14.901  68.913  0.00  0.00    +0.002 C 
ATOM     22  C   UNL     1      -8.971  14.825  66.435  0.00  0.00    +0.002 C 
ATOM     23  C   UNL     1     -11.898  14.428  68.669  0.00  0.00    +0.030 C 
ATOM     24  O   UNL     1     -10.770  12.555  67.720  0.00  0.00    -0.226 OA
ENDROOT
TORSDOF 0
ENDMDL
MODEL 4
REMARK VINA RESULT:      -7.1      3.804      7.570
REMARK  Name = 
REMARK  0 active torsions:
REMARK  status: ('A' for Active; 'I' for Inactive)
REMARK                            x       y       z     vdW  Elec       q    Type
REMARK                         _______ _______ _______ _____ _____    ______ ____
ROOT
ATOM      1  C   UNL     1      -6.351   8.582  67.394  0.00  0.00    +0.033 C 
ATOM      2  C   UNL     1      -7.692   8.404  68.099  0.00  0.00    +0.127 C 
ATOM      3  C   UNL     1      -8.640   9.512  67.840  0.00  0.00    +0.026 C 
ATOM      4  C   UNL     1      -8.469   9.441  66.214  0.00  0.00    +0.002 C 
ATOM      5  C   UNL     1      -9.947  10.238  65.971  0.00  0.00    +0.000 C 
ATOM      6  C   UNL     1      -9.195  11.758  66.102  0.00  0.00    +0.000 C 
ATOM      7  C   UNL     1      -9.415  11.783  67.725  0.00  0.00    +0.000 C 
ATOM      8  C   UNL     1     -10.572  12.580  65.803  0.00  0.00    +0.005 C 
ATOM      9  C   UNL     1     -10.492  12.670  64.161  0.00  0.00    +0.008 C 
ATOM     10  C   UNL     1     -12.053  13.195  64.042  0.00  0.00    +0.069 C 
ATOM     11  C   UNL     1     -12.012  14.604  64.480  0.00  0.00    +0.172 C 
ATOM     12  C   UNL     1     -11.135  14.987  65.567  0.00  0.00    +0.055 C 
ATOM     13  C   UNL     1     -10.772  16.270  65.618  0.00  0.00    +0.233 C 
ATOM     14  O   UNL     1     -11.026  17.166  64.583  0.00  0.00    -0.283 OA
ATOM     15  O   UNL     1     -12.657  15.456  63.818  0.00  0.00    -0.292 OA
ATOM     16  C   UNL     1     -10.955  11.100  63.954  0.00  0.00    +0.000 C 
ATOM     17  C   UNL     1     -11.746  11.861  66.195  0.00  0.00    +0.000 C 
ATOM     18  C   UNL     1     -10.375  13.967  66.318  0.00  0.00    +0.033 C 
ATOM     19  C   UNL     1      -9.792  10.251  64.369  0.00  0.00    +0.000 C 
ATOM     20  C   UNL     1      -9.172   7.965  66.216  0.00  0.00    +0.003 C 
ATOM     21  C   UNL     1     -10.018   9.043  68.157  0.00  0.00    +0.002 C 
ATOM     22  C   UNL     1      -8.290  10.877  68.230  0.00  0.00    +0.002 C 
ATOM     23  C   UNL     1      -8.394   7.286  67.325  0.00  0.00    +0.030 C 
ATOM     24  O   UNL     1      -7.539   8.037  69.420  0.00  0.00    -0.226 OA
ENDROOT
TORSDOF 0
ENDMDL
MODEL 5
REMARK VINA RESULT:      -7.1      1.656      2.953
REMARK  Name = 
REMARK  0 active torsions:
REMARK  status: ('A' for Active; 'I' for Inactive)
REMARK                            x       y       z     vdW  Elec       q    Type
REMARK                         _______ _______ _______ _____ _____    ______ ____
ROOT
ATOM      1  C   UNL     1      -7.099  19.353  67.975  0.00  0.00    +0.033 C 
ATOM      2  C   UNL     1      -8.211  19.409  66.932  0.00  0.00    +0.127 C 
ATOM      3  C   UNL     1      -8.866  18.101  66.703  0.00  0.00    +0.026 C 
ATOM      4  C   UNL     1      -9.144  17.826  68.292  0.00  0.00    +0.002 C 
ATOM      5  C   UNL     1     -10.370  16.707  67.936  0.00  0.00    +0.000 C 
ATOM      6  C   UNL     1      -9.236  15.447  67.796  0.00  0.00    +0.000 C 
ATOM      7  C   UNL     1      -9.015  15.756  66.202  0.00  0.00    +0.000 C 
ATOM      8  C   UNL     1     -10.374  14.313  67.520  0.00  0.00    +0.005 C 
ATOM      9  C   UNL     1     -10.700  13.861  69.069  0.00  0.00    +0.008 C 
ATOM     10  C   UNL     1     -12.042  13.013  68.617  0.00  0.00    +0.069 C 
ATOM     11  C   UNL     1     -11.518  11.784  67.989  0.00  0.00    +0.172 C 
ATOM     12  C   UNL     1     -10.322  11.854  67.176  0.00  0.00    +0.055 C 
ATOM     13  C   UNL     1      -9.632  10.722  67.029  0.00  0.00    +0.233 C 
ATOM     14  O   UNL     1      -9.898   9.576  67.775  0.00  0.00    -0.283 OA
ATOM     15  O   UNL     1     -12.063  10.688  68.272  0.00  0.00    -0.292 OA
ATOM     16  C   UNL     1     -11.599  15.210  69.378  0.00  0.00    +0.000 C 
ATOM     17  C   UNL     1     -11.555  14.846  66.909  0.00  0.00    +0.000 C 
ATOM     18  C   UNL     1      -9.692  13.155  66.871  0.00  0.00    +0.033 C 
ATOM     19  C   UNL     1     -10.635  16.354  69.484  0.00  0.00    +0.000 C 
ATOM     20  C   UNL     1     -10.187  19.084  68.315  0.00  0.00    +0.003 C 
ATOM     21  C   UNL     1     -10.188  18.337  66.060  0.00  0.00    +0.002 C 
ATOM     22  C   UNL     1      -8.079  16.967  66.222  0.00  0.00    +0.002 C 
ATOM     23  C   UNL     1      -9.358  20.147  67.625  0.00  0.00    +0.030 C 
ATOM     24  O   UNL     1      -7.826  20.097  65.800  0.00  0.00    -0.226 OA
ENDROOT
TORSDOF 0
ENDMDL
MODEL 6
REMARK VINA RESULT:      -6.9      1.466      6.932
REMARK  Name = 
REMARK  0 active torsions:
REMARK  status: ('A' for Active; 'I' for Inactive)
REMARK                            x       y       z     vdW  Elec       q    Type
REMARK                         _______ _______ _______ _____ _____    ______ ____
ROOT
ATOM      1  C   UNL     1     -10.391  11.888  64.971  0.00  0.00    +0.033 C 
ATOM      2  C   UNL     1     -11.237  12.213  66.199  0.00  0.00    +0.127 C 
ATOM      3  C   UNL     1     -10.668  13.300  67.030  0.00  0.00    +0.026 C 
ATOM      4  C   UNL     1     -10.485  14.331  65.771  0.00  0.00    +0.002 C 
ATOM      5  C   UNL     1     -10.436  15.672  66.811  0.00  0.00    +0.000 C 
ATOM      6  C   UNL     1      -8.763  15.478  67.049  0.00  0.00    +0.000 C 
ATOM      7  C   UNL     1      -9.010  14.468  68.315  0.00  0.00    +0.000 C 
ATOM      8  C   UNL     1      -8.639  16.798  67.997  0.00  0.00    +0.005 C 
ATOM      9  C   UNL     1      -8.354  17.942  66.848  0.00  0.00    +0.008 C 
ATOM     10  C   UNL     1      -8.595  19.178  67.914  0.00  0.00    +0.069 C 
ATOM     11  C   UNL     1      -7.379  19.200  68.750  0.00  0.00    +0.172 C 
ATOM     12  C   UNL     1      -6.750  17.950  69.125  0.00  0.00    +0.055 C 
ATOM     13  C   UNL     1      -5.457  18.005  69.449  0.00  0.00    +0.233 C 
ATOM     14  O   UNL     1      -4.677  19.139  69.240  0.00  0.00    -0.283 OA
ATOM     15  O   UNL     1      -6.855  20.311  69.018  0.00  0.00    -0.292 OA
ATOM     16  C   UNL     1      -9.930  17.990  66.363  0.00  0.00    +0.000 C 
ATOM     17  C   UNL     1      -9.854  17.100  68.693  0.00  0.00    +0.000 C 
ATOM     18  C   UNL     1      -7.379  16.658  68.783  0.00  0.00    +0.033 C 
ATOM     19  C   UNL     1     -10.188  16.718  65.612  0.00  0.00    +0.000 C 
ATOM     20  C   UNL     1     -12.110  14.410  65.614  0.00  0.00    +0.003 C 
ATOM     21  C   UNL     1     -11.748  13.851  67.895  0.00  0.00    +0.002 C 
ATOM     22  C   UNL     1      -9.344  13.142  67.628  0.00  0.00    +0.002 C 
ATOM     23  C   UNL     1     -12.466  12.938  65.644  0.00  0.00    +0.030 C 
ATOM     24  O   UNL     1     -11.627  11.077  66.876  0.00  0.00    -0.226 OA
ENDROOT
TORSDOF 0
ENDMDL
MODEL 7
REMARK VINA RESULT:      -6.9      1.941      3.665
REMARK  Name = 
REMARK  0 active torsions:
REMARK  status: ('A' for Active; 'I' for Inactive)
REMARK                            x       y       z     vdW  Elec       q    Type
REMARK                         _______ _______ _______ _____ _____    ______ ____
ROOT
ATOM      1  C   UNL     1      -5.587  19.901  71.589  0.00  0.00    +0.033 C 
ATOM      2  C   UNL     1      -4.764  19.552  70.353  0.00  0.00    +0.127 C 
ATOM      3  C   UNL     1      -5.459  18.626  69.429  0.00  0.00    +0.026 C 
ATOM      4  C   UNL     1      -6.828  19.521  69.369  0.00  0.00    +0.002 C 
ATOM      5  C   UNL     1      -7.299  18.795  67.909  0.00  0.00    +0.000 C 
ATOM      6  C   UNL     1      -8.037  17.508  68.740  0.00  0.00    +0.000 C 
ATOM      7  C   UNL     1      -6.642  16.649  68.750  0.00  0.00    +0.000 C 
ATOM      8  C   UNL     1      -8.579  16.800  67.374  0.00  0.00    +0.005 C 
ATOM      9  C   UNL     1     -10.035  17.553  67.227  0.00  0.00    +0.008 C 
ATOM     10  C   UNL     1     -10.254  16.990  65.692  0.00  0.00    +0.069 C 
ATOM     11  C   UNL     1     -10.603  15.566  65.857  0.00  0.00    +0.172 C 
ATOM     12  C   UNL     1      -9.955  14.790  66.894  0.00  0.00    +0.055 C 
ATOM     13  C   UNL     1     -10.602  13.703  67.318  0.00  0.00    +0.233 C 
ATOM     14  O   UNL     1     -11.919  13.423  66.963  0.00  0.00    -0.283 OA
ATOM     15  O   UNL     1     -11.541  15.095  65.166  0.00  0.00    -0.292 OA
ATOM     16  C   UNL     1      -9.365  18.954  66.669  0.00  0.00    +0.000 C 
ATOM     17  C   UNL     1      -7.763  17.091  66.234  0.00  0.00    +0.000 C 
ATOM     18  C   UNL     1      -8.867  15.373  67.703  0.00  0.00    +0.033 C 
ATOM     19  C   UNL     1      -8.690  19.604  67.839  0.00  0.00    +0.000 C 
ATOM     20  C   UNL     1      -6.005  20.709  68.606  0.00  0.00    +0.003 C 
ATOM     21  C   UNL     1      -4.815  18.719  68.090  0.00  0.00    +0.002 C 
ATOM     22  C   UNL     1      -5.857  17.298  69.892  0.00  0.00    +0.002 C 
ATOM     23  C   UNL     1      -4.786  20.823  69.500  0.00  0.00    +0.030 C 
ATOM     24  O   UNL     1      -3.463  19.223  70.671  0.00  0.00    -0.226 OA
ENDROOT
TORSDOF 0
ENDMDL
MODEL 8
REMARK VINA RESULT:      -6.7      4.428      7.187
REMARK  Name = 
REMARK  0 active torsions:
REMARK  status: ('A' for Active; 'I' for Inactive)
REMARK                            x       y       z     vdW  Elec       q    Type
REMARK                         _______ _______ _______ _____ _____    ______ ____
ROOT
ATOM      1  C   UNL     1     -12.812  13.672  65.375  0.00  0.00    +0.033 C 
ATOM      2  C   UNL     1     -11.434  14.079  65.888  0.00  0.00    +0.127 C 
ATOM      3  C   UNL     1     -10.936  13.208  66.978  0.00  0.00    +0.026 C 
ATOM      4  C   UNL     1     -11.211  11.819  66.159  0.00  0.00    +0.002 C 
ATOM      5  C   UNL     1     -10.109  10.968  67.130  0.00  0.00    +0.000 C 
ATOM      6  C   UNL     1     -11.312  10.658  68.292  0.00  0.00    +0.000 C 
ATOM      7  C   UNL     1     -10.977  12.053  69.084  0.00  0.00    +0.000 C 
ATOM      8  C   UNL     1     -10.320   9.769  69.233  0.00  0.00    +0.005 C 
ATOM      9  C   UNL     1     -10.563   8.282  68.570  0.00  0.00    +0.008 C 
ATOM     10  C   UNL     1      -9.284   7.630  69.384  0.00  0.00    +0.069 C 
ATOM     11  C   UNL     1      -9.755   7.482  70.774  0.00  0.00    +0.172 C 
ATOM     12  C   UNL     1     -10.615   8.498  71.346  0.00  0.00    +0.055 C 
ATOM     13  C   UNL     1     -11.379   8.125  72.373  0.00  0.00    +0.233 C 
ATOM     14  O   UNL     1     -11.527   6.794  72.757  0.00  0.00    -0.283 OA
ATOM     15  O   UNL     1      -9.490   6.418  71.387  0.00  0.00    -0.292 OA
ATOM     16  C   UNL     1      -9.621   8.606  67.254  0.00  0.00    +0.000 C 
ATOM     17  C   UNL     1      -8.944  10.143  69.100  0.00  0.00    +0.000 C 
ATOM     18  C   UNL     1     -10.924   9.733  70.597  0.00  0.00    +0.033 C 
ATOM     19  C   UNL     1     -10.395   9.563  66.397  0.00  0.00    +0.000 C 
ATOM     20  C   UNL     1     -10.058  12.240  65.080  0.00  0.00    +0.003 C 
ATOM     21  C   UNL     1      -9.459  13.373  67.081  0.00  0.00    +0.002 C 
ATOM     22  C   UNL     1     -11.687  13.103  68.228  0.00  0.00    +0.002 C 
ATOM     23  C   UNL     1     -10.467  13.667  64.776  0.00  0.00    +0.030 C 
ATOM     24  O   UNL     1     -11.343  15.437  66.111  0.00  0.00    -0.226 OA
ENDROOT
TORSDOF 0
ENDMDL
MODEL 9
REMARK VINA RESULT:      -6.6      2.569      3.488
REMARK  Name = 
REMARK  0 active torsions:
REMARK  status: ('A' for Active; 'I' for Inactive)
REMARK                            x       y       z     vdW  Elec       q    Type
REMARK                         _______ _______ _______ _____ _____    ______ ____
ROOT
ATOM      1  C   UNL     1      -9.321  20.032  65.797  0.00  0.00    +0.033 C 
ATOM      2  C   UNL     1      -8.223  19.544  66.738  0.00  0.00    +0.127 C 
ATOM      3  C   UNL     1      -8.712  18.598  67.767  0.00  0.00    +0.026 C 
ATOM      4  C   UNL     1      -9.463  17.623  66.687  0.00  0.00    +0.002 C 
ATOM      5  C   UNL     1      -9.453  16.322  67.778  0.00  0.00    +0.000 C 
ATOM      6  C   UNL     1     -10.905  16.852  68.487  0.00  0.00    +0.000 C 
ATOM      7  C   UNL     1     -10.097  17.793  69.557  0.00  0.00    +0.000 C 
ATOM      8  C   UNL     1     -10.988  15.587  69.511  0.00  0.00    +0.005 C 
ATOM      9  C   UNL     1     -11.823  14.522  68.573  0.00  0.00    +0.008 C 
ATOM     10  C   UNL     1     -11.514  13.265  69.596  0.00  0.00    +0.069 C 
ATOM     11  C   UNL     1     -12.401  13.493  70.754  0.00  0.00    +0.172 C 
ATOM     12  C   UNL     1     -12.633  14.845  71.218  0.00  0.00    +0.055 C 
ATOM     13  C   UNL     1     -13.753  15.054  71.912  0.00  0.00    +0.233 C 
ATOM     14  O   UNL     1     -14.764  14.102  72.016  0.00  0.00    -0.283 OA
ATOM     15  O   UNL     1     -13.023  12.512  71.234  0.00  0.00    -0.292 OA
ATOM     16  C   UNL     1     -10.507  14.154  67.647  0.00  0.00    +0.000 C 
ATOM     17  C   UNL     1      -9.703  15.046  69.835  0.00  0.00    +0.000 C 
ATOM     18  C   UNL     1     -11.900  15.982  70.624  0.00  0.00    +0.033 C 
ATOM     19  C   UNL     1     -10.248  15.346  66.775  0.00  0.00    +0.000 C 
ATOM     20  C   UNL     1      -8.009  17.215  66.062  0.00  0.00    +0.003 C 
ATOM     21  C   UNL     1      -7.549  17.841  68.307  0.00  0.00    +0.002 C 
ATOM     22  C   UNL     1      -9.737  19.022  68.719  0.00  0.00    +0.002 C 
ATOM     23  C   UNL     1      -7.383  18.585  65.892  0.00  0.00    +0.030 C 
ATOM     24  O   UNL     1      -7.435  20.579  67.196  0.00  0.00    -0.226 OA
ENDROOT
TORSDOF 0
ENDMDL
