MODEL 1
REMARK VINA RESULT:      -5.2      0.000      0.000
REMARK  Name = 
REMARK  2 active torsions:
REMARK  status: ('A' for Active; 'I' for Inactive)
REMARK    1  A    between atoms: C_2  and  C_3
REMARK    2  A    between atoms: C_5  and  C_7
REMARK                            x       y       z     vdW  Elec       q    Type
REMARK                         _______ _______ _______ _____ _____    ______ ____
ROOT
ATOM      1  C   UNL     1     -10.309  14.845  65.036  0.00  0.00    +0.184 C 
ATOM      2  C   UNL     1     -10.820  14.271  66.560  0.00  0.00    +0.217 C 
ATOM      3  O   UNL     1      -9.423  13.894  66.937  0.00  0.00    -0.218 OA
ATOM      4  C   UNL     1     -11.050  12.766  65.782  0.00  0.00    +0.241 C 
ATOM      5  O   UNL     1     -12.109  12.365  66.782  0.00  0.00    -0.215 OA
ATOM      6  C   UNL     1     -12.069  13.435  64.711  0.00  0.00    +0.281 C 
ATOM      7  O   UNL     1     -13.353  13.298  65.072  0.00  0.00    -0.190 OA
ATOM      8  O   UNL     1     -11.714  14.688  64.541  0.00  0.00    -0.325 OA
ENDROOT
BRANCH   1  10
ATOM      9  O   UNL     1     -11.160  16.911  64.382  0.00  0.00    -0.218 OA
ATOM     10  C   UNL     1     -10.587  16.406  65.463  0.00  0.00    +0.214 C 
ENDBRANCH   1  10
BRANCH   6  11
ATOM     11  C   UNL     1     -11.806  12.589  63.485  0.00  0.00    +0.243 C 
ATOM     12  O   UNL     1     -12.935  11.854  63.168  0.00  0.00    -0.215 OA
ENDBRANCH   6  11
TORSDOF 2
ENDMDL
MODEL 2
REMARK VINA RESULT:      -4.9      1.855      3.707
REMARK  Name = 
REMARK  2 active torsions:
REMARK  status: ('A' for Active; 'I' for Inactive)
REMARK    1  A    between atoms: C_2  and  C_3
REMARK    2  A    between atoms: C_5  and  C_7
REMARK                            x       y       z     vdW  Elec       q    Type
REMARK                         _______ _______ _______ _____ _____    ______ ____
ROOT
ATOM      1  C   UNL     1     -10.766  11.976  66.764  0.00  0.00    +0.184 C 
ATOM      2  C   UNL     1     -10.535  11.053  65.347  0.00  0.00    +0.217 C 
ATOM      3  O   UNL     1      -9.056  11.270  65.393  0.00  0.00    -0.218 OA
ATOM      4  C   UNL     1     -10.756  12.520  64.499  0.00  0.00    +0.241 C 
ATOM      5  O   UNL     1     -11.254  11.785  63.276  0.00  0.00    -0.215 OA
ATOM      6  C   UNL     1     -12.215  12.734  65.177  0.00  0.00    +0.281 C 
ATOM      7  O   UNL     1     -13.211  12.284  64.400  0.00  0.00    -0.190 OA
ATOM      8  O   UNL     1     -12.196  12.173  66.365  0.00  0.00    -0.325 OA
ENDROOT
BRANCH   1  10
ATOM      9  O   UNL     1     -12.190  11.046  68.354  0.00  0.00    -0.218 OA
ATOM     10  C   UNL     1     -11.149  10.644  67.644  0.00  0.00    +0.214 C 
ENDBRANCH   1  10
BRANCH   6  11
ATOM     11  C   UNL     1     -12.288  14.243  65.252  0.00  0.00    +0.243 C 
ATOM     12  O   UNL     1     -12.627  14.761  64.015  0.00  0.00    -0.215 OA
ENDBRANCH   6  11
TORSDOF 2
ENDMDL
MODEL 3
REMARK VINA RESULT:      -4.8      1.686      3.765
REMARK  Name = 
REMARK  2 active torsions:
REMARK  status: ('A' for Active; 'I' for Inactive)
REMARK    1  A    between atoms: C_2  and  C_3
REMARK    2  A    between atoms: C_5  and  C_7
REMARK                            x       y       z     vdW  Elec       q    Type
REMARK                         _______ _______ _______ _____ _____    ______ ____
ROOT
ATOM      1  C   UNL     1     -10.555  12.850  64.210  0.00  0.00    +0.184 C 
ATOM      2  C   UNL     1     -12.182  12.577  64.649  0.00  0.00    +0.217 C 
ATOM      3  O   UNL     1     -12.578  12.368  63.223  0.00  0.00    -0.218 OA
ATOM      4  C   UNL     1     -12.383  14.267  64.491  0.00  0.00    +0.241 C 
ATOM      5  O   UNL     1     -13.527  14.264  65.477  0.00  0.00    -0.215 OA
ATOM      6  C   UNL     1     -11.215  14.545  65.584  0.00  0.00    +0.281 C 
ATOM      7  O   UNL     1     -11.704  14.732  66.818  0.00  0.00    -0.190 OA
ATOM      8  O   UNL     1     -10.354  13.555  65.517  0.00  0.00    -0.325 OA
ENDROOT
BRANCH   1  10
ATOM      9  O   UNL     1      -9.257  10.937  63.938  0.00  0.00    -0.218 OA
ATOM     10  C   UNL     1     -10.075  11.420  64.858  0.00  0.00    +0.214 C 
ENDBRANCH   1  10
BRANCH   6  11
ATOM     11  C   UNL     1     -10.639  15.848  65.075  0.00  0.00    +0.243 C 
ATOM     12  O   UNL     1     -11.493  16.410  64.144  0.00  0.00    -0.215 OA
ENDBRANCH   6  11
TORSDOF 2
ENDMDL
MODEL 4
REMARK VINA RESULT:      -4.8      1.531      3.356
REMARK  Name = 
REMARK  2 active torsions:
REMARK  status: ('A' for Active; 'I' for Inactive)
REMARK    1  A    between atoms: C_2  and  C_3
REMARK    2  A    between atoms: C_5  and  C_7
REMARK                            x       y       z     vdW  Elec       q    Type
REMARK                         _______ _______ _______ _____ _____    ______ ____
ROOT
ATOM      1  C   UNL     1     -10.806  13.033  66.560  0.00  0.00    +0.184 C 
ATOM      2  C   UNL     1     -11.613  12.096  65.384  0.00  0.00    +0.217 C 
ATOM      3  O   UNL     1     -10.383  11.289  65.117  0.00  0.00    -0.218 OA
ATOM      4  C   UNL     1     -11.113  13.287  64.265  0.00  0.00    +0.241 C 
ATOM      5  O   UNL     1     -12.282  12.984  63.357  0.00  0.00    -0.215 OA
ATOM      6  C   UNL     1     -11.856  14.451  65.118  0.00  0.00    +0.281 C 
ATOM      7  O   UNL     1     -13.086  14.718  64.656  0.00  0.00    -0.190 OA
ATOM      8  O   UNL     1     -11.847  14.095  66.382  0.00  0.00    -0.325 OA
ENDROOT
BRANCH   1  10
ATOM      9  O   UNL     1     -11.966  13.376  68.549  0.00  0.00    -0.218 OA
ATOM     10  C   UNL     1     -11.656  12.343  67.783  0.00  0.00    +0.214 C 
ENDBRANCH   1  10
BRANCH   6  11
ATOM     11  C   UNL     1     -10.956  15.636  64.845  0.00  0.00    +0.243 C 
ATOM     12  O   UNL     1     -11.578  16.509  63.970  0.00  0.00    -0.215 OA
ENDBRANCH   6  11
TORSDOF 2
ENDMDL
MODEL 5
REMARK VINA RESULT:      -4.7      3.004      4.821
REMARK  Name = 
REMARK  2 active torsions:
REMARK  status: ('A' for Active; 'I' for Inactive)
REMARK    1  A    between atoms: C_2  and  C_3
REMARK    2  A    between atoms: C_5  and  C_7
REMARK                            x       y       z     vdW  Elec       q    Type
REMARK                         _______ _______ _______ _____ _____    ______ ____
ROOT
ATOM      1  C   UNL     1     -11.213  16.865  67.951  0.00  0.00    +0.184 C 
ATOM      2  C   UNL     1      -9.880  17.926  67.844  0.00  0.00    +0.217 C 
ATOM      3  O   UNL     1     -10.774  19.124  67.886  0.00  0.00    -0.218 OA
ATOM      4  C   UNL     1     -10.072  17.803  66.150  0.00  0.00    +0.241 C 
ATOM      5  O   UNL     1      -8.609  18.108  65.922  0.00  0.00    -0.215 OA
ATOM      6  C   UNL     1      -9.904  16.190  66.211  0.00  0.00    +0.281 C 
ATOM      7  O   UNL     1      -8.645  15.797  65.968  0.00  0.00    -0.190 OA
ATOM      8  O   UNL     1     -10.355  15.780  67.375  0.00  0.00    -0.325 OA
ENDROOT
BRANCH   1  10
ATOM      9  O   UNL     1     -11.993  16.147  70.023  0.00  0.00    -0.218 OA
ATOM     10  C   UNL     1     -10.818  16.425  69.482  0.00  0.00    +0.214 C 
ENDBRANCH   1  10
BRANCH   6  11
ATOM     11  C   UNL     1     -10.789  15.757  65.064  0.00  0.00    +0.243 C 
ATOM     12  O   UNL     1     -11.233  16.866  64.366  0.00  0.00    -0.215 OA
ENDBRANCH   6  11
TORSDOF 2
ENDMDL
MODEL 6
REMARK VINA RESULT:      -4.6      1.435      1.787
REMARK  Name = 
REMARK  2 active torsions:
REMARK  status: ('A' for Active; 'I' for Inactive)
REMARK    1  A    between atoms: C_2  and  C_3
REMARK    2  A    between atoms: C_5  and  C_7
REMARK                            x       y       z     vdW  Elec       q    Type
REMARK                         _______ _______ _______ _____ _____    ______ ____
ROOT
ATOM      1  C   UNL     1     -10.474  14.069  66.038  0.00  0.00    +0.184 C 
ATOM      2  C   UNL     1     -12.161  13.919  66.257  0.00  0.00    +0.217 C 
ATOM      3  O   UNL     1     -11.973  13.179  67.543  0.00  0.00    -0.218 OA
ATOM      4  C   UNL     1     -12.026  12.467  65.365  0.00  0.00    +0.241 C 
ATOM      5  O   UNL     1     -13.458  12.575  64.895  0.00  0.00    -0.215 OA
ATOM      6  C   UNL     1     -11.373  13.258  64.107  0.00  0.00    +0.281 C 
ATOM      7  O   UNL     1     -12.285  13.591  63.182  0.00  0.00    -0.190 OA
ATOM      8  O   UNL     1     -10.716  14.294  64.577  0.00  0.00    -0.325 OA
ENDROOT
BRANCH   1  10
ATOM      9  O   UNL     1      -9.711  16.178  65.413  0.00  0.00    -0.218 OA
ATOM     10  C   UNL     1     -10.517  15.682  66.338  0.00  0.00    +0.214 C 
ENDBRANCH   1  10
BRANCH   6  11
ATOM     11  C   UNL     1     -10.453  12.200  63.538  0.00  0.00    +0.243 C 
ATOM     12  O   UNL     1     -10.680  10.989  64.167  0.00  0.00    -0.215 OA
ENDBRANCH   6  11
TORSDOF 2
ENDMDL
MODEL 7
REMARK VINA RESULT:      -4.5      1.988      2.938
REMARK  Name = 
REMARK  2 active torsions:
REMARK  status: ('A' for Active; 'I' for Inactive)
REMARK    1  A    between atoms: C_2  and  C_3
REMARK    2  A    between atoms: C_5  and  C_7
REMARK                            x       y       z     vdW  Elec       q    Type
REMARK                         _______ _______ _______ _____ _____    ______ ____
ROOT
ATOM      1  C   UNL     1     -10.886  14.501  68.010  0.00  0.00    +0.184 C 
ATOM      2  C   UNL     1     -11.722  13.015  67.912  0.00  0.00    +0.217 C 
ATOM      3  O   UNL     1     -10.554  12.270  68.475  0.00  0.00    -0.218 OA
ATOM      4  C   UNL     1     -11.078  12.895  66.333  0.00  0.00    +0.241 C 
ATOM      5  O   UNL     1     -12.232  12.028  65.885  0.00  0.00    -0.215 OA
ATOM      6  C   UNL     1     -11.754  14.309  65.911  0.00  0.00    +0.281 C 
ATOM      7  O   UNL     1     -12.937  14.150  65.302  0.00  0.00    -0.190 OA
ATOM      8  O   UNL     1     -11.826  15.061  66.986  0.00  0.00    -0.325 OA
ENDROOT
BRANCH   1  10
ATOM      9  O   UNL     1     -11.907  16.331  69.024  0.00  0.00    -0.218 OA
ATOM     10  C   UNL     1     -11.840  15.027  69.237  0.00  0.00    +0.214 C 
ENDBRANCH   1  10
BRANCH   6  11
ATOM     11  C   UNL     1     -10.747  14.830  64.909  0.00  0.00    +0.243 C 
ATOM     12  O   UNL     1     -10.963  16.177  64.679  0.00  0.00    -0.215 OA
ENDBRANCH   6  11
TORSDOF 2
ENDMDL
MODEL 8
REMARK VINA RESULT:      -4.4      1.859      2.539
REMARK  Name = 
REMARK  2 active torsions:
REMARK  status: ('A' for Active; 'I' for Inactive)
REMARK    1  A    between atoms: C_2  and  C_3
REMARK    2  A    between atoms: C_5  and  C_7
REMARK                            x       y       z     vdW  Elec       q    Type
REMARK                         _______ _______ _______ _____ _____    ______ ____
ROOT
ATOM      1  C   UNL     1     -10.976  15.340  67.239  0.00  0.00    +0.184 C 
ATOM      2  C   UNL     1      -9.755  14.148  67.309  0.00  0.00    +0.217 C 
ATOM      3  O   UNL     1      -8.774  15.049  66.629  0.00  0.00    -0.218 OA
ATOM      4  C   UNL     1     -10.358  13.614  65.802  0.00  0.00    +0.241 C 
ATOM      5  O   UNL     1      -9.862  12.209  66.056  0.00  0.00    -0.215 OA
ATOM      6  C   UNL     1     -11.837  13.390  66.431  0.00  0.00    +0.281 C 
ATOM      7  O   UNL     1     -12.042  12.123  66.818  0.00  0.00    -0.190 OA
ATOM      8  O   UNL     1     -11.998  14.257  67.406  0.00  0.00    -0.325 OA
ENDROOT
BRANCH   1  10
ATOM      9  O   UNL     1     -12.046  16.222  69.109  0.00  0.00    -0.218 OA
ATOM     10  C   UNL     1     -10.912  15.588  68.861  0.00  0.00    +0.214 C 
ENDBRANCH   1  10
BRANCH   6  11
ATOM     11  C   UNL     1     -12.715  13.693  65.238  0.00  0.00    +0.243 C 
ATOM     12  O   UNL     1     -13.184  12.515  64.685  0.00  0.00    -0.215 OA
ENDBRANCH   6  11
TORSDOF 2
ENDMDL
MODEL 9
REMARK VINA RESULT:      -4.4      3.062      5.637
REMARK  Name = 
REMARK  2 active torsions:
REMARK  status: ('A' for Active; 'I' for Inactive)
REMARK    1  A    between atoms: C_2  and  C_3
REMARK    2  A    between atoms: C_5  and  C_7
REMARK                            x       y       z     vdW  Elec       q    Type
REMARK                         _______ _______ _______ _____ _____    ______ ____
ROOT
ATOM      1  C   UNL     1     -10.500  16.694  66.421  0.00  0.00    +0.184 C 
ATOM      2  C   UNL     1      -8.828  16.349  66.446  0.00  0.00    +0.217 C 
ATOM      3  O   UNL     1      -9.001  15.374  67.567  0.00  0.00    -0.218 OA
ATOM      4  C   UNL     1      -8.699  17.646  67.551  0.00  0.00    +0.241 C 
ATOM      5  O   UNL     1      -7.266  17.903  67.144  0.00  0.00    -0.215 OA
ATOM      6  C   UNL     1      -9.366  18.670  66.483  0.00  0.00    +0.281 C 
ATOM      7  O   UNL     1      -8.447  19.347  65.779  0.00  0.00    -0.190 OA
ATOM      8  O   UNL     1     -10.191  17.984  65.725  0.00  0.00    -0.325 OA
ENDROOT
BRANCH   1  10
ATOM      9  O   UNL     1     -11.349  16.810  64.257  0.00  0.00    -0.218 OA
ATOM     10  C   UNL     1     -10.702  15.918  64.989  0.00  0.00    +0.214 C 
ENDBRANCH   1  10
BRANCH   6  11
ATOM     11  C   UNL     1     -10.089  19.628  67.404  0.00  0.00    +0.243 C 
ATOM     12  O   UNL     1      -9.820  19.308  68.723  0.00  0.00    -0.215 OA
ENDBRANCH   6  11
TORSDOF 2
ENDMDL
