MODEL 1
REMARK VINA RESULT:      -5.5      0.000      0.000
REMARK  Name = 
REMARK  4 active torsions:
REMARK  status: ('A' for Active; 'I' for Inactive)
REMARK    1  A    between atoms: N_2  and  O_4
REMARK    2  A    between atoms: O_4  and  C_5
REMARK    3  A    between atoms: C_9  and  O_10
REMARK    4  A    between atoms: O_10  and  N_11
REMARK                            x       y       z     vdW  Elec       q    Type
REMARK                         _______ _______ _______ _____ _____    ______ ____
ROOT
ATOM      1  C   UNL     1     -10.359  17.144  66.774  0.00  0.00    +0.307 C 
ATOM      2  C   UNL     1      -8.682  17.338  67.040  0.00  0.00    +0.196 C 
ATOM      3  C   UNL     1      -8.919  18.596  68.157  0.00  0.00    +0.196 C 
ATOM      4  C   UNL     1      -7.981  19.722  67.263  0.00  0.00    +0.307 C 
ATOM      5  C   UNL     1      -7.143  18.551  66.487  0.00  0.00    +0.196 C 
ATOM      6  O   UNL     1     -10.166  19.151  67.585  0.00  0.00    -0.345 OA
ATOM      7  O   UNL     1      -8.389  18.239  65.881  0.00  0.00    -0.345 OA
ATOM      8  C   UNL     1     -10.476  18.730  66.440  0.00  0.00    +0.196 C 
ENDROOT
BRANCH   1   9
ATOM      9  O   UNL     1     -10.186  16.736  65.310  0.00  0.00    -0.199 OA
BRANCH   9  11
ATOM     10  O   UNL     1     -11.592  16.573  63.886  0.00  0.00    +0.093 OA
ATOM     11  N   UNL     1     -11.232  16.132  64.681  0.00  0.00    +0.285 N 
ATOM     12  O   UNL     1     -11.479  14.770  64.681  0.00  0.00    -0.534 OA
ENDBRANCH   9  11
ENDBRANCH   1   9
BRANCH   4  13
ATOM     13  O   UNL     1      -6.970  19.930  68.379  0.00  0.00    -0.199 OA
BRANCH  13  14
ATOM     14  N   UNL     1      -5.971  20.771  68.404  0.00  0.00    +0.285 N 
ATOM     15  O   UNL     1      -5.540  21.195  69.664  0.00  0.00    -0.534 OA
ATOM     16  O   UNL     1      -5.958  21.714  67.561  0.00  0.00    +0.093 OA
ENDBRANCH  13  14
ENDBRANCH   4  13
TORSDOF 4
ENDMDL
MODEL 2
REMARK VINA RESULT:      -5.3      4.837      6.724
REMARK  Name = 
REMARK  4 active torsions:
REMARK  status: ('A' for Active; 'I' for Inactive)
REMARK    1  A    between atoms: N_2  and  O_4
REMARK    2  A    between atoms: O_4  and  C_5
REMARK    3  A    between atoms: C_9  and  O_10
REMARK    4  A    between atoms: O_10  and  N_11
REMARK                            x       y       z     vdW  Elec       q    Type
REMARK                         _______ _______ _______ _____ _____    ______ ____
ROOT
ATOM      1  C   UNL     1     -10.502  14.912  67.446  0.00  0.00    +0.307 C 
ATOM      2  C   UNL     1     -10.583  15.345  69.098  0.00  0.00    +0.196 C 
ATOM      3  C   UNL     1     -11.248  13.847  69.545  0.00  0.00    +0.196 C 
ATOM      4  C   UNL     1     -12.656  14.547  70.233  0.00  0.00    +0.307 C 
ATOM      5  C   UNL     1     -11.931  15.993  70.477  0.00  0.00    +0.196 C 
ATOM      6  O   UNL     1     -11.980  13.561  68.291  0.00  0.00    -0.345 OA
ATOM      7  O   UNL     1     -11.892  16.069  69.060  0.00  0.00    -0.345 OA
ATOM      8  C   UNL     1     -12.079  14.522  67.484  0.00  0.00    +0.196 C 
ENDROOT
BRANCH   1   9
ATOM      9  O   UNL     1     -10.753  16.338  66.952  0.00  0.00    -0.199 OA
BRANCH   9  11
ATOM     10  O   UNL     1      -9.283  16.525  65.597  0.00  0.00    +0.093 OA
ATOM     11  N   UNL     1     -10.234  16.703  65.748  0.00  0.00    +0.285 N 
ATOM     12  O   UNL     1     -10.947  16.773  64.563  0.00  0.00    -0.534 OA
ENDBRANCH   9  11
ENDBRANCH   1   9
BRANCH   4  13
ATOM     13  O   UNL     1     -12.383  13.994  71.622  0.00  0.00    -0.199 OA
BRANCH  13  14
ATOM     14  N   UNL     1     -13.208  13.934  72.633  0.00  0.00    +0.285 N 
ATOM     15  O   UNL     1     -14.546  13.662  72.335  0.00  0.00    -0.534 OA
ATOM     16  O   UNL     1     -13.097  14.797  73.552  0.00  0.00    +0.093 OA
ENDBRANCH  13  14
ENDBRANCH   4  13
TORSDOF 4
ENDMDL
MODEL 3
REMARK VINA RESULT:      -5.3      1.079      6.035
REMARK  Name = 
REMARK  4 active torsions:
REMARK  status: ('A' for Active; 'I' for Inactive)
REMARK    1  A    between atoms: N_2  and  O_4
REMARK    2  A    between atoms: O_4  and  C_5
REMARK    3  A    between atoms: C_9  and  O_10
REMARK    4  A    between atoms: O_10  and  N_11
REMARK                            x       y       z     vdW  Elec       q    Type
REMARK                         _______ _______ _______ _____ _____    ______ ____
ROOT
ATOM      1  C   UNL     1      -8.015  20.035  68.162  0.00  0.00    +0.307 C 
ATOM      2  C   UNL     1      -7.836  18.775  67.020  0.00  0.00    +0.196 C 
ATOM      3  C   UNL     1      -9.406  18.992  66.409  0.00  0.00    +0.196 C 
ATOM      4  C   UNL     1      -9.886  17.380  66.752  0.00  0.00    +0.307 C 
ATOM      5  C   UNL     1      -8.348  16.824  66.756  0.00  0.00    +0.196 C 
ATOM      6  O   UNL     1     -10.050  19.469  67.653  0.00  0.00    -0.345 OA
ATOM      7  O   UNL     1      -8.194  17.630  67.914  0.00  0.00    -0.345 OA
ATOM      8  C   UNL     1      -9.374  19.331  68.706  0.00  0.00    +0.196 C 
ENDROOT
BRANCH   1   9
ATOM      9  O   UNL     1      -7.118  19.361  69.202  0.00  0.00    -0.199 OA
BRANCH   9  11
ATOM     10  O   UNL     1      -5.779  20.843  69.405  0.00  0.00    +0.093 OA
ATOM     11  N   UNL     1      -6.244  20.138  69.899  0.00  0.00    +0.285 N 
ATOM     12  O   UNL     1      -6.334  20.420  71.251  0.00  0.00    -0.534 OA
ENDBRANCH   9  11
ENDBRANCH   1   9
BRANCH   4  13
ATOM     13  O   UNL     1     -10.174  17.043  65.298  0.00  0.00    -0.199 OA
BRANCH  13  14
ATOM     14  N   UNL     1     -11.016  16.157  64.836  0.00  0.00    +0.285 N 
ATOM     15  O   UNL     1     -10.562  14.836  64.771  0.00  0.00    -0.534 OA
ATOM     16  O   UNL     1     -11.719  16.463  63.829  0.00  0.00    +0.093 OA
ENDBRANCH  13  14
ENDBRANCH   4  13
TORSDOF 4
ENDMDL
MODEL 4
REMARK VINA RESULT:      -5.3      1.325      6.165
REMARK  Name = 
REMARK  4 active torsions:
REMARK  status: ('A' for Active; 'I' for Inactive)
REMARK    1  A    between atoms: N_2  and  O_4
REMARK    2  A    between atoms: O_4  and  C_5
REMARK    3  A    between atoms: C_9  and  O_10
REMARK    4  A    between atoms: O_10  and  N_11
REMARK                            x       y       z     vdW  Elec       q    Type
REMARK                         _______ _______ _______ _____ _____    ______ ____
ROOT
ATOM      1  C   UNL     1      -6.530  19.560  68.064  0.00  0.00    +0.307 C 
ATOM      2  C   UNL     1      -7.396  18.092  67.934  0.00  0.00    +0.196 C 
ATOM      3  C   UNL     1      -7.726  18.335  66.286  0.00  0.00    +0.196 C 
ATOM      4  C   UNL     1      -9.428  18.263  66.498  0.00  0.00    +0.307 C 
ATOM      5  C   UNL     1      -9.313  17.410  67.889  0.00  0.00    +0.196 C 
ATOM      6  O   UNL     1      -7.768  19.814  66.297  0.00  0.00    -0.345 OA
ATOM      7  O   UNL     1      -8.724  18.590  68.414  0.00  0.00    -0.345 OA
ATOM      8  C   UNL     1      -7.801  20.351  67.435  0.00  0.00    +0.196 C 
ENDROOT
BRANCH   1   9
ATOM      9  O   UNL     1      -6.954  19.804  69.513  0.00  0.00    -0.199 OA
BRANCH   9  11
ATOM     10  O   UNL     1      -5.502  21.096  70.018  0.00  0.00    +0.093 OA
ATOM     11  N   UNL     1      -6.050  20.362  70.364  0.00  0.00    +0.285 N 
ATOM     12  O   UNL     1      -6.179  20.411  71.742  0.00  0.00    -0.534 OA
ENDBRANCH   9  11
ENDBRANCH   1   9
BRANCH   4  13
ATOM     13  O   UNL     1      -9.599  17.059  65.585  0.00  0.00    -0.199 OA
BRANCH  13  14
ATOM     14  N   UNL     1     -10.709  16.444  65.274  0.00  0.00    +0.285 N 
ATOM     15  O   UNL     1     -10.726  15.057  65.445  0.00  0.00    -0.534 OA
ATOM     16  O   UNL     1     -11.317  16.797  64.223  0.00  0.00    +0.093 OA
ENDBRANCH  13  14
ENDBRANCH   4  13
TORSDOF 4
ENDMDL
MODEL 5
REMARK VINA RESULT:      -5.3      1.033      6.051
REMARK  Name = 
REMARK  4 active torsions:
REMARK  status: ('A' for Active; 'I' for Inactive)
REMARK    1  A    between atoms: N_2  and  O_4
REMARK    2  A    between atoms: O_4  and  C_5
REMARK    3  A    between atoms: C_9  and  O_10
REMARK    4  A    between atoms: O_10  and  N_11
REMARK                            x       y       z     vdW  Elec       q    Type
REMARK                         _______ _______ _______ _____ _____    ______ ____
ROOT
ATOM      1  C   UNL     1      -8.655  19.824  68.042  0.00  0.00    +0.307 C 
ATOM      2  C   UNL     1      -8.364  18.720  66.770  0.00  0.00    +0.196 C 
ATOM      3  C   UNL     1      -9.997  18.700  66.302  0.00  0.00    +0.196 C 
ATOM      4  C   UNL     1     -10.157  17.005  66.516  0.00  0.00    +0.307 C 
ATOM      5  C   UNL     1      -8.551  16.738  66.350  0.00  0.00    +0.196 C 
ATOM      6  O   UNL     1     -10.599  18.944  67.631  0.00  0.00    -0.345 OA
ATOM      7  O   UNL     1      -8.436  17.457  67.569  0.00  0.00    -0.345 OA
ATOM      8  C   UNL     1      -9.816  18.842  68.612  0.00  0.00    +0.196 C 
ENDROOT
BRANCH   1   9
ATOM      9  O   UNL     1      -7.564  19.238  68.940  0.00  0.00    -0.199 OA
BRANCH   9  11
ATOM     10  O   UNL     1      -6.255  20.750  68.757  0.00  0.00    +0.093 OA
ATOM     11  N   UNL     1      -6.577  20.067  69.380  0.00  0.00    +0.285 N 
ATOM     12  O   UNL     1      -6.368  20.423  70.701  0.00  0.00    -0.534 OA
ENDBRANCH   9  11
ENDBRANCH   1   9
BRANCH   4  13
ATOM     13  O   UNL     1     -10.513  16.746  65.061  0.00  0.00    -0.199 OA
BRANCH  13  14
ATOM     14  N   UNL     1     -11.250  15.780  64.579  0.00  0.00    +0.285 N 
ATOM     15  O   UNL     1     -12.326  16.157  63.770  0.00  0.00    -0.534 OA
ATOM     16  O   UNL     1     -11.548  14.815  65.340  0.00  0.00    +0.093 OA
ENDBRANCH  13  14
ENDBRANCH   4  13
TORSDOF 4
ENDMDL
MODEL 6
REMARK VINA RESULT:      -5.3      5.032      6.364
REMARK  Name = 
REMARK  4 active torsions:
REMARK  status: ('A' for Active; 'I' for Inactive)
REMARK    1  A    between atoms: N_2  and  O_4
REMARK    2  A    between atoms: O_4  and  C_5
REMARK    3  A    between atoms: C_9  and  O_10
REMARK    4  A    between atoms: O_10  and  N_11
REMARK                            x       y       z     vdW  Elec       q    Type
REMARK                         _______ _______ _______ _____ _____    ______ ____
ROOT
ATOM      1  C   UNL     1     -11.053  15.459  67.941  0.00  0.00    +0.307 C 
ATOM      2  C   UNL     1     -12.225  15.793  69.140  0.00  0.00    +0.196 C 
ATOM      3  C   UNL     1     -11.051  16.236  70.285  0.00  0.00    +0.196 C 
ATOM      4  C   UNL     1     -11.549  15.051  71.423  0.00  0.00    +0.307 C 
ATOM      5  C   UNL     1     -13.054  14.942  70.792  0.00  0.00    +0.196 C 
ATOM      6  O   UNL     1      -9.959  15.354  69.816  0.00  0.00    -0.345 OA
ATOM      7  O   UNL     1     -12.399  14.399  69.655  0.00  0.00    -0.345 OA
ATOM      8  C   UNL     1     -10.289  14.472  68.981  0.00  0.00    +0.196 C 
ENDROOT
BRANCH   1   9
ATOM      9  O   UNL     1     -11.872  14.336  67.304  0.00  0.00    -0.199 OA
BRANCH   9  11
ATOM     10  O   UNL     1     -11.241  14.288  65.398  0.00  0.00    +0.093 OA
ATOM     11  N   UNL     1     -12.045  14.351  65.953  0.00  0.00    +0.285 N 
ATOM     12  O   UNL     1     -13.174  13.902  65.291  0.00  0.00    -0.534 OA
ENDBRANCH   9  11
ENDBRANCH   1   9
BRANCH   4  13
ATOM     13  O   UNL     1     -11.898  16.073  72.494  0.00  0.00    -0.199 OA
BRANCH  13  14
ATOM     14  N   UNL     1     -12.449  15.852  73.658  0.00  0.00    +0.285 N 
ATOM     15  O   UNL     1     -12.408  16.901  74.580  0.00  0.00    -0.534 OA
ATOM     16  O   UNL     1     -12.255  14.731  74.212  0.00  0.00    +0.093 OA
ENDBRANCH  13  14
ENDBRANCH   4  13
TORSDOF 4
ENDMDL
MODEL 7
REMARK VINA RESULT:      -5.0      2.239      6.779
REMARK  Name = 
REMARK  4 active torsions:
REMARK  status: ('A' for Active; 'I' for Inactive)
REMARK    1  A    between atoms: N_2  and  O_4
REMARK    2  A    between atoms: O_4  and  C_5
REMARK    3  A    between atoms: C_9  and  O_10
REMARK    4  A    between atoms: O_10  and  N_11
REMARK                            x       y       z     vdW  Elec       q    Type
REMARK                         _______ _______ _______ _____ _____    ______ ____
ROOT
ATOM      1  C   UNL     1      -8.908  17.010  66.922  0.00  0.00    +0.307 C 
ATOM      2  C   UNL     1      -9.531  15.444  67.212  0.00  0.00    +0.196 C 
ATOM      3  C   UNL     1      -9.893  15.193  65.572  0.00  0.00    +0.196 C 
ATOM      4  C   UNL     1     -11.562  14.919  65.863  0.00  0.00    +0.307 C 
ATOM      5  C   UNL     1     -11.315  14.489  67.422  0.00  0.00    +0.196 C 
ATOM      6  O   UNL     1     -10.169  16.598  65.201  0.00  0.00    -0.345 OA
ATOM      7  O   UNL     1     -10.921  15.841  67.600  0.00  0.00    -0.345 OA
ATOM      8  C   UNL     1     -10.288  17.404  66.161  0.00  0.00    +0.196 C 
ENDROOT
BRANCH   1   9
ATOM      9  O   UNL     1      -9.368  17.557  68.274  0.00  0.00    -0.199 OA
BRANCH   9  11
ATOM     10  O   UNL     1      -9.815  19.352  69.056  0.00  0.00    +0.093 OA
ATOM     11  N   UNL     1      -9.128  18.868  68.554  0.00  0.00    +0.285 N 
ATOM     12  O   UNL     1      -7.873  19.432  68.708  0.00  0.00    -0.534 OA
ENDBRANCH   9  11
ENDBRANCH   1   9
BRANCH   4  13
ATOM     13  O   UNL     1     -11.538  13.506  65.302  0.00  0.00    -0.199 OA
BRANCH  13  14
ATOM     14  N   UNL     1     -12.254  13.026  64.320  0.00  0.00    +0.285 N 
ATOM     15  O   UNL     1     -12.605  13.919  63.305  0.00  0.00    -0.534 OA
ATOM     16  O   UNL     1     -13.201  12.234  64.598  0.00  0.00    +0.093 OA
ENDBRANCH  13  14
ENDBRANCH   4  13
TORSDOF 4
ENDMDL
MODEL 8
REMARK VINA RESULT:      -5.0      4.889      7.272
REMARK  Name = 
REMARK  4 active torsions:
REMARK  status: ('A' for Active; 'I' for Inactive)
REMARK    1  A    between atoms: N_2  and  O_4
REMARK    2  A    between atoms: O_4  and  C_5
REMARK    3  A    between atoms: C_9  and  O_10
REMARK    4  A    between atoms: O_10  and  N_11
REMARK                            x       y       z     vdW  Elec       q    Type
REMARK                         _______ _______ _______ _____ _____    ______ ____
ROOT
ATOM      1  C   UNL     1     -11.063  13.857  65.139  0.00  0.00    +0.307 C 
ATOM      2  C   UNL     1     -10.033  12.934  66.143  0.00  0.00    +0.196 C 
ATOM      3  C   UNL     1     -11.310  11.965  66.705  0.00  0.00    +0.196 C 
ATOM      4  C   UNL     1     -11.045  12.370  68.352  0.00  0.00    +0.307 C 
ATOM      5  C   UNL     1      -9.483  12.783  68.097  0.00  0.00    +0.196 C 
ATOM      6  O   UNL     1     -12.392  12.970  66.612  0.00  0.00    -0.345 OA
ATOM      7  O   UNL     1     -10.023  13.848  67.329  0.00  0.00    -0.345 OA
ATOM      8  C   UNL     1     -12.019  14.157  66.417  0.00  0.00    +0.196 C 
ENDROOT
BRANCH   1   9
ATOM      9  O   UNL     1     -10.249  15.141  65.307  0.00  0.00    -0.199 OA
BRANCH   9  11
ATOM     10  O   UNL     1     -10.413  17.143  65.319  0.00  0.00    +0.093 OA
ATOM     11  N   UNL     1     -10.842  16.326  64.992  0.00  0.00    +0.285 N 
ATOM     12  O   UNL     1     -11.610  16.555  63.863  0.00  0.00    -0.534 OA
ENDBRANCH   9  11
ENDBRANCH   1   9
BRANCH   4  13
ATOM     13  O   UNL     1     -10.765  10.935  68.771  0.00  0.00    -0.199 OA
BRANCH  13  14
ATOM     14  N   UNL     1     -11.134  10.340  69.874  0.00  0.00    +0.285 N 
ATOM     15  O   UNL     1     -11.995  11.053  70.713  0.00  0.00    -0.534 OA
ATOM     16  O   UNL     1     -10.264   9.696  70.530  0.00  0.00    +0.093 OA
ENDBRANCH  13  14
ENDBRANCH   4  13
TORSDOF 4
ENDMDL
MODEL 9
REMARK VINA RESULT:      -4.9      4.854      7.967
REMARK  Name = 
REMARK  4 active torsions:
REMARK  status: ('A' for Active; 'I' for Inactive)
REMARK    1  A    between atoms: N_2  and  O_4
REMARK    2  A    between atoms: O_4  and  C_5
REMARK    3  A    between atoms: C_9  and  O_10
REMARK    4  A    between atoms: O_10  and  N_11
REMARK                            x       y       z     vdW  Elec       q    Type
REMARK                         _______ _______ _______ _____ _____    ______ ____
ROOT
ATOM      1  C   UNL     1     -11.331  14.066  64.714  0.00  0.00    +0.307 C 
ATOM      2  C   UNL     1     -10.184  13.198  65.639  0.00  0.00    +0.196 C 
ATOM      3  C   UNL     1     -10.995  11.723  65.416  0.00  0.00    +0.196 C 
ATOM      4  C   UNL     1     -11.203  11.450  67.098  0.00  0.00    +0.307 C 
ATOM      5  C   UNL     1      -9.950  12.421  67.505  0.00  0.00    +0.196 C 
ATOM      6  O   UNL     1     -12.372  12.254  65.312  0.00  0.00    -0.345 OA
ATOM      7  O   UNL     1     -10.761  13.468  66.993  0.00  0.00    -0.345 OA
ATOM      8  C   UNL     1     -12.518  13.460  65.643  0.00  0.00    +0.196 C 
ENDROOT
BRANCH   1   9
ATOM      9  O   UNL     1     -11.186  15.345  65.541  0.00  0.00    -0.199 OA
BRANCH   9  11
ATOM     10  O   UNL     1     -11.451  16.691  64.074  0.00  0.00    +0.093 OA
ATOM     11  N   UNL     1     -10.932  16.510  64.884  0.00  0.00    +0.285 N 
ATOM     12  O   UNL     1     -10.469  17.672  65.478  0.00  0.00    -0.534 OA
ENDBRANCH   9  11
ENDBRANCH   1   9
BRANCH   4  13
ATOM     13  O   UNL     1     -10.408  10.155  67.095  0.00  0.00    -0.199 OA
BRANCH  13  14
ATOM     14  N   UNL     1     -10.761   9.001  67.597  0.00  0.00    +0.285 N 
ATOM     15  O   UNL     1     -10.324   8.723  68.895  0.00  0.00    -0.534 OA
ATOM     16  O   UNL     1     -10.706   7.980  66.853  0.00  0.00    +0.093 OA
ENDBRANCH  13  14
ENDBRANCH   4  13
TORSDOF 4
ENDMDL
