MODEL 1
REMARK VINA RESULT:      -7.5      0.000      0.000
REMARK  Name = 
REMARK  5 active torsions:
REMARK  status: ('A' for Active; 'I' for Inactive)
REMARK    1  A    between atoms: C_3  and  C_5
REMARK    2  A    between atoms: C_10  and  S_11
REMARK    3  A    between atoms: S_11  and  C_12
REMARK    4  A    between atoms: C_16  and  C_17
REMARK    5  A    between atoms: C_18  and  C_19
REMARK                            x       y       z     vdW  Elec       q    Type
REMARK                         _______ _______ _______ _____ _____    ______ ____
ROOT
ATOM      1  C   UNL     1     -10.518  14.934  67.223  0.00  0.00    +0.031 A 
ATOM      2  C   UNL     1     -11.446  15.354  68.168  0.00  0.00    +0.027 A 
ATOM      3  C   UNL     1     -11.644  14.573  69.299  0.00  0.00    +0.105 A 
ATOM      4  C   UNL     1     -11.430  13.206  69.177  0.00  0.00    +0.039 A 
ATOM      5  C   UNL     1     -12.095  12.554  70.205  0.00  0.00    +0.104 A 
ATOM      6  N   UNL     1     -12.541  13.542  71.018  0.00  0.00    -0.148 NA
ATOM      7  C   UNL     1     -10.800  12.682  68.078  0.00  0.00    +0.004 A 
ATOM      8  N   UNL     1     -12.458  14.703  70.376  0.00  0.00    -0.148 NA
ATOM      9  C   UNL     1     -10.371  13.558  67.100  0.00  0.00    +0.007 A 
ENDROOT
BRANCH   5  10
ATOM     10  C   UNL     1     -12.398  11.125  70.263  0.00  0.00    +0.023 C 
ATOM     11  C   UNL     1     -12.191  10.475  71.408  0.00  0.00    +0.021 C 
BRANCH  11  12
ATOM     12  C   UNL     1     -12.828   9.184  71.693  0.00  0.00    +0.081 A 
ATOM     13  N   UNL     1     -12.128   8.023  71.685  0.00  0.00    -0.244 NA
ATOM     14  C   UNL     1     -12.814   6.890  71.394  0.00  0.00    +0.099 A 
ATOM     15  C   UNL     1     -14.202   6.931  71.348  0.00  0.00    +0.021 A 
ATOM     16  C   UNL     1     -14.787   7.946  72.093  0.00  0.00    +0.003 A 
ATOM     17  C   UNL     1     -14.064   9.110  72.324  0.00  0.00    +0.019 A 
ENDBRANCH  11  12
ENDBRANCH   5  10
BRANCH   1  18
ATOM     18  S   UNL     1      -9.755  16.029  66.056  0.00  0.00    -0.087 S 
BRANCH  18  20
ATOM     19  C   UNL     1      -9.075  17.923  67.906  0.00  0.00    +0.061 A 
ATOM     20  C   UNL     1      -9.766  17.671  66.733  0.00  0.00    +0.034 A 
ATOM     21  C   UNL     1     -10.445  18.681  66.066  0.00  0.00    +0.007 A 
ATOM     22  C   UNL     1     -10.377  19.996  66.508  0.00  0.00    +0.001 A 
ATOM     23  C   UNL     1      -9.804  20.234  67.744  0.00  0.00    +0.000 A 
ATOM     24  C   UNL     1      -9.309  19.167  68.480  0.00  0.00    +0.005 A 
BRANCH  19  27
ATOM     25  C   UNL     1      -5.455  17.785  68.818  0.00  0.00    +0.139 C 
ATOM     26  N   UNL     1      -6.549  17.751  67.858  0.00  0.00    -0.200 NA
ATOM     27  C   UNL     1      -7.821  17.193  68.144  0.00  0.00    +0.265 C 
ATOM     28  O   UNL     1      -7.867  16.359  69.099  0.00  0.00    -0.268 OA
ENDBRANCH  19  27
ENDBRANCH  18  20
ENDBRANCH   1  18
TORSDOF 5
ENDMDL
MODEL 2
REMARK VINA RESULT:      -7.4      3.245      9.205
REMARK  Name = 
REMARK  5 active torsions:
REMARK  status: ('A' for Active; 'I' for Inactive)
REMARK    1  A    between atoms: C_3  and  C_5
REMARK    2  A    between atoms: C_10  and  S_11
REMARK    3  A    between atoms: S_11  and  C_12
REMARK    4  A    between atoms: C_16  and  C_17
REMARK    5  A    between atoms: C_18  and  C_19
REMARK                            x       y       z     vdW  Elec       q    Type
REMARK                         _______ _______ _______ _____ _____    ______ ____
ROOT
ATOM      1  C   UNL     1     -10.430  11.595  67.698  0.00  0.00    +0.031 A 
ATOM      2  C   UNL     1     -11.651  11.817  67.075  0.00  0.00    +0.027 A 
ATOM      3  C   UNL     1     -11.698  12.688  65.994  0.00  0.00    +0.105 A 
ATOM      4  C   UNL     1     -10.768  13.719  65.964  0.00  0.00    +0.039 A 
ATOM      5  C   UNL     1     -11.231  14.717  65.118  0.00  0.00    +0.104 A 
ATOM      6  N   UNL     1     -12.331  14.193  64.525  0.00  0.00    -0.148 NA
ATOM      7  C   UNL     1      -9.689  13.727  66.810  0.00  0.00    +0.004 A 
ATOM      8  N   UNL     1     -12.709  13.107  65.194  0.00  0.00    -0.148 NA
ATOM      9  C   UNL     1      -9.548  12.669  67.686  0.00  0.00    +0.007 A 
ENDROOT
BRANCH   5  10
ATOM     10  C   UNL     1     -10.732  16.089  65.053  0.00  0.00    +0.023 C 
ATOM     11  C   UNL     1     -10.792  16.843  66.150  0.00  0.00    +0.021 C 
BRANCH  11  12
ATOM     12  C   UNL     1      -9.971  18.049  66.309  0.00  0.00    +0.081 A 
ATOM     13  N   UNL     1      -8.661  18.073  65.965  0.00  0.00    -0.244 NA
ATOM     14  C   UNL     1      -7.865  18.950  66.624  0.00  0.00    +0.099 A 
ATOM     15  C   UNL     1      -8.446  19.918  67.434  0.00  0.00    +0.021 A 
ATOM     16  C   UNL     1      -9.755  20.250  67.108  0.00  0.00    +0.003 A 
ATOM     17  C   UNL     1     -10.550  19.301  66.477  0.00  0.00    +0.019 A 
ENDBRANCH  11  12
ENDBRANCH   5  10
BRANCH   1  18
ATOM     18  S   UNL     1     -10.086  10.158  68.678  0.00  0.00    -0.087 S 
BRANCH  18  20
ATOM     19  C   UNL     1     -11.281   8.983  70.837  0.00  0.00    +0.061 A 
ATOM     20  C   UNL     1     -11.247  10.100  70.020  0.00  0.00    +0.034 A 
ATOM     21  C   UNL     1     -12.086  11.183  70.245  0.00  0.00    +0.007 A 
ATOM     22  C   UNL     1     -12.923  11.216  71.353  0.00  0.00    +0.001 A 
ATOM     23  C   UNL     1     -13.061  10.056  72.094  0.00  0.00    +0.000 A 
ATOM     24  C   UNL     1     -12.352   8.923  71.720  0.00  0.00    +0.005 A 
BRANCH  19  27
ATOM     25  C   UNL     1      -8.534   7.933  73.140  0.00  0.00    +0.139 C 
ATOM     26  N   UNL     1      -9.086   8.765  72.081  0.00  0.00    -0.200 NA
ATOM     27  C   UNL     1     -10.015   8.291  71.120  0.00  0.00    +0.265 C 
ATOM     28  O   UNL     1     -10.047   7.035  70.942  0.00  0.00    -0.268 OA
ENDBRANCH  19  27
ENDBRANCH  18  20
ENDBRANCH   1  18
TORSDOF 5
ENDMDL
MODEL 3
REMARK VINA RESULT:      -7.3      1.891      2.208
REMARK  Name = 
REMARK  5 active torsions:
REMARK  status: ('A' for Active; 'I' for Inactive)
REMARK    1  A    between atoms: C_3  and  C_5
REMARK    2  A    between atoms: C_10  and  S_11
REMARK    3  A    between atoms: S_11  and  C_12
REMARK    4  A    between atoms: C_16  and  C_17
REMARK    5  A    between atoms: C_18  and  C_19
REMARK                            x       y       z     vdW  Elec       q    Type
REMARK                         _______ _______ _______ _____ _____    ______ ____
ROOT
ATOM      1  C   UNL     1      -8.916  15.161  66.746  0.00  0.00    +0.031 A 
ATOM      2  C   UNL     1      -9.665  14.420  65.840  0.00  0.00    +0.027 A 
ATOM      3  C   UNL     1     -10.668  13.593  66.327  0.00  0.00    +0.105 A 
ATOM      4  C   UNL     1     -10.499  13.064  67.600  0.00  0.00    +0.039 A 
ATOM      5  C   UNL     1     -11.310  11.947  67.735  0.00  0.00    +0.104 A 
ATOM      6  N   UNL     1     -12.076  11.932  66.617  0.00  0.00    -0.148 NA
ATOM      7  C   UNL     1      -9.527  13.540  68.443  0.00  0.00    +0.004 A 
ATOM      8  N   UNL     1     -11.550  12.761  65.720  0.00  0.00    -0.148 NA
ATOM      9  C   UNL     1      -8.730  14.573  67.991  0.00  0.00    +0.007 A 
ENDROOT
BRANCH   5  10
ATOM     10  C   UNL     1     -11.201  10.924  68.773  0.00  0.00    +0.023 C 
ATOM     11  C   UNL     1     -11.658  11.200  69.993  0.00  0.00    +0.021 C 
BRANCH  11  12
ATOM     12  C   UNL     1     -11.968  10.144  70.964  0.00  0.00    +0.081 A 
ATOM     13  N   UNL     1     -11.016   9.304  71.436  0.00  0.00    -0.244 NA
ATOM     14  C   UNL     1     -11.422   8.075  71.841  0.00  0.00    +0.099 A 
ATOM     15  C   UNL     1     -12.781   7.819  71.971  0.00  0.00    +0.021 A 
ATOM     16  C   UNL     1     -13.575   8.938  72.187  0.00  0.00    +0.003 A 
ATOM     17  C   UNL     1     -13.141  10.169  71.710  0.00  0.00    +0.019 A 
ENDBRANCH  11  12
ENDBRANCH   5  10
BRANCH   1  18
ATOM     18  S   UNL     1      -8.021  16.625  66.299  0.00  0.00    -0.087 S 
BRANCH  18  20
ATOM     19  C   UNL     1      -8.443  18.627  68.111  0.00  0.00    +0.061 A 
ATOM     20  C   UNL     1      -8.889  18.034  66.943  0.00  0.00    +0.034 A 
ATOM     21  C   UNL     1      -9.986  18.534  66.254  0.00  0.00    +0.007 A 
ATOM     22  C   UNL     1     -10.615  19.701  66.669  0.00  0.00    +0.001 A 
ATOM     23  C   UNL     1     -10.263  20.222  67.901  0.00  0.00    +0.000 A 
ATOM     24  C   UNL     1      -9.294  19.579  68.659  0.00  0.00    +0.005 A 
BRANCH  19  27
ATOM     25  C   UNL     1      -5.294  20.393  69.072  0.00  0.00    +0.139 C 
ATOM     26  N   UNL     1      -6.199  19.801  68.097  0.00  0.00    -0.200 NA
ATOM     27  C   UNL     1      -6.995  18.658  68.365  0.00  0.00    +0.265 C 
ATOM     28  O   UNL     1      -6.609  17.915  69.318  0.00  0.00    -0.268 OA
ENDBRANCH  19  27
ENDBRANCH  18  20
ENDBRANCH   1  18
TORSDOF 5
ENDMDL
MODEL 4
REMARK VINA RESULT:      -7.1      3.370      5.535
REMARK  Name = 
REMARK  5 active torsions:
REMARK  status: ('A' for Active; 'I' for Inactive)
REMARK    1  A    between atoms: C_3  and  C_5
REMARK    2  A    between atoms: C_10  and  S_11
REMARK    3  A    between atoms: S_11  and  C_12
REMARK    4  A    between atoms: C_16  and  C_17
REMARK    5  A    between atoms: C_18  and  C_19
REMARK                            x       y       z     vdW  Elec       q    Type
REMARK                         _______ _______ _______ _____ _____    ______ ____
ROOT
ATOM      1  C   UNL     1     -10.203  11.270  68.566  0.00  0.00    +0.031 A 
ATOM      2  C   UNL     1     -11.489  11.368  69.082  0.00  0.00    +0.027 A 
ATOM      3  C   UNL     1     -11.755  10.797  70.320  0.00  0.00    +0.105 A 
ATOM      4  C   UNL     1     -11.001   9.690  70.687  0.00  0.00    +0.039 A 
ATOM      5  C   UNL     1     -11.678   8.995  71.679  0.00  0.00    +0.104 A 
ATOM      6  N   UNL     1     -12.727   9.787  72.011  0.00  0.00    -0.148 NA
ATOM      7  C   UNL     1      -9.875   9.335  69.991  0.00  0.00    +0.004 A 
ATOM      8  N   UNL     1     -12.878  10.720  71.075  0.00  0.00    -0.148 NA
ATOM      9  C   UNL     1      -9.503  10.123  68.920  0.00  0.00    +0.007 A 
ENDROOT
BRANCH   5  10
ATOM     10  C   UNL     1     -11.405   7.625  72.110  0.00  0.00    +0.023 C 
ATOM     11  C   UNL     1     -10.498   7.425  73.064  0.00  0.00    +0.021 C 
BRANCH  11  12
ATOM     12  C   UNL     1     -10.446   6.178  73.837  0.00  0.00    +0.081 A 
ATOM     13  N   UNL     1     -10.060   6.156  75.136  0.00  0.00    -0.244 NA
ATOM     14  C   UNL     1      -9.506   5.008  75.597  0.00  0.00    +0.099 A 
ATOM     15  C   UNL     1      -9.568   3.863  74.813  0.00  0.00    +0.021 A 
ATOM     16  C   UNL     1     -10.609   3.832  73.895  0.00  0.00    +0.003 A 
ATOM     17  C   UNL     1     -11.112   5.035  73.412  0.00  0.00    +0.019 A 
ENDBRANCH  11  12
ENDBRANCH   5  10
BRANCH   1  18
ATOM     18  S   UNL     1      -9.565  12.370  67.331  0.00  0.00    -0.087 S 
BRANCH  18  20
ATOM     19  C   UNL     1     -11.731  12.978  65.780  0.00  0.00    +0.061 A 
ATOM     20  C   UNL     1     -10.573  12.228  65.875  0.00  0.00    +0.034 A 
ATOM     21  C   UNL     1     -10.172  11.387  64.846  0.00  0.00    +0.007 A 
ATOM     22  C   UNL     1     -10.877  11.343  63.650  0.00  0.00    +0.001 A 
ATOM     23  C   UNL     1     -12.102  11.983  63.596  0.00  0.00    +0.000 A 
ATOM     24  C   UNL     1     -12.567  12.653  64.719  0.00  0.00    +0.005 A 
BRANCH  19  27
ATOM     25  C   UNL     1     -11.326  15.314  68.668  0.00  0.00    +0.139 C 
ATOM     26  N   UNL     1     -12.131  14.557  67.720  0.00  0.00    -0.200 NA
ATOM     27  C   UNL     1     -11.740  14.323  66.377  0.00  0.00    +0.265 C 
ATOM     28  O   UNL     1     -10.881  15.122  65.894  0.00  0.00    -0.268 OA
ENDBRANCH  19  27
ENDBRANCH  18  20
ENDBRANCH   1  18
TORSDOF 5
ENDMDL
MODEL 5
REMARK VINA RESULT:      -7.1      4.525      6.141
REMARK  Name = 
REMARK  5 active torsions:
REMARK  status: ('A' for Active; 'I' for Inactive)
REMARK    1  A    between atoms: C_3  and  C_5
REMARK    2  A    between atoms: C_10  and  S_11
REMARK    3  A    between atoms: S_11  and  C_12
REMARK    4  A    between atoms: C_16  and  C_17
REMARK    5  A    between atoms: C_18  and  C_19
REMARK                            x       y       z     vdW  Elec       q    Type
REMARK                         _______ _______ _______ _____ _____    ______ ____
ROOT
ATOM      1  C   UNL     1     -10.367  14.922  67.763  0.00  0.00    +0.031 A 
ATOM      2  C   UNL     1     -11.464  15.096  66.928  0.00  0.00    +0.027 A 
ATOM      3  C   UNL     1     -11.985  13.986  66.276  0.00  0.00    +0.105 A 
ATOM      4  C   UNL     1     -11.108  12.953  65.972  0.00  0.00    +0.039 A 
ATOM      5  C   UNL     1     -11.657  12.181  64.958  0.00  0.00    +0.104 A 
ATOM      6  N   UNL     1     -12.917  12.654  64.799  0.00  0.00    -0.148 NA
ATOM      7  C   UNL     1      -9.852  12.904  66.519  0.00  0.00    +0.004 A 
ATOM      8  N   UNL     1     -13.020  13.828  65.415  0.00  0.00    -0.148 NA
ATOM      9  C   UNL     1      -9.490  13.909  67.395  0.00  0.00    +0.007 A 
ENDROOT
BRANCH   5  10
ATOM     10  C   UNL     1     -10.941  11.211  64.132  0.00  0.00    +0.023 C 
ATOM     11  C   UNL     1     -10.165  11.661  63.147  0.00  0.00    +0.021 C 
BRANCH  11  12
ATOM     12  C   UNL     1      -9.115  10.832  62.545  0.00  0.00    +0.081 A 
ATOM     13  N   UNL     1      -7.993  11.373  62.012  0.00  0.00    -0.244 NA
ATOM     14  C   UNL     1      -7.381  10.676  61.022  0.00  0.00    +0.099 A 
ATOM     15  C   UNL     1      -7.779   9.371  60.765  0.00  0.00    +0.021 A 
ATOM     16  C   UNL     1      -8.376   8.715  61.834  0.00  0.00    +0.003 A 
ATOM     17  C   UNL     1      -9.035   9.468  62.799  0.00  0.00    +0.019 A 
ENDBRANCH  11  12
ENDBRANCH   5  10
BRANCH   1  18
ATOM     18  S   UNL     1      -9.939  16.058  69.055  0.00  0.00    -0.087 S 
BRANCH  18  20
ATOM     19  C   UNL     1      -8.326  18.160  68.387  0.00  0.00    +0.061 A 
ATOM     20  C   UNL     1      -9.608  17.643  68.326  0.00  0.00    +0.034 A 
ATOM     21  C   UNL     1     -10.632  18.327  67.685  0.00  0.00    +0.007 A 
ATOM     22  C   UNL     1     -10.378  19.513  67.007  0.00  0.00    +0.001 A 
ATOM     23  C   UNL     1      -9.138  20.102  67.175  0.00  0.00    +0.000 A 
ATOM     24  C   UNL     1      -8.198  19.485  67.989  0.00  0.00    +0.005 A 
BRANCH  19  27
ATOM     25  C   UNL     1      -5.122  16.970  66.877  0.00  0.00    +0.139 C 
ATOM     26  N   UNL     1      -6.562  16.897  67.081  0.00  0.00    -0.200 NA
ATOM     27  C   UNL     1      -7.194  17.224  68.307  0.00  0.00    +0.265 C 
ATOM     28  O   UNL     1      -6.464  17.188  69.344  0.00  0.00    -0.268 OA
ENDBRANCH  19  27
ENDBRANCH  18  20
ENDBRANCH   1  18
TORSDOF 5
ENDMDL
MODEL 6
REMARK VINA RESULT:      -7.0      3.759      9.746
REMARK  Name = 
REMARK  5 active torsions:
REMARK  status: ('A' for Active; 'I' for Inactive)
REMARK    1  A    between atoms: C_3  and  C_5
REMARK    2  A    between atoms: C_10  and  S_11
REMARK    3  A    between atoms: S_11  and  C_12
REMARK    4  A    between atoms: C_16  and  C_17
REMARK    5  A    between atoms: C_18  and  C_19
REMARK                            x       y       z     vdW  Elec       q    Type
REMARK                         _______ _______ _______ _____ _____    ______ ____
ROOT
ATOM      1  C   UNL     1     -11.035  15.199  67.251  0.00  0.00    +0.031 A 
ATOM      2  C   UNL     1     -10.748  15.990  68.356  0.00  0.00    +0.027 A 
ATOM      3  C   UNL     1     -10.557  17.352  68.168  0.00  0.00    +0.105 A 
ATOM      4  C   UNL     1     -10.055  17.763  66.940  0.00  0.00    +0.039 A 
ATOM      5  C   UNL     1      -9.506  19.030  67.079  0.00  0.00    +0.104 A 
ATOM      6  N   UNL     1      -9.845  19.424  68.331  0.00  0.00    -0.148 NA
ATOM      7  C   UNL     1     -10.000  16.905  65.872  0.00  0.00    +0.004 A 
ATOM      8  N   UNL     1     -10.267  18.367  69.019  0.00  0.00    -0.148 NA
ATOM      9  C   UNL     1     -10.473  15.620  66.052  0.00  0.00    +0.007 A 
ENDROOT
BRANCH   5  10
ATOM     10  C   UNL     1      -8.601  19.684  66.137  0.00  0.00    +0.023 C 
ATOM     11  C   UNL     1      -7.316  19.332  66.136  0.00  0.00    +0.021 C 
BRANCH  11  12
ATOM     12  C   UNL     1      -6.435  19.609  64.996  0.00  0.00    +0.081 A 
ATOM     13  N   UNL     1      -6.427  20.812  64.373  0.00  0.00    -0.244 NA
ATOM     14  C   UNL     1      -6.062  20.831  63.068  0.00  0.00    +0.099 A 
ATOM     15  C   UNL     1      -5.503  19.690  62.504  0.00  0.00    +0.021 A 
ATOM     16  C   UNL     1      -4.891  18.827  63.403  0.00  0.00    +0.003 A 
ATOM     17  C   UNL     1      -5.334  18.807  64.720  0.00  0.00    +0.019 A 
ENDBRANCH  11  12
ENDBRANCH   5  10
BRANCH   1  18
ATOM     18  S   UNL     1     -11.832  13.619  67.367  0.00  0.00    -0.087 S 
BRANCH  18  20
ATOM     19  C   UNL     1     -10.570  11.839  65.722  0.00  0.00    +0.061 A 
ATOM     20  C   UNL     1     -11.599  12.757  65.832  0.00  0.00    +0.034 A 
ATOM     21  C   UNL     1     -12.465  12.999  64.775  0.00  0.00    +0.007 A 
ATOM     22  C   UNL     1     -12.380  12.258  63.603  0.00  0.00    +0.001 A 
ATOM     23  C   UNL     1     -11.279  11.437  63.435  0.00  0.00    +0.000 A 
ATOM     24  C   UNL     1     -10.323  11.371  64.437  0.00  0.00    +0.005 A 
BRANCH  19  27
ATOM     25  C   UNL     1     -10.302   8.598  67.562  0.00  0.00    +0.139 C 
ATOM     26  N   UNL     1     -10.939   9.876  67.280  0.00  0.00    -0.200 NA
ATOM     27  C   UNL     1     -10.221  11.041  66.908  0.00  0.00    +0.265 C 
ATOM     28  O   UNL     1      -8.992  11.067  67.220  0.00  0.00    -0.268 OA
ENDBRANCH  19  27
ENDBRANCH  18  20
ENDBRANCH   1  18
TORSDOF 5
ENDMDL
MODEL 7
REMARK VINA RESULT:      -7.0      5.503      7.667
REMARK  Name = 
REMARK  5 active torsions:
REMARK  status: ('A' for Active; 'I' for Inactive)
REMARK    1  A    between atoms: C_3  and  C_5
REMARK    2  A    between atoms: C_10  and  S_11
REMARK    3  A    between atoms: S_11  and  C_12
REMARK    4  A    between atoms: C_16  and  C_17
REMARK    5  A    between atoms: C_18  and  C_19
REMARK                            x       y       z     vdW  Elec       q    Type
REMARK                         _______ _______ _______ _____ _____    ______ ____
ROOT
ATOM      1  C   UNL     1     -10.067  10.827  63.685  0.00  0.00    +0.031 A 
ATOM      2  C   UNL     1     -11.262  11.513  63.514  0.00  0.00    +0.027 A 
ATOM      3  C   UNL     1     -11.572  12.538  64.399  0.00  0.00    +0.105 A 
ATOM      4  C   UNL     1     -11.068  12.443  65.689  0.00  0.00    +0.039 A 
ATOM      5  C   UNL     1     -11.822  13.253  66.527  0.00  0.00    +0.104 A 
ATOM      6  N   UNL     1     -12.640  13.949  65.700  0.00  0.00    -0.148 NA
ATOM      7  C   UNL     1     -10.097  11.529  66.006  0.00  0.00    +0.004 A 
ATOM      8  N   UNL     1     -12.634  13.375  64.500  0.00  0.00    -0.148 NA
ATOM      9  C   UNL     1      -9.624  10.713  64.997  0.00  0.00    +0.007 A 
ENDROOT
BRANCH   5  10
ATOM     10  C   UNL     1     -11.840  13.199  67.987  0.00  0.00    +0.023 C 
ATOM     11  C   UNL     1     -11.980  14.337  68.666  0.00  0.00    +0.021 C 
BRANCH  11  12
ATOM     12  C   UNL     1     -12.414  14.357  70.068  0.00  0.00    +0.081 A 
ATOM     13  N   UNL     1     -12.375  13.247  70.845  0.00  0.00    -0.244 NA
ATOM     14  C   UNL     1     -13.264  13.176  71.866  0.00  0.00    +0.099 A 
ATOM     15  C   UNL     1     -13.996  14.307  72.208  0.00  0.00    +0.021 A 
ATOM     16  C   UNL     1     -13.412  15.516  71.854  0.00  0.00    +0.003 A 
ATOM     17  C   UNL     1     -12.545  15.550  70.768  0.00  0.00    +0.019 A 
ENDBRANCH  11  12
ENDBRANCH   5  10
BRANCH   1  18
ATOM     18  S   UNL     1      -9.274   9.917  62.385  0.00  0.00    -0.087 S 
BRANCH  18  20
ATOM     19  C   UNL     1      -6.658   9.936  63.172  0.00  0.00    +0.061 A 
ATOM     20  C   UNL     1      -7.582  10.446  62.279  0.00  0.00    +0.034 A 
ATOM     21  C   UNL     1      -7.208  11.343  61.287  0.00  0.00    +0.007 A 
ATOM     22  C   UNL     1      -5.874  11.686  61.106  0.00  0.00    +0.001 A 
ATOM     23  C   UNL     1      -4.967  11.288  62.072  0.00  0.00    +0.000 A 
ATOM     24  C   UNL     1      -5.414  10.555  63.162  0.00  0.00    +0.005 A 
BRANCH  19  27
ATOM     25  C   UNL     1      -5.552   6.370  63.319  0.00  0.00    +0.139 C 
ATOM     26  N   UNL     1      -6.405   7.440  62.823  0.00  0.00    -0.200 NA
ATOM     27  C   UNL     1      -6.815   8.542  63.616  0.00  0.00    +0.265 C 
ATOM     28  O   UNL     1      -6.769   8.378  64.873  0.00  0.00    -0.268 OA
ENDBRANCH  19  27
ENDBRANCH  18  20
ENDBRANCH   1  18
TORSDOF 5
ENDMDL
MODEL 8
REMARK VINA RESULT:      -6.9      3.848      9.329
REMARK  Name = 
REMARK  5 active torsions:
REMARK  status: ('A' for Active; 'I' for Inactive)
REMARK    1  A    between atoms: C_3  and  C_5
REMARK    2  A    between atoms: C_10  and  S_11
REMARK    3  A    between atoms: S_11  and  C_12
REMARK    4  A    between atoms: C_16  and  C_17
REMARK    5  A    between atoms: C_18  and  C_19
REMARK                            x       y       z     vdW  Elec       q    Type
REMARK                         _______ _______ _______ _____ _____    ______ ____
ROOT
ATOM      1  C   UNL     1     -10.724  14.517  68.067  0.00  0.00    +0.031 A 
ATOM      2  C   UNL     1     -11.300  15.778  68.154  0.00  0.00    +0.027 A 
ATOM      3  C   UNL     1     -10.519  16.887  67.854  0.00  0.00    +0.105 A 
ATOM      4  C   UNL     1      -9.154  16.790  68.089  0.00  0.00    +0.039 A 
ATOM      5  C   UNL     1      -8.622  18.068  68.183  0.00  0.00    +0.104 A 
ATOM      6  N   UNL     1      -9.633  18.897  67.829  0.00  0.00    -0.148 NA
ATOM      7  C   UNL     1      -8.563  15.580  68.350  0.00  0.00    +0.004 A 
ATOM      8  N   UNL     1     -10.777  18.218  67.847  0.00  0.00    -0.148 NA
ATOM      9  C   UNL     1      -9.367  14.458  68.357  0.00  0.00    +0.007 A 
ENDROOT
BRANCH   5  10
ATOM     10  C   UNL     1      -7.314  18.417  68.736  0.00  0.00    +0.023 C 
ATOM     11  C   UNL     1      -6.969  19.702  68.796  0.00  0.00    +0.021 C 
BRANCH  11  12
ATOM     12  C   UNL     1      -5.899  20.178  69.680  0.00  0.00    +0.081 A 
ATOM     13  N   UNL     1      -4.962  21.061  69.258  0.00  0.00    -0.244 NA
ATOM     14  C   UNL     1      -3.753  21.020  69.871  0.00  0.00    +0.099 A 
ATOM     15  C   UNL     1      -3.604  20.261  71.025  0.00  0.00    +0.021 A 
ATOM     16  C   UNL     1      -4.773  20.039  71.740  0.00  0.00    +0.003 A 
ATOM     17  C   UNL     1      -5.985  20.041  71.060  0.00  0.00    +0.019 A 
ENDBRANCH  11  12
ENDBRANCH   5  10
BRANCH   1  18
ATOM     18  S   UNL     1     -11.668  13.029  67.868  0.00  0.00    -0.087 S 
BRANCH  18  20
ATOM     19  C   UNL     1     -10.454  11.594  65.885  0.00  0.00    +0.061 A 
ATOM     20  C   UNL     1     -11.484  12.465  66.194  0.00  0.00    +0.034 A 
ATOM     21  C   UNL     1     -12.387  12.885  65.228  0.00  0.00    +0.007 A 
ATOM     22  C   UNL     1     -12.338  12.372  63.938  0.00  0.00    +0.001 A 
ATOM     23  C   UNL     1     -11.239  11.609  63.587  0.00  0.00    +0.000 A 
ATOM     24  C   UNL     1     -10.248  11.372  64.528  0.00  0.00    +0.005 A 
BRANCH  19  27
ATOM     25  C   UNL     1     -10.325   8.100  67.201  0.00  0.00    +0.139 C 
ATOM     26  N   UNL     1     -10.851   9.457  67.185  0.00  0.00    -0.200 NA
ATOM     27  C   UNL     1     -10.060  10.597  66.892  0.00  0.00    +0.265 C 
ATOM     28  O   UNL     1      -8.808  10.467  67.046  0.00  0.00    -0.268 OA
ENDBRANCH  19  27
ENDBRANCH  18  20
ENDBRANCH   1  18
TORSDOF 5
ENDMDL
MODEL 9
REMARK VINA RESULT:      -6.9      3.317      9.598
REMARK  Name = 
REMARK  5 active torsions:
REMARK  status: ('A' for Active; 'I' for Inactive)
REMARK    1  A    between atoms: C_3  and  C_5
REMARK    2  A    between atoms: C_10  and  S_11
REMARK    3  A    between atoms: S_11  and  C_12
REMARK    4  A    between atoms: C_16  and  C_17
REMARK    5  A    between atoms: C_18  and  C_19
REMARK                            x       y       z     vdW  Elec       q    Type
REMARK                         _______ _______ _______ _____ _____    ______ ____
ROOT
ATOM      1  C   UNL     1      -9.215  11.185  68.340  0.00  0.00    +0.031 A 
ATOM      2  C   UNL     1     -10.558  11.350  68.024  0.00  0.00    +0.027 A 
ATOM      3  C   UNL     1     -10.890  12.116  66.914  0.00  0.00    +0.105 A 
ATOM      4  C   UNL     1     -10.019  13.138  66.558  0.00  0.00    +0.039 A 
ATOM      5  C   UNL     1     -10.698  14.053  65.768  0.00  0.00    +0.104 A 
ATOM      6  N   UNL     1     -11.900  13.479  65.518  0.00  0.00    -0.148 NA
ATOM      7  C   UNL     1      -8.764  13.223  67.105  0.00  0.00    +0.004 A 
ATOM      8  N   UNL     1     -12.077  12.461  66.356  0.00  0.00    -0.148 NA
ATOM      9  C   UNL     1      -8.387  12.251  68.011  0.00  0.00    +0.007 A 
ENDROOT
BRANCH   5  10
ATOM     10  C   UNL     1     -10.260  15.412  65.455  0.00  0.00    +0.023 C 
ATOM     11  C   UNL     1     -10.531  16.385  66.324  0.00  0.00    +0.021 C 
BRANCH  11  12
ATOM     12  C   UNL     1      -9.803  17.660  66.313  0.00  0.00    +0.081 A 
ATOM     13  N   UNL     1      -8.508  17.742  65.923  0.00  0.00    -0.244 NA
ATOM     14  C   UNL     1      -7.767  18.748  66.448  0.00  0.00    +0.099 A 
ATOM     15  C   UNL     1      -8.403  19.760  67.157  0.00  0.00    +0.021 A 
ATOM     16  C   UNL     1      -9.741  19.951  66.840  0.00  0.00    +0.003 A 
ATOM     17  C   UNL     1     -10.474  18.877  66.351  0.00  0.00    +0.019 A 
ENDBRANCH  11  12
ENDBRANCH   5  10
BRANCH   1  18
ATOM     18  S   UNL     1      -8.608   9.846  69.331  0.00  0.00    -0.087 S 
BRANCH  18  20
ATOM     19  C   UNL     1     -10.355   7.869  70.043  0.00  0.00    +0.061 A 
ATOM     20  C   UNL     1      -9.607   8.412  69.014  0.00  0.00    +0.034 A 
ATOM     21  C   UNL     1      -9.642   7.874  67.735  0.00  0.00    +0.007 A 
ATOM     22  C   UNL     1     -10.501   6.825  67.429  0.00  0.00    +0.001 A 
ATOM     23  C   UNL     1     -11.148   6.193  68.475  0.00  0.00    +0.000 A 
ATOM     24  C   UNL     1     -10.934   6.635  69.773  0.00  0.00    +0.005 A 
BRANCH  19  27
ATOM     25  C   UNL     1     -13.192   9.122  72.127  0.00  0.00    +0.139 C 
ATOM     26  N   UNL     1     -12.283   9.208  70.993  0.00  0.00    -0.200 NA
ATOM     27  C   UNL     1     -10.931   8.782  71.041  0.00  0.00    +0.265 C 
ATOM     28  O   UNL     1     -10.407   8.705  72.194  0.00  0.00    -0.268 OA
ENDBRANCH  19  27
ENDBRANCH  18  20
ENDBRANCH   1  18
TORSDOF 5
ENDMDL
