MODEL 1
REMARK VINA RESULT:      -5.6      0.000      0.000
REMARK  Name = 
REMARK  2 active torsions:
REMARK  status: ('A' for Active; 'I' for Inactive)
REMARK    1  A    between atoms: N_4  and  S_5
REMARK    2  A    between atoms: S_5  and  C_8
REMARK                            x       y       z     vdW  Elec       q    Type
REMARK                         _______ _______ _______ _____ _____    ______ ____
ROOT
ATOM      1  S   UNL     1     -11.463  15.167  69.035  0.00  0.00    +0.103 S 
ATOM      2  O   UNL     1     -11.745  16.632  68.785  0.00  0.00    -0.146 OA
ATOM      3  O   UNL     1     -10.037  15.012  69.468  0.00  0.00    -0.146 OA
ENDROOT
BRANCH   1   4
ATOM      4  C   UNL     1     -11.663  14.369  67.503  0.00  0.00    +0.129 A 
ATOM      5  C   UNL     1     -11.695  12.979  67.509  0.00  0.00    +0.022 A 
ATOM      6  C   UNL     1     -11.788  12.273  66.316  0.00  0.00    +0.019 A 
ATOM      7  C   UNL     1     -12.117  12.989  65.171  0.00  0.00    +0.089 A 
ATOM      8  N   UNL     1     -12.982  12.446  64.166  0.00  0.00    -0.128 NA
ATOM      9  C   UNL     1     -11.746  14.321  65.159  0.00  0.00    +0.019 A 
ATOM     10  C   UNL     1     -11.249  14.933  66.302  0.00  0.00    +0.022 A 
ENDBRANCH   1   4
BRANCH   1  13
ATOM     11  C   UNL     1     -14.295  15.271  71.783  0.00  0.00    +0.101 C 
ATOM     12  C   UNL     1     -12.912  15.336  71.212  0.00  0.00    +0.274 C 
ATOM     13  N   UNL     1     -12.523  14.575  70.243  0.00  0.00    -0.090 NA
ATOM     14  O   UNL     1     -11.965  16.210  71.723  0.00  0.00    -0.269 OA
ENDBRANCH   1  13
TORSDOF 2
ENDMDL
MODEL 2
REMARK VINA RESULT:      -5.5      3.794      6.041
REMARK  Name = 
REMARK  2 active torsions:
REMARK  status: ('A' for Active; 'I' for Inactive)
REMARK    1  A    between atoms: N_4  and  S_5
REMARK    2  A    between atoms: S_5  and  C_8
REMARK                            x       y       z     vdW  Elec       q    Type
REMARK                         _______ _______ _______ _____ _____    ______ ____
ROOT
ATOM      1  S   UNL     1     -12.071  13.328  64.518  0.00  0.00    +0.103 S 
ATOM      2  O   UNL     1     -12.571  14.457  63.645  0.00  0.00    -0.146 OA
ATOM      3  O   UNL     1     -13.140  12.282  64.624  0.00  0.00    -0.146 OA
ENDROOT
BRANCH   1   4
ATOM      4  C   UNL     1     -11.815  14.014  66.096  0.00  0.00    +0.129 A 
ATOM      5  C   UNL     1     -11.007  15.142  66.176  0.00  0.00    +0.022 A 
ATOM      6  C   UNL     1     -10.707  15.705  67.409  0.00  0.00    +0.019 A 
ATOM      7  C   UNL     1     -11.446  15.279  68.506  0.00  0.00    +0.089 A 
ATOM      8  N   UNL     1     -11.853  16.185  69.539  0.00  0.00    -0.128 NA
ATOM      9  C   UNL     1     -11.948  13.993  68.438  0.00  0.00    +0.019 A 
ATOM     10  C   UNL     1     -11.872  13.259  67.261  0.00  0.00    +0.022 A 
ENDBRANCH   1   4
BRANCH   1  13
ATOM     11  C   UNL     1      -9.714  10.584  62.939  0.00  0.00    +0.101 C 
ATOM     12  C   UNL     1     -10.355  11.414  64.007  0.00  0.00    +0.274 C 
ATOM     13  N   UNL     1     -10.648  12.661  63.838  0.00  0.00    -0.090 NA
ATOM     14  O   UNL     1     -10.644  10.880  65.253  0.00  0.00    -0.269 OA
ENDBRANCH   1  13
TORSDOF 2
ENDMDL
MODEL 3
REMARK VINA RESULT:      -5.3      2.298      2.881
REMARK  Name = 
REMARK  2 active torsions:
REMARK  status: ('A' for Active; 'I' for Inactive)
REMARK    1  A    between atoms: N_4  and  S_5
REMARK    2  A    between atoms: S_5  and  C_8
REMARK                            x       y       z     vdW  Elec       q    Type
REMARK                         _______ _______ _______ _____ _____    ______ ____
ROOT
ATOM      1  S   UNL     1     -11.286  12.578  68.250  0.00  0.00    +0.103 S 
ATOM      2  O   UNL     1      -9.881  12.098  68.541  0.00  0.00    -0.146 OA
ATOM      3  O   UNL     1     -12.127  11.407  67.839  0.00  0.00    -0.146 OA
ENDROOT
BRANCH   1   4
ATOM      4  C   UNL     1     -11.155  13.664  66.898  0.00  0.00    +0.129 A 
ATOM      5  C   UNL     1     -12.226  13.711  66.013  0.00  0.00    +0.022 A 
ATOM      6  C   UNL     1     -12.164  14.507  64.877  0.00  0.00    +0.019 A 
ATOM      7  C   UNL     1     -11.136  15.439  64.801  0.00  0.00    +0.089 A 
ATOM      8  N   UNL     1     -11.339  16.742  64.239  0.00  0.00    -0.128 NA
ATOM      9  C   UNL     1      -9.978  15.123  65.487  0.00  0.00    +0.019 A 
ATOM     10  C   UNL     1      -9.933  14.033  66.347  0.00  0.00    +0.022 A 
ENDBRANCH   1   4
BRANCH   1  13
ATOM     11  C   UNL     1     -12.666  15.486  70.535  0.00  0.00    +0.101 C 
ATOM     12  C   UNL     1     -11.662  14.552  69.932  0.00  0.00    +0.274 C 
ATOM     13  N   UNL     1     -11.940  13.323  69.646  0.00  0.00    -0.090 NA
ATOM     14  O   UNL     1     -10.364  14.963  69.674  0.00  0.00    -0.269 OA
ENDBRANCH   1  13
TORSDOF 2
ENDMDL
MODEL 4
REMARK VINA RESULT:      -5.3      2.573      3.418
REMARK  Name = 
REMARK  2 active torsions:
REMARK  status: ('A' for Active; 'I' for Inactive)
REMARK    1  A    between atoms: N_4  and  S_5
REMARK    2  A    between atoms: S_5  and  C_8
REMARK                            x       y       z     vdW  Elec       q    Type
REMARK                         _______ _______ _______ _____ _____    ______ ____
ROOT
ATOM      1  S   UNL     1     -10.749  16.546  68.170  0.00  0.00    +0.103 S 
ATOM      2  O   UNL     1      -9.313  16.282  68.565  0.00  0.00    -0.146 OA
ATOM      3  O   UNL     1     -11.617  16.439  69.388  0.00  0.00    -0.146 OA
ENDROOT
BRANCH   1   4
ATOM      4  C   UNL     1     -11.190  15.276  67.067  0.00  0.00    +0.129 A 
ATOM      5  C   UNL     1     -11.531  14.045  67.616  0.00  0.00    +0.022 A 
ATOM      6  C   UNL     1     -11.831  12.968  66.793  0.00  0.00    +0.019 A 
ATOM      7  C   UNL     1     -12.042  13.229  65.445  0.00  0.00    +0.089 A 
ATOM      8  N   UNL     1     -13.049  12.542  64.692  0.00  0.00    -0.128 NA
ATOM      9  C   UNL     1     -11.383  14.330  64.929  0.00  0.00    +0.019 A 
ATOM     10  C   UNL     1     -10.712  15.215  65.763  0.00  0.00    +0.022 A 
ENDBRANCH   1   4
BRANCH   1  13
ATOM     11  C   UNL     1      -9.558  20.082  66.880  0.00  0.00    +0.101 C 
ATOM     12  C   UNL     1     -10.081  19.059  67.841  0.00  0.00    +0.274 C 
ATOM     13  N   UNL     1     -10.878  18.108  67.480  0.00  0.00    -0.090 NA
ATOM     14  O   UNL     1      -9.750  19.102  69.186  0.00  0.00    -0.269 OA
ENDBRANCH   1  13
TORSDOF 2
ENDMDL
MODEL 5
REMARK VINA RESULT:      -5.3      3.159      3.861
REMARK  Name = 
REMARK  2 active torsions:
REMARK  status: ('A' for Active; 'I' for Inactive)
REMARK    1  A    between atoms: N_4  and  S_5
REMARK    2  A    between atoms: S_5  and  C_8
REMARK                            x       y       z     vdW  Elec       q    Type
REMARK                         _______ _______ _______ _____ _____    ______ ____
ROOT
ATOM      1  S   UNL     1     -10.382  16.709  65.922  0.00  0.00    +0.103 S 
ATOM      2  O   UNL     1     -11.041  17.039  64.601  0.00  0.00    -0.146 OA
ATOM      3  O   UNL     1      -8.902  16.597  65.713  0.00  0.00    -0.146 OA
ENDROOT
BRANCH   1   4
ATOM      4  C   UNL     1     -10.991  15.149  66.390  0.00  0.00    +0.129 A 
ATOM      5  C   UNL     1     -11.423  14.303  65.375  0.00  0.00    +0.022 A 
ATOM      6  C   UNL     1     -11.981  13.068  65.680  0.00  0.00    +0.019 A 
ATOM      7  C   UNL     1     -11.841  12.605  66.982  0.00  0.00    +0.089 A 
ATOM      8  N   UNL     1     -11.602  11.221  67.269  0.00  0.00    -0.128 NA
ATOM      9  C   UNL     1     -11.729  13.573  67.963  0.00  0.00    +0.019 A 
ATOM     10  C   UNL     1     -11.575  14.912  67.629  0.00  0.00    +0.022 A 
ENDBRANCH   1   4
BRANCH   1  13
ATOM     11  C   UNL     1      -9.680  19.647  68.463  0.00  0.00    +0.101 C 
ATOM     12  C   UNL     1      -9.886  18.241  67.990  0.00  0.00    +0.274 C 
ATOM     13  N   UNL     1     -10.734  17.936  67.063  0.00  0.00    -0.090 NA
ATOM     14  O   UNL     1      -9.185  17.185  68.550  0.00  0.00    -0.269 OA
ENDBRANCH   1  13
TORSDOF 2
ENDMDL
MODEL 6
REMARK VINA RESULT:      -5.1      2.561      5.375
REMARK  Name = 
REMARK  2 active torsions:
REMARK  status: ('A' for Active; 'I' for Inactive)
REMARK    1  A    between atoms: N_4  and  S_5
REMARK    2  A    between atoms: S_5  and  C_8
REMARK                            x       y       z     vdW  Elec       q    Type
REMARK                         _______ _______ _______ _____ _____    ______ ____
ROOT
ATOM      1  S   UNL     1     -10.716  13.776  66.765  0.00  0.00    +0.103 S 
ATOM      2  O   UNL     1      -9.332  13.261  67.093  0.00  0.00    -0.146 OA
ATOM      3  O   UNL     1     -10.589  15.012  65.926  0.00  0.00    -0.146 OA
ENDROOT
BRANCH   1   4
ATOM      4  C   UNL     1     -11.442  14.213  68.283  0.00  0.00    +0.129 A 
ATOM      5  C   UNL     1     -11.368  15.547  68.664  0.00  0.00    +0.022 A 
ATOM      6  C   UNL     1     -11.870  15.956  69.893  0.00  0.00    +0.019 A 
ATOM      7  C   UNL     1     -12.674  15.060  70.588  0.00  0.00    +0.089 A 
ATOM      8  N   UNL     1     -13.821  15.495  71.327  0.00  0.00    -0.128 NA
ATOM      9  C   UNL     1     -12.435  13.719  70.351  0.00  0.00    +0.019 A 
ATOM     10  C   UNL     1     -11.575  13.316  69.337  0.00  0.00    +0.022 A 
ENDBRANCH   1   4
BRANCH   1  13
ATOM     11  C   UNL     1     -12.632  12.077  63.761  0.00  0.00    +0.101 C 
ATOM     12  C   UNL     1     -12.443  12.891  65.004  0.00  0.00    +0.274 C 
ATOM     13  N   UNL     1     -11.594  12.571  65.923  0.00  0.00    -0.090 NA
ATOM     14  O   UNL     1     -13.200  14.028  65.238  0.00  0.00    -0.269 OA
ENDBRANCH   1  13
TORSDOF 2
ENDMDL
MODEL 7
REMARK VINA RESULT:      -5.1      3.005      5.875
REMARK  Name = 
REMARK  2 active torsions:
REMARK  status: ('A' for Active; 'I' for Inactive)
REMARK    1  A    between atoms: N_4  and  S_5
REMARK    2  A    between atoms: S_5  and  C_8
REMARK                            x       y       z     vdW  Elec       q    Type
REMARK                         _______ _______ _______ _____ _____    ______ ____
ROOT
ATOM      1  S   UNL     1     -11.541  13.606  69.002  0.00  0.00    +0.103 S 
ATOM      2  O   UNL     1     -10.073  13.913  68.805  0.00  0.00    -0.146 OA
ATOM      3  O   UNL     1     -12.329  14.279  67.919  0.00  0.00    -0.146 OA
ENDROOT
BRANCH   1   4
ATOM      4  C   UNL     1     -11.983  14.315  70.527  0.00  0.00    +0.129 A 
ATOM      5  C   UNL     1     -12.864  13.601  71.330  0.00  0.00    +0.022 A 
ATOM      6  C   UNL     1     -13.311  14.135  72.531  0.00  0.00    +0.019 A 
ATOM      7  C   UNL     1     -12.649  15.255  73.021  0.00  0.00    +0.089 A 
ATOM      8  N   UNL     1     -12.397  15.429  74.421  0.00  0.00    -0.128 NA
ATOM      9  C   UNL     1     -12.062  16.076  72.076  0.00  0.00    +0.019 A 
ATOM     10  C   UNL     1     -11.984  15.688  70.744  0.00  0.00    +0.022 A 
ENDBRANCH   1   4
BRANCH   1  13
ATOM     11  C   UNL     1     -10.925   9.853  67.947  0.00  0.00    +0.101 C 
ATOM     12  C   UNL     1     -11.504  11.232  67.891  0.00  0.00    +0.274 C 
ATOM     13  N   UNL     1     -11.785  11.912  68.954  0.00  0.00    -0.090 NA
ATOM     14  O   UNL     1     -11.793  11.841  66.681  0.00  0.00    -0.269 OA
ENDBRANCH   1  13
TORSDOF 2
ENDMDL
MODEL 8
REMARK VINA RESULT:      -5.0      3.473      4.757
REMARK  Name = 
REMARK  2 active torsions:
REMARK  status: ('A' for Active; 'I' for Inactive)
REMARK    1  A    between atoms: N_4  and  S_5
REMARK    2  A    between atoms: S_5  and  C_8
REMARK                            x       y       z     vdW  Elec       q    Type
REMARK                         _______ _______ _______ _____ _____    ______ ____
ROOT
ATOM      1  S   UNL     1      -9.816  17.455  67.203  0.00  0.00    +0.103 S 
ATOM      2  O   UNL     1      -8.837  17.022  68.271  0.00  0.00    -0.146 OA
ATOM      3  O   UNL     1     -10.902  18.271  67.839  0.00  0.00    -0.146 OA
ENDROOT
BRANCH   1   4
ATOM      4  C   UNL     1     -10.521  15.996  66.573  0.00  0.00    +0.129 A 
ATOM      5  C   UNL     1     -11.338  15.263  67.427  0.00  0.00    +0.022 A 
ATOM      6  C   UNL     1     -11.882  14.054  67.013  0.00  0.00    +0.019 A 
ATOM      7  C   UNL     1     -11.811  13.749  65.659  0.00  0.00    +0.089 A 
ATOM      8  N   UNL     1     -12.886  13.092  64.977  0.00  0.00    -0.128 NA
ATOM      9  C   UNL     1     -10.750  14.302  64.966  0.00  0.00    +0.019 A 
ATOM     10  C   UNL     1      -9.929  15.252  65.559  0.00  0.00    +0.022 A 
ENDBRANCH   1   4
BRANCH   1  13
ATOM     11  C   UNL     1      -6.898  19.550  65.567  0.00  0.00    +0.101 C 
ATOM     12  C   UNL     1      -8.149  19.287  66.347  0.00  0.00    +0.274 C 
ATOM     13  N   UNL     1      -8.999  18.374  66.011  0.00  0.00    -0.090 NA
ATOM     14  O   UNL     1      -8.469  20.040  67.466  0.00  0.00    -0.269 OA
ENDBRANCH   1  13
TORSDOF 2
ENDMDL
MODEL 9
REMARK VINA RESULT:      -4.9      3.433      4.820
REMARK  Name = 
REMARK  2 active torsions:
REMARK  status: ('A' for Active; 'I' for Inactive)
REMARK    1  A    between atoms: N_4  and  S_5
REMARK    2  A    between atoms: S_5  and  C_8
REMARK                            x       y       z     vdW  Elec       q    Type
REMARK                         _______ _______ _______ _____ _____    ______ ____
ROOT
ATOM      1  S   UNL     1     -10.060  16.349  66.254  0.00  0.00    +0.103 S 
ATOM      2  O   UNL     1     -10.391  17.400  67.290  0.00  0.00    -0.146 OA
ATOM      3  O   UNL     1     -10.663  16.750  64.942  0.00  0.00    -0.146 OA
ENDROOT
BRANCH   1   4
ATOM      4  C   UNL     1     -10.829  14.884  66.789  0.00  0.00    +0.129 A 
ATOM      5  C   UNL     1     -11.197  13.965  65.813  0.00  0.00    +0.022 A 
ATOM      6  C   UNL     1     -11.873  12.803  66.162  0.00  0.00    +0.019 A 
ATOM      7  C   UNL     1     -11.921  12.468  67.509  0.00  0.00    +0.089 A 
ATOM      8  N   UNL     1     -11.816  11.110  67.953  0.00  0.00    -0.128 NA
ATOM      9  C   UNL     1     -11.857  13.523  68.400  0.00  0.00    +0.019 A 
ATOM     10  C   UNL     1     -11.570  14.810  67.963  0.00  0.00    +0.022 A 
ENDBRANCH   1   4
BRANCH   1  13
ATOM     11  C   UNL     1      -6.251  17.166  66.894  0.00  0.00    +0.101 C 
ATOM     12  C   UNL     1      -7.592  17.232  66.231  0.00  0.00    +0.274 C 
ATOM     13  N   UNL     1      -8.360  16.200  66.110  0.00  0.00    -0.090 NA
ATOM     14  O   UNL     1      -8.066  18.415  65.686  0.00  0.00    -0.269 OA
ENDBRANCH   1  13
TORSDOF 2
ENDMDL
