MODEL 1
REMARK VINA RESULT:      -6.4      0.000      0.000
REMARK  Name = 
REMARK  5 active torsions:
REMARK  status: ('A' for Active; 'I' for Inactive)
REMARK    1  A    between atoms: C_2  and  C_3
REMARK    2  A    between atoms: C_3  and  O_4
REMARK    3  A    between atoms: O_4  and  C_5
REMARK    4  A    between atoms: C_16  and  O_17
REMARK    5  A    between atoms: O_17  and  C_18
REMARK                            x       y       z     vdW  Elec       q    Type
REMARK                         _______ _______ _______ _____ _____    ______ ____
ROOT
ATOM      1  C   UNL     1      -6.149  18.644  68.510  0.00  0.00    +0.189 C 
ATOM      2  C   UNL     1      -6.645  17.525  67.699  0.00  0.00    +0.045 C 
ATOM      3  C   UNL     1      -8.191  17.683  68.154  0.00  0.00    +0.004 C 
ATOM      4  C   UNL     1      -8.734  16.957  66.741  0.00  0.00    +0.001 C 
ATOM      5  C   UNL     1      -8.904  15.526  67.582  0.00  0.00    +0.004 C 
ATOM      6  C   UNL     1      -7.345  15.173  67.364  0.00  0.00    +0.000 C 
ATOM      7  C   UNL     1      -9.385  14.550  66.290  0.00  0.00    +0.018 C 
ATOM      8  C   UNL     1     -10.327  15.541  65.478  0.00  0.00    -0.045 C 
ATOM      9  C   UNL     1     -10.965  14.646  64.693  0.00  0.00    +0.008 C 
ATOM     10  C   UNL     1     -12.360  14.077  65.288  0.00  0.00    +0.190 C 
ATOM     11  C   UNL     1     -11.913  14.457  66.829  0.00  0.00    +0.049 C 
ATOM     12  C   UNL     1     -10.753  16.853  65.816  0.00  0.00    +0.022 C 
ATOM     13  C   UNL     1     -10.619  13.911  67.141  0.00  0.00    +0.008 C 
ATOM     14  C   UNL     1     -10.246  17.381  67.096  0.00  0.00    +0.004 C 
ATOM     15  C   UNL     1      -8.209  19.186  67.551  0.00  0.00    +0.005 C 
ATOM     16  C   UNL     1      -6.497  17.863  66.268  0.00  0.00    +0.004 C 
ATOM     17  C   UNL     1      -6.477  16.135  68.106  0.00  0.00    +0.004 C 
ATOM     18  C   UNL     1      -7.322  19.619  68.726  0.00  0.00    +0.053 C 
ENDROOT
BRANCH   1  20
ATOM     19  C   UNL     1      -5.162  17.981  70.677  0.00  0.00    -0.011 C 
ATOM     20  C   UNL     1      -5.556  18.246  69.787  0.00  0.00    -0.040 C 
ENDBRANCH   1  20
BRANCH  10  21
ATOM     21  O   UNL     1     -11.856  12.630  65.444  0.00  0.00    -0.448 OA
BRANCH  21  22
ATOM     22  C   UNL     1     -11.922  12.063  64.163  0.00  0.00    +0.318 C 
ATOM     23  O   UNL     1     -12.966  12.081  63.445  0.00  0.00    -0.250 OA
ATOM     24  C   UNL     1     -10.808  11.276  63.580  0.00  0.00    +0.121 C 
ENDBRANCH  21  22
ENDBRANCH  10  21
BRANCH   1  25
ATOM     25  O   UNL     1      -5.312  19.537  67.778  0.00  0.00    -0.443 OA
BRANCH  25  26
ATOM     26  C   UNL     1      -3.982  19.728  67.975  0.00  0.00    +0.318 C 
ATOM     27  O   UNL     1      -3.668  20.761  68.596  0.00  0.00    -0.250 OA
ATOM     28  C   UNL     1      -3.024  18.803  67.322  0.00  0.00    +0.121 C 
ENDBRANCH  25  26
ENDBRANCH   1  25
TORSDOF 5
ENDMDL
MODEL 2
REMARK VINA RESULT:      -6.3      2.376      3.873
REMARK  Name = 
REMARK  5 active torsions:
REMARK  status: ('A' for Active; 'I' for Inactive)
REMARK    1  A    between atoms: C_2  and  C_3
REMARK    2  A    between atoms: C_3  and  O_4
REMARK    3  A    between atoms: O_4  and  C_5
REMARK    4  A    between atoms: C_16  and  O_17
REMARK    5  A    between atoms: O_17  and  C_18
REMARK                            x       y       z     vdW  Elec       q    Type
REMARK                         _______ _______ _______ _____ _____    ______ ____
ROOT
ATOM      1  C   UNL     1      -8.121  18.844  67.399  0.00  0.00    +0.189 C 
ATOM      2  C   UNL     1      -8.613  17.674  68.137  0.00  0.00    +0.045 C 
ATOM      3  C   UNL     1      -9.129  16.876  66.827  0.00  0.00    +0.004 C 
ATOM      4  C   UNL     1      -8.971  15.396  67.605  0.00  0.00    +0.001 C 
ATOM      5  C   UNL     1     -10.611  15.423  67.915  0.00  0.00    +0.004 C 
ATOM      6  C   UNL     1     -10.382  16.328  69.230  0.00  0.00    +0.000 C 
ATOM      7  C   UNL     1     -10.702  13.998  68.818  0.00  0.00    +0.018 C 
ATOM      8  C   UNL     1      -9.681  13.061  68.038  0.00  0.00    -0.045 C 
ATOM      9  C   UNL     1     -10.050  11.864  68.542  0.00  0.00    +0.008 C 
ATOM     10  C   UNL     1     -11.171  11.070  67.685  0.00  0.00    +0.190 C 
ATOM     11  C   UNL     1     -11.693  12.468  66.983  0.00  0.00    +0.049 C 
ATOM     12  C   UNL     1      -8.977  13.312  66.830  0.00  0.00    +0.022 C 
ATOM     13  C   UNL     1     -11.992  13.465  67.978  0.00  0.00    +0.008 C 
ATOM     14  C   UNL     1      -9.216  14.629  66.211  0.00  0.00    +0.004 C 
ATOM     15  C   UNL     1      -7.621  16.880  66.237  0.00  0.00    +0.005 C 
ATOM     16  C   UNL     1      -7.465  16.970  68.746  0.00  0.00    +0.004 C 
ATOM     17  C   UNL     1      -9.882  17.685  68.856  0.00  0.00    +0.004 C 
ATOM     18  C   UNL     1      -7.780  18.383  65.969  0.00  0.00    +0.053 C 
ENDROOT
BRANCH   1  20
ATOM     19  C   UNL     1      -9.702  20.744  67.357  0.00  0.00    -0.011 C 
ATOM     20  C   UNL     1      -9.048  19.976  67.378  0.00  0.00    -0.040 C 
ENDBRANCH   1  20
BRANCH  10  21
ATOM     21  O   UNL     1     -12.255  11.153  68.775  0.00  0.00    -0.448 OA
BRANCH  21  22
ATOM     22  C   UNL     1     -11.855  10.256  69.777  0.00  0.00    +0.318 C 
ATOM     23  O   UNL     1     -11.208   9.192  69.543  0.00  0.00    -0.250 OA
ATOM     24  C   UNL     1     -12.266  10.407  71.194  0.00  0.00    +0.121 C 
ENDBRANCH  21  22
ENDBRANCH  10  21
BRANCH   1  25
ATOM     25  O   UNL     1      -6.801  19.230  67.777  0.00  0.00    -0.443 OA
BRANCH  25  26
ATOM     26  C   UNL     1      -6.456  20.381  68.410  0.00  0.00    +0.318 C 
ATOM     27  O   UNL     1      -6.270  21.369  67.674  0.00  0.00    -0.250 OA
ATOM     28  C   UNL     1      -6.183  20.340  69.867  0.00  0.00    +0.121 C 
ENDBRANCH  25  26
ENDBRANCH   1  25
TORSDOF 5
ENDMDL
MODEL 3
REMARK VINA RESULT:      -6.3      1.624      8.289
REMARK  Name = 
REMARK  5 active torsions:
REMARK  status: ('A' for Active; 'I' for Inactive)
REMARK    1  A    between atoms: C_2  and  C_3
REMARK    2  A    between atoms: C_3  and  O_4
REMARK    3  A    between atoms: O_4  and  C_5
REMARK    4  A    between atoms: C_16  and  O_17
REMARK    5  A    between atoms: O_17  and  C_18
REMARK                            x       y       z     vdW  Elec       q    Type
REMARK                         _______ _______ _______ _____ _____    ______ ____
ROOT
ATOM      1  C   UNL     1     -10.838  14.918  66.939  0.00  0.00    +0.189 C 
ATOM      2  C   UNL     1     -10.342  16.270  67.222  0.00  0.00    +0.045 C 
ATOM      3  C   UNL     1      -8.846  15.800  67.623  0.00  0.00    +0.004 C 
ATOM      4  C   UNL     1      -8.211  17.300  67.215  0.00  0.00    +0.001 C 
ATOM      5  C   UNL     1      -8.235  17.713  68.832  0.00  0.00    +0.004 C 
ATOM      6  C   UNL     1      -9.783  18.153  68.732  0.00  0.00    +0.000 C 
ATOM      7  C   UNL     1      -7.692  19.305  68.676  0.00  0.00    +0.018 C 
ATOM      8  C   UNL     1      -6.600  19.157  67.529  0.00  0.00    -0.045 C 
ATOM      9  C   UNL     1      -5.950  20.330  67.691  0.00  0.00    +0.008 C 
ATOM     10  C   UNL     1      -4.671  20.278  68.682  0.00  0.00    +0.190 C 
ATOM     11  C   UNL     1      -5.248  18.930  69.436  0.00  0.00    +0.049 C 
ATOM     12  C   UNL     1      -6.119  17.981  66.895  0.00  0.00    +0.022 C 
ATOM     13  C   UNL     1      -6.604  19.125  69.876  0.00  0.00    +0.008 C 
ATOM     14  C   UNL     1      -6.718  16.714  67.354  0.00  0.00    +0.004 C 
ATOM     15  C   UNL     1      -8.655  15.166  66.146  0.00  0.00    +0.005 C 
ATOM     16  C   UNL     1     -10.314  17.048  65.966  0.00  0.00    +0.004 C 
ATOM     17  C   UNL     1     -10.653  16.968  68.464  0.00  0.00    +0.004 C 
ATOM     18  C   UNL     1      -9.627  14.049  66.550  0.00  0.00    +0.053 C 
ENDROOT
BRANCH   1  20
ATOM     19  C   UNL     1     -12.096  13.901  68.808  0.00  0.00    -0.011 C 
ATOM     20  C   UNL     1     -11.590  14.310  68.037  0.00  0.00    -0.040 C 
ENDBRANCH   1  20
BRANCH  10  21
ATOM     21  O   UNL     1      -5.291  21.201  69.747  0.00  0.00    -0.448 OA
BRANCH  21  22
ATOM     22  C   UNL     1      -4.259  21.485  70.653  0.00  0.00    +0.318 C 
ATOM     23  O   UNL     1      -4.452  22.024  71.784  0.00  0.00    -0.250 OA
ATOM     24  C   UNL     1      -2.827  21.297  70.316  0.00  0.00    +0.121 C 
ENDBRANCH  21  22
ENDBRANCH  10  21
BRANCH   1  25
ATOM     25  O   UNL     1     -11.527  14.824  65.693  0.00  0.00    -0.443 OA
BRANCH  25  26
ATOM     26  C   UNL     1     -12.398  13.847  65.333  0.00  0.00    +0.318 C 
ATOM     27  O   UNL     1     -13.606  14.125  65.454  0.00  0.00    -0.250 OA
ATOM     28  C   UNL     1     -11.863  12.508  64.983  0.00  0.00    +0.121 C 
ENDBRANCH  25  26
ENDBRANCH   1  25
TORSDOF 5
ENDMDL
MODEL 4
REMARK VINA RESULT:      -6.2      5.547      8.340
REMARK  Name = 
REMARK  5 active torsions:
REMARK  status: ('A' for Active; 'I' for Inactive)
REMARK    1  A    between atoms: C_2  and  C_3
REMARK    2  A    between atoms: C_3  and  O_4
REMARK    3  A    between atoms: O_4  and  C_5
REMARK    4  A    between atoms: C_16  and  O_17
REMARK    5  A    between atoms: O_17  and  C_18
REMARK                            x       y       z     vdW  Elec       q    Type
REMARK                         _______ _______ _______ _____ _____    ______ ____
ROOT
ATOM      1  C   UNL     1     -10.765  13.342  66.250  0.00  0.00    +0.189 C 
ATOM      2  C   UNL     1     -10.695  12.817  67.619  0.00  0.00    +0.045 C 
ATOM      3  C   UNL     1     -10.628  11.260  67.180  0.00  0.00    +0.004 C 
ATOM      4  C   UNL     1      -9.847  10.839  68.606  0.00  0.00    +0.001 C 
ATOM      5  C   UNL     1     -11.314  10.334  69.220  0.00  0.00    +0.004 C 
ATOM      6  C   UNL     1     -11.683  11.838  69.669  0.00  0.00    +0.000 C 
ATOM      7  C   UNL     1     -10.788   9.918  70.771  0.00  0.00    +0.018 C 
ATOM      8  C   UNL     1      -9.370   9.267  70.461  0.00  0.00    -0.045 C 
ATOM      9  C   UNL     1      -9.158   8.633  71.634  0.00  0.00    +0.008 C 
ATOM     10  C   UNL     1      -9.663   7.095  71.688  0.00  0.00    +0.190 C 
ATOM     11  C   UNL     1     -10.728   7.351  70.456  0.00  0.00    +0.049 C 
ATOM     12  C   UNL     1      -8.764   8.993  69.206  0.00  0.00    +0.022 C 
ATOM     13  C   UNL     1     -11.568   8.488  70.728  0.00  0.00    +0.008 C 
ATOM     14  C   UNL     1      -9.552   9.369  68.018  0.00  0.00    +0.004 C 
ATOM     15  C   UNL     1      -9.264  11.556  66.360  0.00  0.00    +0.005 C 
ATOM     16  C   UNL     1      -9.415  13.231  68.230  0.00  0.00    +0.004 C 
ATOM     17  C   UNL     1     -11.872  12.715  68.474  0.00  0.00    +0.004 C 
ATOM     18  C   UNL     1     -10.106  12.306  65.319  0.00  0.00    +0.053 C 
ENDROOT
BRANCH   1  20
ATOM     19  C   UNL     1     -13.044  13.904  65.473  0.00  0.00    -0.011 C 
ATOM     20  C   UNL     1     -12.119  13.667  65.799  0.00  0.00    -0.040 C 
ENDBRANCH   1  20
BRANCH  10  21
ATOM     21  O   UNL     1     -10.749   7.350  72.749  0.00  0.00    -0.448 OA
BRANCH  21  22
ATOM     22  C   UNL     1     -10.650   6.287  73.659  0.00  0.00    +0.318 C 
ATOM     23  O   UNL     1     -10.071   6.384  74.782  0.00  0.00    -0.250 OA
ATOM     24  C   UNL     1     -11.103   4.913  73.335  0.00  0.00    +0.121 C 
ENDBRANCH  21  22
ENDBRANCH  10  21
BRANCH   1  25
ATOM     25  O   UNL     1      -9.844  14.404  66.010  0.00  0.00    -0.443 OA
BRANCH  25  26
ATOM     26  C   UNL     1     -10.145  15.727  65.959  0.00  0.00    +0.318 C 
ATOM     27  O   UNL     1     -10.375  16.187  64.824  0.00  0.00    -0.250 OA
ATOM     28  C   UNL     1     -10.027  16.534  67.198  0.00  0.00    +0.121 C 
ENDBRANCH  25  26
ENDBRANCH   1  25
TORSDOF 5
ENDMDL
MODEL 5
REMARK VINA RESULT:      -6.0      1.187      1.237
REMARK  Name = 
REMARK  5 active torsions:
REMARK  status: ('A' for Active; 'I' for Inactive)
REMARK    1  A    between atoms: C_2  and  C_3
REMARK    2  A    between atoms: C_3  and  O_4
REMARK    3  A    between atoms: O_4  and  C_5
REMARK    4  A    between atoms: C_16  and  O_17
REMARK    5  A    between atoms: O_17  and  C_18
REMARK                            x       y       z     vdW  Elec       q    Type
REMARK                         _______ _______ _______ _____ _____    ______ ____
ROOT
ATOM      1  C   UNL     1      -5.497  19.531  67.583  0.00  0.00    +0.189 C 
ATOM      2  C   UNL     1      -6.097  18.319  67.011  0.00  0.00    +0.045 C 
ATOM      3  C   UNL     1      -7.537  18.513  67.723  0.00  0.00    +0.004 C 
ATOM      4  C   UNL     1      -8.305  17.620  66.527  0.00  0.00    +0.001 C 
ATOM      5  C   UNL     1      -8.273  16.296  67.543  0.00  0.00    +0.004 C 
ATOM      6  C   UNL     1      -6.770  15.936  67.082  0.00  0.00    +0.000 C 
ATOM      7  C   UNL     1      -8.951  15.170  66.481  0.00  0.00    +0.018 C 
ATOM      8  C   UNL     1     -10.057  16.048  65.750  0.00  0.00    -0.045 C 
ATOM      9  C   UNL     1     -10.797  15.060  65.204  0.00  0.00    +0.008 C 
ATOM     10  C   UNL     1     -12.041  14.550  66.107  0.00  0.00    +0.190 C 
ATOM     11  C   UNL     1     -11.334  15.115  67.486  0.00  0.00    +0.049 C 
ATOM     12  C   UNL     1     -10.455  17.386  66.009  0.00  0.00    +0.022 C 
ATOM     13  C   UNL     1      -9.987  14.622  67.613  0.00  0.00    +0.008 C 
ATOM     14  C   UNL     1      -9.740  18.067  67.105  0.00  0.00    +0.004 C 
ATOM     15  C   UNL     1      -7.714  19.934  66.966  0.00  0.00    +0.005 C 
ATOM     16  C   UNL     1      -6.223  18.487  65.549  0.00  0.00    +0.004 C 
ATOM     17  C   UNL     1      -5.812  16.988  67.536  0.00  0.00    +0.004 C 
ATOM     18  C   UNL     1      -6.641  20.512  67.900  0.00  0.00    +0.053 C 
ENDROOT
BRANCH   1  20
ATOM     19  C   UNL     1      -4.087  19.145  69.577  0.00  0.00    -0.011 C 
ATOM     20  C   UNL     1      -4.668  19.292  68.766  0.00  0.00    -0.040 C 
ENDBRANCH   1  20
BRANCH  10  21
ATOM     21  O   UNL     1     -11.472  13.138  66.332  0.00  0.00    -0.448 OA
BRANCH  21  22
ATOM     22  C   UNL     1     -11.855  12.390  65.208  0.00  0.00    +0.318 C 
ATOM     23  O   UNL     1     -13.032  12.389  64.740  0.00  0.00    -0.250 OA
ATOM     24  C   UNL     1     -10.944  11.429  64.541  0.00  0.00    +0.121 C 
ENDBRANCH  21  22
ENDBRANCH  10  21
BRANCH   1  25
ATOM     25  O   UNL     1      -4.836  20.340  66.612  0.00  0.00    -0.443 OA
BRANCH  25  26
ATOM     26  C   UNL     1      -3.496  20.536  66.514  0.00  0.00    +0.318 C 
ATOM     27  O   UNL     1      -3.077  21.634  66.929  0.00  0.00    -0.250 OA
ATOM     28  C   UNL     1      -2.677  19.527  65.800  0.00  0.00    +0.121 C 
ENDBRANCH  25  26
ENDBRANCH   1  25
TORSDOF 5
ENDMDL
MODEL 6
REMARK VINA RESULT:      -6.0      1.961      7.986
REMARK  Name = 
REMARK  5 active torsions:
REMARK  status: ('A' for Active; 'I' for Inactive)
REMARK    1  A    between atoms: C_2  and  C_3
REMARK    2  A    between atoms: C_3  and  O_4
REMARK    3  A    between atoms: O_4  and  C_5
REMARK    4  A    between atoms: C_16  and  O_17
REMARK    5  A    between atoms: O_17  and  C_18
REMARK                            x       y       z     vdW  Elec       q    Type
REMARK                         _______ _______ _______ _____ _____    ______ ____
ROOT
ATOM      1  C   UNL     1     -11.033  12.082  66.666  0.00  0.00    +0.189 C 
ATOM      2  C   UNL     1     -10.128  13.063  67.279  0.00  0.00    +0.045 C 
ATOM      3  C   UNL     1     -10.428  14.236  66.205  0.00  0.00    +0.004 C 
ATOM      4  C   UNL     1     -10.005  15.427  67.311  0.00  0.00    +0.001 C 
ATOM      5  C   UNL     1      -8.500  15.511  66.593  0.00  0.00    +0.004 C 
ATOM      6  C   UNL     1      -7.972  14.268  67.474  0.00  0.00    +0.000 C 
ATOM      7  C   UNL     1      -7.806  16.645  67.636  0.00  0.00    +0.018 C 
ATOM      8  C   UNL     1      -9.029  17.629  67.894  0.00  0.00    -0.045 C 
ATOM      9  C   UNL     1      -8.358  18.683  68.406  0.00  0.00    +0.008 C 
ATOM     10  C   UNL     1      -7.905  19.802  67.326  0.00  0.00    +0.190 C 
ATOM     11  C   UNL     1      -7.984  18.712  66.091  0.00  0.00    +0.049 C 
ATOM     12  C   UNL     1     -10.321  17.627  67.305  0.00  0.00    +0.022 C 
ATOM     13  C   UNL     1      -7.223  17.529  66.398  0.00  0.00    +0.008 C 
ATOM     14  C   UNL     1     -10.575  16.560  66.319  0.00  0.00    +0.004 C 
ATOM     15  C   UNL     1     -11.992  14.212  66.623  0.00  0.00    +0.005 C 
ATOM     16  C   UNL     1     -10.653  13.441  68.608  0.00  0.00    +0.004 C 
ATOM     17  C   UNL     1      -8.682  13.010  67.093  0.00  0.00    +0.004 C 
ATOM     18  C   UNL     1     -12.117  12.864  65.900  0.00  0.00    +0.053 C 
ENDROOT
BRANCH   1  20
ATOM     19  C   UNL     1      -9.918  10.455  65.176  0.00  0.00    -0.011 C 
ATOM     20  C   UNL     1     -10.368  11.113  65.794  0.00  0.00    -0.040 C 
ENDBRANCH   1  20
BRANCH  10  21
ATOM     21  O   UNL     1      -6.396  19.560  67.512  0.00  0.00    -0.448 OA
BRANCH  21  22
ATOM     22  C   UNL     1      -5.868  20.778  67.967  0.00  0.00    +0.318 C 
ATOM     23  O   UNL     1      -5.787  21.816  67.245  0.00  0.00    -0.250 OA
ATOM     24  C   UNL     1      -5.236  20.926  69.300  0.00  0.00    +0.121 C 
ENDBRANCH  21  22
ENDBRANCH  10  21
BRANCH   1  25
ATOM     25  O   UNL     1     -11.901  11.457  67.609  0.00  0.00    -0.443 OA
BRANCH  25  26
ATOM     26  C   UNL     1     -11.526  10.614  68.605  0.00  0.00    +0.318 C 
ATOM     27  O   UNL     1     -10.713   9.726  68.286  0.00  0.00    -0.250 OA
ATOM     28  C   UNL     1     -12.208  10.713  69.919  0.00  0.00    +0.121 C 
ENDBRANCH  25  26
ENDBRANCH   1  25
TORSDOF 5
ENDMDL
MODEL 7
REMARK VINA RESULT:      -6.0      1.743      3.341
REMARK  Name = 
REMARK  5 active torsions:
REMARK  status: ('A' for Active; 'I' for Inactive)
REMARK    1  A    between atoms: C_2  and  C_3
REMARK    2  A    between atoms: C_3  and  O_4
REMARK    3  A    between atoms: O_4  and  C_5
REMARK    4  A    between atoms: C_16  and  O_17
REMARK    5  A    between atoms: O_17  and  C_18
REMARK                            x       y       z     vdW  Elec       q    Type
REMARK                         _______ _______ _______ _____ _____    ______ ____
ROOT
ATOM      1  C   UNL     1      -4.403  19.762  69.162  0.00  0.00    +0.189 C 
ATOM      2  C   UNL     1      -5.766  19.531  68.666  0.00  0.00    +0.045 C 
ATOM      3  C   UNL     1      -5.600  17.929  68.509  0.00  0.00    +0.004 C 
ATOM      4  C   UNL     1      -7.254  17.690  68.673  0.00  0.00    +0.001 C 
ATOM      5  C   UNL     1      -7.367  17.580  67.011  0.00  0.00    +0.004 C 
ATOM      6  C   UNL     1      -7.442  19.185  66.875  0.00  0.00    +0.000 C 
ATOM      7  C   UNL     1      -9.046  17.415  66.902  0.00  0.00    +0.018 C 
ATOM      8  C   UNL     1      -9.356  16.485  68.154  0.00  0.00    -0.045 C 
ATOM      9  C   UNL     1     -10.603  16.084  67.827  0.00  0.00    +0.008 C 
ATOM     10  C   UNL     1     -10.686  14.699  66.991  0.00  0.00    +0.190 C 
ATOM     11  C   UNL     1      -9.132  14.867  66.467  0.00  0.00    +0.049 C 
ATOM     12  C   UNL     1      -8.451  15.855  69.050  0.00  0.00    +0.022 C 
ATOM     13  C   UNL     1      -8.925  16.161  65.870  0.00  0.00    +0.008 C 
ATOM     14  C   UNL     1      -7.020  16.102  68.794  0.00  0.00    +0.004 C 
ATOM     15  C   UNL     1      -5.288  17.811  70.094  0.00  0.00    +0.005 C 
ATOM     16  C   UNL     1      -6.730  19.842  69.742  0.00  0.00    +0.004 C 
ATOM     17  C   UNL     1      -6.149  19.810  67.287  0.00  0.00    +0.004 C 
ATOM     18  C   UNL     1      -3.922  18.458  69.827  0.00  0.00    +0.053 C 
ENDROOT
BRANCH   1  20
ATOM     19  C   UNL     1      -2.798  20.529  67.446  0.00  0.00    -0.011 C 
ATOM     20  C   UNL     1      -3.458  20.209  68.138  0.00  0.00    -0.040 C 
ENDBRANCH   1  20
BRANCH  10  21
ATOM     21  O   UNL     1     -11.242  15.351  65.711  0.00  0.00    -0.448 OA
BRANCH  21  22
ATOM     22  C   UNL     1     -12.003  14.356  65.078  0.00  0.00    +0.318 C 
ATOM     23  O   UNL     1     -12.585  14.527  63.966  0.00  0.00    -0.250 OA
ATOM     24  C   UNL     1     -12.302  13.052  65.717  0.00  0.00    +0.121 C 
ENDBRANCH  21  22
ENDBRANCH  10  21
BRANCH   1  25
ATOM     25  O   UNL     1      -4.364  20.579  70.330  0.00  0.00    -0.443 OA
BRANCH  25  26
ATOM     26  C   UNL     1      -3.418  20.537  71.303  0.00  0.00    +0.318 C 
ATOM     27  O   UNL     1      -3.810  20.160  72.424  0.00  0.00    -0.250 OA
ATOM     28  C   UNL     1      -2.066  21.073  71.009  0.00  0.00    +0.121 C 
ENDBRANCH  25  26
ENDBRANCH   1  25
TORSDOF 5
ENDMDL
MODEL 8
REMARK VINA RESULT:      -5.9      1.747      8.275
REMARK  Name = 
REMARK  5 active torsions:
REMARK  status: ('A' for Active; 'I' for Inactive)
REMARK    1  A    between atoms: C_2  and  C_3
REMARK    2  A    between atoms: C_3  and  O_4
REMARK    3  A    between atoms: O_4  and  C_5
REMARK    4  A    between atoms: C_16  and  O_17
REMARK    5  A    between atoms: O_17  and  C_18
REMARK                            x       y       z     vdW  Elec       q    Type
REMARK                         _______ _______ _______ _____ _____    ______ ____
ROOT
ATOM      1  C   UNL     1      -9.672  13.915  66.781  0.00  0.00    +0.189 C 
ATOM      2  C   UNL     1      -9.070  14.775  67.809  0.00  0.00    +0.045 C 
ATOM      3  C   UNL     1      -8.248  15.701  66.767  0.00  0.00    +0.004 C 
ATOM      4  C   UNL     1      -8.226  16.985  67.848  0.00  0.00    +0.001 C 
ATOM      5  C   UNL     1      -6.674  16.549  68.282  0.00  0.00    +0.004 C 
ATOM      6  C   UNL     1      -7.237  15.458  69.328  0.00  0.00    +0.000 C 
ATOM      7  C   UNL     1      -6.437  17.702  69.494  0.00  0.00    +0.018 C 
ATOM      8  C   UNL     1      -7.155  18.975  68.867  0.00  0.00    -0.045 C 
ATOM      9  C   UNL     1      -6.636  19.934  69.662  0.00  0.00    +0.008 C 
ATOM     10  C   UNL     1      -5.285  20.634  69.109  0.00  0.00    +0.190 C 
ATOM     11  C   UNL     1      -4.947  19.336  68.151  0.00  0.00    +0.049 C 
ATOM     12  C   UNL     1      -7.730  19.136  67.578  0.00  0.00    +0.022 C 
ATOM     13  C   UNL     1      -4.972  18.113  68.912  0.00  0.00    +0.008 C 
ATOM     14  C   UNL     1      -7.663  17.957  66.694  0.00  0.00    +0.004 C 
ATOM     15  C   UNL     1      -9.640  16.139  66.065  0.00  0.00    +0.005 C 
ATOM     16  C   UNL     1     -10.135  15.563  68.463  0.00  0.00    +0.004 C 
ATOM     17  C   UNL     1      -7.930  14.346  68.610  0.00  0.00    +0.004 C 
ATOM     18  C   UNL     1      -9.732  14.726  65.473  0.00  0.00    +0.053 C 
ENDROOT
BRANCH   1  20
ATOM     19  C   UNL     1      -8.487  11.771  66.454  0.00  0.00    -0.011 C 
ATOM     20  C   UNL     1      -8.978  12.642  66.579  0.00  0.00    -0.040 C 
ENDBRANCH   1  20
BRANCH  10  21
ATOM     21  O   UNL     1      -4.387  20.099  70.240  0.00  0.00    -0.448 OA
BRANCH  21  22
ATOM     22  C   UNL     1      -3.639  21.200  70.685  0.00  0.00    +0.318 C 
ATOM     23  O   UNL     1      -4.113  22.111  71.426  0.00  0.00    -0.250 OA
ATOM     24  C   UNL     1      -2.255  21.464  70.222  0.00  0.00    +0.121 C 
ENDBRANCH  21  22
ENDBRANCH  10  21
BRANCH   1  25
ATOM     25  O   UNL     1     -11.078  13.746  66.947  0.00  0.00    -0.443 OA
BRANCH  25  26
ATOM     26  C   UNL     1     -11.719  12.574  67.195  0.00  0.00    +0.318 C 
ATOM     27  O   UNL     1     -12.268  12.038  66.214  0.00  0.00    -0.250 OA
ATOM     28  C   UNL     1     -11.846  12.114  68.600  0.00  0.00    +0.121 C 
ENDBRANCH  25  26
ENDBRANCH   1  25
TORSDOF 5
ENDMDL
MODEL 9
REMARK VINA RESULT:      -5.8      2.195      7.775
REMARK  Name = 
REMARK  5 active torsions:
REMARK  status: ('A' for Active; 'I' for Inactive)
REMARK    1  A    between atoms: C_2  and  C_3
REMARK    2  A    between atoms: C_3  and  O_4
REMARK    3  A    between atoms: O_4  and  C_5
REMARK    4  A    between atoms: C_16  and  O_17
REMARK    5  A    between atoms: O_17  and  C_18
REMARK                            x       y       z     vdW  Elec       q    Type
REMARK                         _______ _______ _______ _____ _____    ______ ____
ROOT
ATOM      1  C   UNL     1     -11.041  14.701  68.075  0.00  0.00    +0.189 C 
ATOM      2  C   UNL     1      -9.721  15.256  67.750  0.00  0.00    +0.045 C 
ATOM      3  C   UNL     1     -10.185  16.805  67.831  0.00  0.00    +0.004 C 
ATOM      4  C   UNL     1      -8.622  17.307  68.182  0.00  0.00    +0.001 C 
ATOM      5  C   UNL     1      -8.430  17.719  66.576  0.00  0.00    +0.004 C 
ATOM      6  C   UNL     1      -8.037  16.201  66.199  0.00  0.00    +0.000 C 
ATOM      7  C   UNL     1      -6.812  18.200  66.650  0.00  0.00    +0.018 C 
ATOM      8  C   UNL     1      -6.765  18.944  68.055  0.00  0.00    -0.045 C 
ATOM      9  C   UNL     1      -5.602  19.613  67.911  0.00  0.00    +0.008 C 
ATOM     10  C   UNL     1      -5.737  21.112  67.313  0.00  0.00    +0.190 C 
ATOM     11  C   UNL     1      -7.195  20.759  66.627  0.00  0.00    +0.049 C 
ATOM     12  C   UNL     1      -7.828  19.237  68.950  0.00  0.00    +0.022 C 
ATOM     13  C   UNL     1      -7.109  19.570  65.819  0.00  0.00    +0.008 C 
ATOM     14  C   UNL     1      -9.166  18.783  68.527  0.00  0.00    +0.004 C 
ATOM     15  C   UNL     1     -10.610  16.592  69.379  0.00  0.00    +0.005 C 
ATOM     16  C   UNL     1      -8.783  14.946  68.849  0.00  0.00    +0.004 C 
ATOM     17  C   UNL     1      -9.207  15.291  66.386  0.00  0.00    +0.004 C 
ATOM     18  C   UNL     1     -11.806  15.764  68.888  0.00  0.00    +0.053 C 
ENDROOT
BRANCH   1  20
ATOM     19  C   UNL     1     -12.348  13.995  66.100  0.00  0.00    -0.011 C 
ATOM     20  C   UNL     1     -11.817  14.272  66.911  0.00  0.00    -0.040 C 
ENDBRANCH   1  20
BRANCH  10  21
ATOM     21  O   UNL     1      -4.988  20.801  66.005  0.00  0.00    -0.448 OA
BRANCH  21  22
ATOM     22  C   UNL     1      -3.626  20.785  66.341  0.00  0.00    +0.318 C 
ATOM     23  O   UNL     1      -3.037  21.753  66.908  0.00  0.00    -0.250 OA
ATOM     24  C   UNL     1      -2.719  19.681  65.945  0.00  0.00    +0.121 C 
ENDBRANCH  21  22
ENDBRANCH  10  21
BRANCH   1  25
ATOM     25  O   UNL     1     -10.994  13.703  69.093  0.00  0.00    -0.443 OA
BRANCH  25  26
ATOM     26  C   UNL     1     -11.149  12.367  68.909  0.00  0.00    +0.318 C 
ATOM     27  O   UNL     1     -12.198  11.875  69.367  0.00  0.00    -0.250 OA
ATOM     28  C   UNL     1     -10.023  11.590  68.335  0.00  0.00    +0.121 C 
ENDBRANCH  25  26
ENDBRANCH   1  25
TORSDOF 5
ENDMDL
