MODEL 1
REMARK VINA RESULT:      -7.8      0.000      0.000
REMARK  Name = 
REMARK  13 active torsions:
REMARK  status: ('A' for Active; 'I' for Inactive)
REMARK    1  A    between atoms: C_4  and  O_5
REMARK    2  A    between atoms: O_5  and  C_6
REMARK    3  A    between atoms: C_11  and  O_12
REMARK    4  A    between atoms: O_12  and  C_13
REMARK    5  A    between atoms: C_13  and  C_14
REMARK    6  A    between atoms: C_13  and  C_18
REMARK    7  A    between atoms: C_14  and  C_16
REMARK    8  A    between atoms: C_18  and  C_20
REMARK    9  A    between atoms: C_20  and  C_22
REMARK   10  A    between atoms: C_25  and  C_26
REMARK   11  A    between atoms: C_32  and  N_33
REMARK   12  A    between atoms: N_33  and  C_34
REMARK   13  A    between atoms: C_36  and  C_37
REMARK                            x       y       z     vdW  Elec       q    Type
REMARK                         _______ _______ _______ _____ _____    ______ ____
ROOT
ATOM      1  O   UNL     1      -9.867  11.372  66.603  0.00  0.00    -0.326 OA
ENDROOT
BRANCH   1   9
ATOM      2  C   UNL     1     -12.041  13.199  68.780  0.00  0.00    +0.034 C 
ATOM      3  C   UNL     1     -11.056  13.000  67.470  0.00  0.00    +0.136 C 
ATOM      4  C   UNL     1     -11.818  14.308  66.699  0.00  0.00    +0.133 C 
ATOM      5  C   UNL     1     -11.891  13.860  65.063  0.00  0.00    +0.205 C 
ATOM      6  O   UNL     1     -13.032  12.871  65.179  0.00  0.00    -0.219 OA
ATOM      7  C   UNL     1     -10.628  12.755  64.824  0.00  0.00    +0.239 C 
ATOM      8  O   UNL     1      -9.611  13.347  65.745  0.00  0.00    -0.215 OA
ATOM      9  C   UNL     1     -11.144  11.401  65.755  0.00  0.00    +0.269 C 
ATOM     10  O   UNL     1     -11.972  12.045  66.825  0.00  0.00    -0.330 OA
BRANCH   4  11
ATOM     11  N   UNL     1     -10.447  14.995  66.707  0.00  0.00    -0.209 NA
BRANCH  11  12
ATOM     12  C   UNL     1     -10.484  16.311  67.497  0.00  0.00    +0.127 C 
ATOM     13  C   UNL     1     -10.155  17.077  65.995  0.00  0.00    +0.205 C 
ATOM     14  O   UNL     1      -8.815  16.437  65.745  0.00  0.00    -0.218 OA
ATOM     15  C   UNL     1      -9.413  18.482  66.583  0.00  0.00    +0.218 C 
ATOM     16  O   UNL     1     -10.649  19.264  66.232  0.00  0.00    -0.217 OA
ATOM     17  C   UNL     1      -9.936  18.373  68.208  0.00  0.00    +0.205 C 
ATOM     18  O   UNL     1      -9.172  19.638  68.543  0.00  0.00    -0.216 OA
ATOM     19  C   UNL     1      -8.723  17.379  68.581  0.00  0.00    +0.018 C 
ATOM     20  C   UNL     1      -8.971  16.200  68.031  0.00  0.00    -0.010 C 
BRANCH  19  21
ATOM     21  C   UNL     1      -7.403  17.795  68.751  0.00  0.00    +0.207 C 
ATOM     22  O   UNL     1      -6.413  17.151  68.018  0.00  0.00    -0.215 OA
ENDBRANCH  19  21
ENDBRANCH  11  12
ENDBRANCH   4  11
ENDBRANCH   1   9
BRANCH   1  23
ATOM     23  C   UNL     1      -9.369   9.961  66.181  0.00  0.00    +0.180 C 
ATOM     24  C   UNL     1     -10.651   9.292  67.064  0.00  0.00    +0.180 C 
ATOM     25  O   UNL     1     -10.049   9.632  68.365  0.00  0.00    -0.326 OA
ATOM     26  C   UNL     1      -9.159   8.453  68.649  0.00  0.00    +0.270 C 
ATOM     27  C   UNL     1      -7.783   9.442  68.485  0.00  0.00    +0.240 C 
ATOM     28  O   UNL     1      -8.279  10.653  69.277  0.00  0.00    -0.215 OA
ATOM     29  C   UNL     1      -8.054  10.388  67.129  0.00  0.00    +0.217 C 
ATOM     30  O   UNL     1      -7.159   9.433  66.306  0.00  0.00    -0.218 OA
BRANCH  24  31
ATOM     31  C   UNL     1     -10.214   7.726  66.872  0.00  0.00    +0.214 C 
ATOM     32  O   UNL     1     -11.173   6.857  66.866  0.00  0.00    -0.218 OA
ENDBRANCH  24  31
BRANCH  26  33
ATOM     33  O   UNL     1      -9.325   8.754  70.128  0.00  0.00    -0.326 OA
BRANCH  33  34
ATOM     34  C   UNL     1     -10.326   7.861  70.744  0.00  0.00    +0.184 C 
BRANCH  34  35
ATOM     35  C   UNL     1      -9.281   7.101  71.842  0.00  0.00    +0.219 C 
ATOM     36  O   UNL     1      -8.625   6.487  70.635  0.00  0.00    -0.217 OA
BRANCH  35  37
ATOM     37  C   UNL     1     -10.253   5.705  72.020  0.00  0.00    +0.248 C 
ATOM     38  O   UNL     1      -9.054   4.794  72.197  0.00  0.00    -0.212 OA
BRANCH  37  39
ATOM     39  C   UNL     1     -10.305   5.939  73.617  0.00  0.00    +0.243 C 
ATOM     40  O   UNL     1     -10.902   5.068  74.222  0.00  0.00    -0.285 OA
ENDBRANCH  37  39
ENDBRANCH  35  37
ENDBRANCH  34  35
BRANCH  34  41
ATOM     41  C   UNL     1     -10.822   9.118  71.792  0.00  0.00    +0.214 C 
ATOM     42  O   UNL     1     -11.879   8.254  72.419  0.00  0.00    -0.218 OA
BRANCH  41  43
ATOM     43  C   UNL     1     -11.905   9.631  70.671  0.00  0.00    +0.217 C 
ATOM     44  O   UNL     1     -12.627  10.637  71.225  0.00  0.00    -0.217 OA
ENDBRANCH  41  43
ENDBRANCH  34  41
ENDBRANCH  33  34
ENDBRANCH  26  33
ENDBRANCH   1  23
TORSDOF 13
ENDMDL
MODEL 2
REMARK VINA RESULT:      -7.5      3.709      9.739
REMARK  Name = 
REMARK  13 active torsions:
REMARK  status: ('A' for Active; 'I' for Inactive)
REMARK    1  A    between atoms: C_4  and  O_5
REMARK    2  A    between atoms: O_5  and  C_6
REMARK    3  A    between atoms: C_11  and  O_12
REMARK    4  A    between atoms: O_12  and  C_13
REMARK    5  A    between atoms: C_13  and  C_14
REMARK    6  A    between atoms: C_13  and  C_18
REMARK    7  A    between atoms: C_14  and  C_16
REMARK    8  A    between atoms: C_18  and  C_20
REMARK    9  A    between atoms: C_20  and  C_22
REMARK   10  A    between atoms: C_25  and  C_26
REMARK   11  A    between atoms: C_32  and  N_33
REMARK   12  A    between atoms: N_33  and  C_34
REMARK   13  A    between atoms: C_36  and  C_37
REMARK                            x       y       z     vdW  Elec       q    Type
REMARK                         _______ _______ _______ _____ _____    ______ ____
ROOT
ATOM      1  O   UNL     1      -9.967  14.221  66.903  0.00  0.00    -0.326 OA
ENDROOT
BRANCH   1   9
ATOM      2  C   UNL     1     -12.226  12.904  64.461  0.00  0.00    +0.034 C 
ATOM      3  C   UNL     1     -10.957  12.839  65.516  0.00  0.00    +0.136 C 
ATOM      4  C   UNL     1     -11.122  11.150  65.609  0.00  0.00    +0.133 C 
ATOM      5  C   UNL     1     -10.786  10.774  67.231  0.00  0.00    +0.205 C 
ATOM      6  O   UNL     1     -12.102  11.239  67.818  0.00  0.00    -0.219 OA
ATOM      7  C   UNL     1      -9.801  12.027  67.807  0.00  0.00    +0.239 C 
ATOM      8  O   UNL     1      -9.011  12.304  66.569  0.00  0.00    -0.215 OA
ATOM      9  C   UNL     1     -10.876  13.373  67.800  0.00  0.00    +0.269 C 
ATOM     10  O   UNL     1     -11.823  13.020  66.693  0.00  0.00    -0.330 OA
BRANCH   4  11
ATOM     11  N   UNL     1      -9.700  11.071  65.037  0.00  0.00    -0.209 NA
BRANCH  11  12
ATOM     12  C   UNL     1      -9.636  10.133  63.824  0.00  0.00    +0.127 C 
ATOM     13  C   UNL     1      -8.379   9.325  64.672  0.00  0.00    +0.205 C 
ATOM     14  O   UNL     1      -7.415  10.481  64.726  0.00  0.00    -0.218 OA
ATOM     15  C   UNL     1      -7.563   8.662  63.344  0.00  0.00    +0.218 C 
ATOM     16  O   UNL     1      -8.105   7.306  63.706  0.00  0.00    -0.217 OA
ATOM     17  C   UNL     1      -8.798   8.851  62.177  0.00  0.00    +0.205 C 
ATOM     18  O   UNL     1      -7.893   8.260  61.116  0.00  0.00    -0.216 OA
ATOM     19  C   UNL     1      -8.362  10.377  61.892  0.00  0.00    +0.018 C 
ATOM     20  C   UNL     1      -8.720  11.110  62.935  0.00  0.00    -0.010 C 
BRANCH  19  21
ATOM     21  C   UNL     1      -7.235  10.737  61.152  0.00  0.00    +0.207 C 
ATOM     22  O   UNL     1      -6.845  12.070  61.159  0.00  0.00    -0.215 OA
ENDBRANCH  19  21
ENDBRANCH  11  12
ENDBRANCH   4  11
ENDBRANCH   1   9
BRANCH   1  23
ATOM     23  C   UNL     1     -10.775  15.547  66.984  0.00  0.00    +0.180 C 
ATOM     24  C   UNL     1      -9.697  16.222  65.865  0.00  0.00    +0.180 C 
ATOM     25  O   UNL     1      -8.590  16.286  66.835  0.00  0.00    -0.326 OA
ATOM     26  C   UNL     1      -8.809  17.610  67.515  0.00  0.00    +0.270 C 
ATOM     27  C   UNL     1      -9.180  16.811  68.972  0.00  0.00    +0.240 C 
ATOM     28  O   UNL     1      -8.064  15.766  68.947  0.00  0.00    -0.215 OA
ATOM     29  C   UNL     1     -10.193  15.543  68.556  0.00  0.00    +0.217 C 
ATOM     30  O   UNL     1     -11.408  16.391  69.001  0.00  0.00    -0.218 OA
BRANCH  24  31
ATOM     31  C   UNL     1     -10.301  17.743  65.916  0.00  0.00    +0.214 C 
ATOM     32  O   UNL     1     -11.039  18.104  64.916  0.00  0.00    -0.218 OA
ENDBRANCH  24  31
BRANCH  26  33
ATOM     33  O   UNL     1      -7.317  17.648  67.797  0.00  0.00    -0.326 OA
BRANCH  33  34
ATOM     34  C   UNL     1      -6.764  18.997  67.562  0.00  0.00    +0.184 C 
BRANCH  34  35
ATOM     35  C   UNL     1      -5.777  19.063  68.938  0.00  0.00    +0.219 C 
ATOM     36  O   UNL     1      -7.049  19.274  69.714  0.00  0.00    -0.217 OA
BRANCH  35  37
ATOM     37  C   UNL     1      -5.543  20.755  68.866  0.00  0.00    +0.248 C 
ATOM     38  O   UNL     1      -5.668  20.919  70.367  0.00  0.00    -0.212 OA
BRANCH  37  39
ATOM     39  C   UNL     1      -3.950  20.548  69.024  0.00  0.00    +0.243 C 
ATOM     40  O   UNL     1      -3.455  21.206  69.919  0.00  0.00    -0.285 OA
ENDBRANCH  37  39
ENDBRANCH  35  37
ENDBRANCH  34  35
BRANCH  34  41
ATOM     41  C   UNL     1      -5.584  18.344  66.511  0.00  0.00    +0.214 C 
ATOM     42  O   UNL     1      -5.052  19.707  66.170  0.00  0.00    -0.218 OA
BRANCH  41  43
ATOM     43  C   UNL     1      -6.639  18.441  65.258  0.00  0.00    +0.217 C 
ATOM     44  O   UNL     1      -5.943  18.839  64.164  0.00  0.00    -0.217 OA
ENDBRANCH  41  43
ENDBRANCH  34  41
ENDBRANCH  33  34
ENDBRANCH  26  33
ENDBRANCH   1  23
TORSDOF 13
ENDMDL
MODEL 3
REMARK VINA RESULT:      -7.4      0.851      1.332
REMARK  Name = 
REMARK  13 active torsions:
REMARK  status: ('A' for Active; 'I' for Inactive)
REMARK    1  A    between atoms: C_4  and  O_5
REMARK    2  A    between atoms: O_5  and  C_6
REMARK    3  A    between atoms: C_11  and  O_12
REMARK    4  A    between atoms: O_12  and  C_13
REMARK    5  A    between atoms: C_13  and  C_14
REMARK    6  A    between atoms: C_13  and  C_18
REMARK    7  A    between atoms: C_14  and  C_16
REMARK    8  A    between atoms: C_18  and  C_20
REMARK    9  A    between atoms: C_20  and  C_22
REMARK   10  A    between atoms: C_25  and  C_26
REMARK   11  A    between atoms: C_32  and  N_33
REMARK   12  A    between atoms: N_33  and  C_34
REMARK   13  A    between atoms: C_36  and  C_37
REMARK                            x       y       z     vdW  Elec       q    Type
REMARK                         _______ _______ _______ _____ _____    ______ ____
ROOT
ATOM      1  O   UNL     1     -10.066  11.355  66.841  0.00  0.00    -0.326 OA
ENDROOT
BRANCH   1   9
ATOM      2  C   UNL     1     -11.996  13.772  68.639  0.00  0.00    +0.034 C 
ATOM      3  C   UNL     1     -11.013  13.247  67.420  0.00  0.00    +0.136 C 
ATOM      4  C   UNL     1     -11.539  14.534  66.444  0.00  0.00    +0.133 C 
ATOM      5  C   UNL     1     -11.630  13.878  64.880  0.00  0.00    +0.205 C 
ATOM      6  O   UNL     1     -12.914  13.097  65.068  0.00  0.00    -0.219 OA
ATOM      7  C   UNL     1     -10.547  12.574  64.856  0.00  0.00    +0.239 C 
ATOM      8  O   UNL     1      -9.480  13.129  65.742  0.00  0.00    -0.215 OA
ATOM      9  C   UNL     1     -11.296  11.455  65.931  0.00  0.00    +0.269 C 
ATOM     10  O   UNL     1     -12.046  12.359  66.861  0.00  0.00    -0.330 OA
BRANCH   4  11
ATOM     11  N   UNL     1     -10.078  15.002  66.431  0.00  0.00    -0.209 NA
BRANCH  11  12
ATOM     12  C   UNL     1      -9.974  16.504  66.130  0.00  0.00    +0.127 C 
ATOM     13  C   UNL     1      -8.276  16.290  66.281  0.00  0.00    +0.205 C 
ATOM     14  O   UNL     1      -8.269  15.853  67.723  0.00  0.00    -0.218 OA
ATOM     15  C   UNL     1      -7.860  17.871  66.722  0.00  0.00    +0.218 C 
ATOM     16  O   UNL     1      -7.285  18.087  65.349  0.00  0.00    -0.217 OA
ATOM     17  C   UNL     1      -9.306  18.648  66.246  0.00  0.00    +0.205 C 
ATOM     18  O   UNL     1      -8.761  19.974  66.736  0.00  0.00    -0.216 OA
ATOM     19  C   UNL     1     -10.023  18.273  67.641  0.00  0.00    +0.018 C 
ATOM     20  C   UNL     1     -10.280  16.974  67.637  0.00  0.00    -0.010 C 
BRANCH  19  21
ATOM     21  C   UNL     1      -9.756  18.918  68.848  0.00  0.00    +0.207 C 
ATOM     22  O   UNL     1     -10.491  20.055  69.160  0.00  0.00    -0.215 OA
ENDBRANCH  19  21
ENDBRANCH  11  12
ENDBRANCH   4  11
ENDBRANCH   1   9
BRANCH   1  23
ATOM     23  C   UNL     1      -9.561   9.967  66.352  0.00  0.00    +0.180 C 
ATOM     24  C   UNL     1     -10.806   9.247  67.245  0.00  0.00    +0.180 C 
ATOM     25  O   UNL     1     -10.172   9.548  68.541  0.00  0.00    -0.326 OA
ATOM     26  C   UNL     1      -9.258   8.374  68.755  0.00  0.00    +0.270 C 
ATOM     27  C   UNL     1      -7.901   9.389  68.589  0.00  0.00    +0.240 C 
ATOM     28  O   UNL     1      -8.392  10.562  69.439  0.00  0.00    -0.215 OA
ATOM     29  C   UNL     1      -8.225  10.380  67.278  0.00  0.00    +0.217 C 
ATOM     30  O   UNL     1      -7.340   9.469  66.394  0.00  0.00    -0.218 OA
BRANCH  24  31
ATOM     31  C   UNL     1     -10.353   7.696  66.983  0.00  0.00    +0.214 C 
ATOM     32  O   UNL     1     -11.306   6.826  66.884  0.00  0.00    -0.218 OA
ENDBRANCH  24  31
BRANCH  26  33
ATOM     33  O   UNL     1      -9.385   8.618  70.249  0.00  0.00    -0.326 OA
BRANCH  33  34
ATOM     34  C   UNL     1     -10.290   7.633  70.874  0.00  0.00    +0.184 C 
BRANCH  34  35
ATOM     35  C   UNL     1      -9.134   6.884  71.863  0.00  0.00    +0.219 C 
ATOM     36  O   UNL     1      -8.486   6.427  70.583  0.00  0.00    -0.217 OA
BRANCH  35  37
ATOM     37  C   UNL     1      -9.974   5.398  71.965  0.00  0.00    +0.248 C 
ATOM     38  O   UNL     1      -8.698   4.581  71.935  0.00  0.00    -0.212 OA
BRANCH  37  39
ATOM     39  C   UNL     1      -9.895   5.458  73.576  0.00  0.00    +0.243 C 
ATOM     40  O   UNL     1     -10.823   4.905  74.135  0.00  0.00    -0.285 OA
ENDBRANCH  37  39
ENDBRANCH  35  37
ENDBRANCH  34  35
BRANCH  34  41
ATOM     41  C   UNL     1     -10.791   8.801  72.018  0.00  0.00    +0.214 C 
ATOM     42  O   UNL     1     -11.740   7.835  72.670  0.00  0.00    -0.218 OA
BRANCH  41  43
ATOM     43  C   UNL     1     -11.985   9.288  71.003  0.00  0.00    +0.217 C 
ATOM     44  O   UNL     1     -12.015  10.644  71.023  0.00  0.00    -0.217 OA
ENDBRANCH  41  43
ENDBRANCH  34  41
ENDBRANCH  33  34
ENDBRANCH  26  33
ENDBRANCH   1  23
TORSDOF 13
ENDMDL
MODEL 4
REMARK VINA RESULT:      -7.3      2.232      9.651
REMARK  Name = 
REMARK  13 active torsions:
REMARK  status: ('A' for Active; 'I' for Inactive)
REMARK    1  A    between atoms: C_4  and  O_5
REMARK    2  A    between atoms: O_5  and  C_6
REMARK    3  A    between atoms: C_11  and  O_12
REMARK    4  A    between atoms: O_12  and  C_13
REMARK    5  A    between atoms: C_13  and  C_14
REMARK    6  A    between atoms: C_13  and  C_18
REMARK    7  A    between atoms: C_14  and  C_16
REMARK    8  A    between atoms: C_18  and  C_20
REMARK    9  A    between atoms: C_20  and  C_22
REMARK   10  A    between atoms: C_25  and  C_26
REMARK   11  A    between atoms: C_32  and  N_33
REMARK   12  A    between atoms: N_33  and  C_34
REMARK   13  A    between atoms: C_36  and  C_37
REMARK                            x       y       z     vdW  Elec       q    Type
REMARK                         _______ _______ _______ _____ _____    ______ ____
ROOT
ATOM      1  O   UNL     1     -10.394  13.660  67.616  0.00  0.00    -0.326 OA
ENDROOT
BRANCH   1   9
ATOM      2  C   UNL     1      -7.625  11.459  68.154  0.00  0.00    +0.034 C 
ATOM      3  C   UNL     1      -9.222  11.843  67.987  0.00  0.00    +0.136 C 
ATOM      4  C   UNL     1      -9.562  10.234  67.560  0.00  0.00    +0.133 C 
ATOM      5  C   UNL     1     -10.762  10.351  66.364  0.00  0.00    +0.205 C 
ATOM      6  O   UNL     1      -9.863  10.783  65.224  0.00  0.00    -0.219 OA
ATOM      7  C   UNL     1     -11.548  11.828  66.633  0.00  0.00    +0.239 C 
ATOM      8  O   UNL     1     -11.494  11.863  68.125  0.00  0.00    -0.215 OA
ATOM      9  C   UNL     1     -10.320  12.973  66.248  0.00  0.00    +0.269 C 
ATOM     10  O   UNL     1      -9.067  12.219  66.572  0.00  0.00    -0.330 OA
BRANCH   4  11
ATOM     11  N   UNL     1     -10.459  10.188  68.805  0.00  0.00    -0.209 NA
BRANCH  11  12
ATOM     12  C   UNL     1     -10.448   8.796  69.452  0.00  0.00    +0.127 C 
ATOM     13  C   UNL     1     -11.899   9.284  70.230  0.00  0.00    +0.205 C 
ATOM     14  O   UNL     1     -11.318  10.433  71.011  0.00  0.00    -0.218 OA
ATOM     15  C   UNL     1     -11.811   8.273  71.587  0.00  0.00    +0.218 C 
ATOM     16  O   UNL     1     -12.906   7.421  71.005  0.00  0.00    -0.217 OA
ATOM     17  C   UNL     1     -10.637   7.177  71.001  0.00  0.00    +0.205 C 
ATOM     18  O   UNL     1     -10.681   6.422  72.313  0.00  0.00    -0.216 OA
ATOM     19  C   UNL     1      -9.434   8.153  71.446  0.00  0.00    +0.018 C 
ATOM     20  C   UNL     1      -9.418   9.190  70.622  0.00  0.00    -0.010 C 
BRANCH  19  21
ATOM     21  C   UNL     1      -9.015   8.315  72.766  0.00  0.00    +0.207 C 
ATOM     22  O   UNL     1      -7.715   8.751  72.992  0.00  0.00    -0.215 OA
ENDBRANCH  19  21
ENDBRANCH  11  12
ENDBRANCH   4  11
ENDBRANCH   1   9
BRANCH   1  23
ATOM     23  C   UNL     1     -11.106  14.964  67.155  0.00  0.00    +0.180 C 
ATOM     24  C   UNL     1      -9.739  15.332  66.228  0.00  0.00    +0.180 C 
ATOM     25  O   UNL     1      -8.912  15.641  67.407  0.00  0.00    -0.326 OA
ATOM     26  C   UNL     1      -9.206  17.094  67.660  0.00  0.00    +0.270 C 
ATOM     27  C   UNL     1      -9.987  16.692  69.118  0.00  0.00    +0.240 C 
ATOM     28  O   UNL     1      -8.972  15.674  69.643  0.00  0.00    -0.215 OA
ATOM     29  C   UNL     1     -10.943  15.359  68.776  0.00  0.00    +0.217 C 
ATOM     30  O   UNL     1     -12.172  16.292  68.666  0.00  0.00    -0.218 OA
BRANCH  24  31
ATOM     31  C   UNL     1     -10.233  16.816  65.745  0.00  0.00    +0.214 C 
ATOM     32  O   UNL     1     -10.940  16.864  64.662  0.00  0.00    -0.218 OA
ENDBRANCH  24  31
BRANCH  26  33
ATOM     33  O   UNL     1      -7.836  17.203  68.304  0.00  0.00    -0.326 OA
BRANCH  33  34
ATOM     34  C   UNL     1      -6.897  17.946  67.439  0.00  0.00    +0.184 C 
BRANCH  34  35
ATOM     35  C   UNL     1      -6.970  19.422  68.270  0.00  0.00    +0.219 C 
ATOM     36  O   UNL     1      -8.207  19.700  67.457  0.00  0.00    -0.217 OA
BRANCH  35  37
ATOM     37  C   UNL     1      -6.030  20.276  67.125  0.00  0.00    +0.248 C 
ATOM     38  O   UNL     1      -6.837  21.549  67.290  0.00  0.00    -0.212 OA
BRANCH  37  39
ATOM     39  C   UNL     1      -5.032  20.761  68.298  0.00  0.00    +0.243 C 
ATOM     40  O   UNL     1      -3.863  20.802  67.963  0.00  0.00    -0.285 OA
ENDBRANCH  37  39
ENDBRANCH  35  37
ENDBRANCH  34  35
BRANCH  34  41
ATOM     41  C   UNL     1      -5.570  17.305  68.306  0.00  0.00    +0.214 C 
ATOM     42  O   UNL     1      -4.611  17.651  67.203  0.00  0.00    -0.218 OA
BRANCH  41  43
ATOM     43  C   UNL     1      -5.828  15.836  67.622  0.00  0.00    +0.217 C 
ATOM     44  O   UNL     1      -4.621  15.329  67.268  0.00  0.00    -0.217 OA
ENDBRANCH  41  43
ENDBRANCH  34  41
ENDBRANCH  33  34
ENDBRANCH  26  33
ENDBRANCH   1  23
TORSDOF 13
ENDMDL
MODEL 5
REMARK VINA RESULT:      -7.1      1.964      2.921
REMARK  Name = 
REMARK  13 active torsions:
REMARK  status: ('A' for Active; 'I' for Inactive)
REMARK    1  A    between atoms: C_4  and  O_5
REMARK    2  A    between atoms: O_5  and  C_6
REMARK    3  A    between atoms: C_11  and  O_12
REMARK    4  A    between atoms: O_12  and  C_13
REMARK    5  A    between atoms: C_13  and  C_14
REMARK    6  A    between atoms: C_13  and  C_18
REMARK    7  A    between atoms: C_14  and  C_16
REMARK    8  A    between atoms: C_18  and  C_20
REMARK    9  A    between atoms: C_20  and  C_22
REMARK   10  A    between atoms: C_25  and  C_26
REMARK   11  A    between atoms: C_32  and  N_33
REMARK   12  A    between atoms: N_33  and  C_34
REMARK   13  A    between atoms: C_36  and  C_37
REMARK                            x       y       z     vdW  Elec       q    Type
REMARK                         _______ _______ _______ _____ _____    ______ ____
ROOT
ATOM      1  O   UNL     1     -10.130  11.508  65.691  0.00  0.00    -0.326 OA
ENDROOT
BRANCH   1   9
ATOM      2  C   UNL     1     -11.940  12.902  68.445  0.00  0.00    +0.034 C 
ATOM      3  C   UNL     1     -11.118  12.953  67.014  0.00  0.00    +0.136 C 
ATOM      4  C   UNL     1     -11.881  14.423  66.630  0.00  0.00    +0.133 C 
ATOM      5  C   UNL     1     -12.158  14.338  64.956  0.00  0.00    +0.205 C 
ATOM      6  O   UNL     1     -13.336  13.387  64.999  0.00  0.00    -0.219 OA
ATOM      7  C   UNL     1     -10.997  13.266  64.343  0.00  0.00    +0.239 C 
ATOM      8  O   UNL     1      -9.852  13.610  65.239  0.00  0.00    -0.215 OA
ATOM      9  C   UNL     1     -11.488  11.762  65.026  0.00  0.00    +0.269 C 
ATOM     10  O   UNL     1     -12.154  12.192  66.298  0.00  0.00    -0.330 OA
BRANCH   4  11
ATOM     11  N   UNL     1     -10.478  15.043  66.616  0.00  0.00    -0.209 NA
BRANCH  11  12
ATOM     12  C   UNL     1     -10.383  16.235  67.579  0.00  0.00    +0.127 C 
ATOM     13  C   UNL     1     -10.216  17.201  66.169  0.00  0.00    +0.205 C 
ATOM     14  O   UNL     1      -8.934  16.589  65.670  0.00  0.00    -0.218 OA
ATOM     15  C   UNL     1      -9.371  18.501  66.851  0.00  0.00    +0.218 C 
ATOM     16  O   UNL     1     -10.618  19.338  66.766  0.00  0.00    -0.217 OA
ATOM     17  C   UNL     1      -9.698  18.170  68.496  0.00  0.00    +0.205 C 
ATOM     18  O   UNL     1      -8.864  19.367  68.907  0.00  0.00    -0.216 OA
ATOM     19  C   UNL     1      -8.477  17.121  68.577  0.00  0.00    +0.018 C 
ATOM     20  C   UNL     1      -8.822  16.034  67.903  0.00  0.00    -0.010 C 
BRANCH  19  21
ATOM     21  C   UNL     1      -7.135  17.495  68.639  0.00  0.00    +0.207 C 
ATOM     22  O   UNL     1      -6.258  16.951  67.709  0.00  0.00    -0.215 OA
ENDBRANCH  19  21
ENDBRANCH  11  12
ENDBRANCH   4  11
ENDBRANCH   1   9
BRANCH   1  23
ATOM     23  C   UNL     1     -10.000  10.002  65.326  0.00  0.00    +0.180 C 
ATOM     24  C   UNL     1     -10.155   9.634  66.971  0.00  0.00    +0.180 C 
ATOM     25  O   UNL     1      -8.818  10.153  67.305  0.00  0.00    -0.326 OA
ATOM     26  C   UNL     1      -7.921   8.970  67.063  0.00  0.00    +0.270 C 
ATOM     27  C   UNL     1      -7.196   9.777  65.751  0.00  0.00    +0.240 C 
ATOM     28  O   UNL     1      -7.038  11.156  66.394  0.00  0.00    -0.215 OA
ATOM     29  C   UNL     1      -8.452  10.474  64.888  0.00  0.00    +0.217 C 
ATOM     30  O   UNL     1      -8.386   9.302  63.882  0.00  0.00    -0.218 OA
BRANCH  24  31
ATOM     31  C   UNL     1      -9.884   8.025  66.830  0.00  0.00    +0.214 C 
ATOM     32  O   UNL     1     -10.927   7.260  66.864  0.00  0.00    -0.218 OA
ENDBRANCH  24  31
BRANCH  26  33
ATOM     33  O   UNL     1      -6.963   9.557  68.085  0.00  0.00    -0.326 OA
BRANCH  33  34
ATOM     34  C   UNL     1      -6.817   8.665  69.252  0.00  0.00    +0.184 C 
BRANCH  34  35
ATOM     35  C   UNL     1      -5.160   8.921  69.506  0.00  0.00    +0.219 C 
ATOM     36  O   UNL     1      -5.005   8.703  68.025  0.00  0.00    -0.217 OA
BRANCH  35  37
ATOM     37  C   UNL     1      -4.802   7.272  69.783  0.00  0.00    +0.248 C 
ATOM     38  O   UNL     1      -3.382   7.411  69.272  0.00  0.00    -0.212 OA
BRANCH  37  39
ATOM     39  C   UNL     1      -4.296   7.628  71.275  0.00  0.00    +0.243 C 
ATOM     40  O   UNL     1      -3.890   6.665  71.898  0.00  0.00    -0.285 OA
ENDBRANCH  37  39
ENDBRANCH  35  37
ENDBRANCH  34  35
BRANCH  34  41
ATOM     41  C   UNL     1      -7.363   9.909  70.289  0.00  0.00    +0.214 C 
ATOM     42  O   UNL     1      -6.836   9.203  71.506  0.00  0.00    -0.218 OA
BRANCH  41  43
ATOM     43  C   UNL     1      -8.801   9.138  70.464  0.00  0.00    +0.217 C 
ATOM     44  O   UNL     1      -9.063   9.049  71.792  0.00  0.00    -0.217 OA
ENDBRANCH  41  43
ENDBRANCH  34  41
ENDBRANCH  33  34
ENDBRANCH  26  33
ENDBRANCH   1  23
TORSDOF 13
ENDMDL
MODEL 6
REMARK VINA RESULT:      -7.1      3.368      6.399
REMARK  Name = 
REMARK  13 active torsions:
REMARK  status: ('A' for Active; 'I' for Inactive)
REMARK    1  A    between atoms: C_4  and  O_5
REMARK    2  A    between atoms: O_5  and  C_6
REMARK    3  A    between atoms: C_11  and  O_12
REMARK    4  A    between atoms: O_12  and  C_13
REMARK    5  A    between atoms: C_13  and  C_14
REMARK    6  A    between atoms: C_13  and  C_18
REMARK    7  A    between atoms: C_14  and  C_16
REMARK    8  A    between atoms: C_18  and  C_20
REMARK    9  A    between atoms: C_20  and  C_22
REMARK   10  A    between atoms: C_25  and  C_26
REMARK   11  A    between atoms: C_32  and  N_33
REMARK   12  A    between atoms: N_33  and  C_34
REMARK   13  A    between atoms: C_36  and  C_37
REMARK                            x       y       z     vdW  Elec       q    Type
REMARK                         _______ _______ _______ _____ _____    ______ ____
ROOT
ATOM      1  O   UNL     1     -10.671  15.047  67.145  0.00  0.00    -0.326 OA
ENDROOT
BRANCH   1   9
ATOM      2  C   UNL     1      -7.848  15.205  69.338  0.00  0.00    +0.034 C 
ATOM      3  C   UNL     1      -8.920  15.800  68.232  0.00  0.00    +0.136 C 
ATOM      4  C   UNL     1      -8.563  17.382  68.739  0.00  0.00    +0.133 C 
ATOM      5  C   UNL     1     -10.048  18.202  68.665  0.00  0.00    +0.205 C 
ATOM      6  O   UNL     1     -10.661  17.614  69.919  0.00  0.00    -0.219 OA
ATOM      7  C   UNL     1     -10.984  17.375  67.520  0.00  0.00    +0.239 C 
ATOM      8  O   UNL     1      -9.906  16.989  66.560  0.00  0.00    -0.215 OA
ATOM      9  C   UNL     1     -11.265  15.864  68.298  0.00  0.00    +0.269 C 
ATOM     10  O   UNL     1     -10.054  15.722  69.168  0.00  0.00    -0.330 OA
BRANCH   4  11
ATOM     11  N   UNL     1      -8.071  17.633  67.307  0.00  0.00    -0.209 NA
BRANCH  11  12
ATOM     12  C   UNL     1      -6.705  18.333  67.299  0.00  0.00    +0.127 C 
ATOM     13  C   UNL     1      -7.580  19.761  66.916  0.00  0.00    +0.205 C 
ATOM     14  O   UNL     1      -8.143  19.291  65.601  0.00  0.00    -0.218 OA
ATOM     15  C   UNL     1      -6.346  20.609  66.123  0.00  0.00    +0.218 C 
ATOM     16  O   UNL     1      -6.218  21.513  67.319  0.00  0.00    -0.217 OA
ATOM     17  C   UNL     1      -5.018  19.682  66.674  0.00  0.00    +0.205 C 
ATOM     18  O   UNL     1      -4.074  20.544  65.860  0.00  0.00    -0.216 OA
ATOM     19  C   UNL     1      -5.239  18.588  65.510  0.00  0.00    +0.018 C 
ATOM     20  C   UNL     1      -6.326  17.890  65.801  0.00  0.00    -0.010 C 
BRANCH  19  21
ATOM     21  C   UNL     1      -4.888  18.793  64.176  0.00  0.00    +0.207 C 
ATOM     22  O   UNL     1      -5.906  19.031  63.260  0.00  0.00    -0.215 OA
ENDBRANCH  19  21
ENDBRANCH  11  12
ENDBRANCH   4  11
ENDBRANCH   1   9
BRANCH   1  23
ATOM     23  C   UNL     1     -11.799  13.980  67.045  0.00  0.00    +0.180 C 
ATOM     24  C   UNL     1     -10.685  12.817  67.569  0.00  0.00    +0.180 C 
ATOM     25  O   UNL     1      -9.938  12.830  66.299  0.00  0.00    -0.326 OA
ATOM     26  C   UNL     1     -10.679  11.829  65.456  0.00  0.00    +0.270 C 
ATOM     27  C   UNL     1     -11.196  13.075  64.416  0.00  0.00    +0.240 C 
ATOM     28  O   UNL     1      -9.874  13.836  64.302  0.00  0.00    -0.215 OA
ATOM     29  C   UNL     1     -11.679  14.334  65.411  0.00  0.00    +0.217 C 
ATOM     30  O   UNL     1     -13.150  13.899  65.216  0.00  0.00    -0.218 OA
BRANCH  24  31
ATOM     31  C   UNL     1     -11.668  11.520  67.386  0.00  0.00    +0.214 C 
ATOM     32  O   UNL     1     -12.168  11.019  68.469  0.00  0.00    -0.218 OA
ENDBRANCH  24  31
BRANCH  26  33
ATOM     33  O   UNL     1      -9.385  11.594  64.697  0.00  0.00    -0.326 OA
BRANCH  33  34
ATOM     34  C   UNL     1      -9.184  10.158  64.418  0.00  0.00    +0.184 C 
BRANCH  34  35
ATOM     35  C   UNL     1      -8.322  10.344  62.970  0.00  0.00    +0.219 C 
ATOM     36  O   UNL     1      -9.509  11.132  62.485  0.00  0.00    -0.217 OA
BRANCH  35  37
ATOM     37  C   UNL     1      -8.963   8.936  62.242  0.00  0.00    +0.248 C 
ATOM     38  O   UNL     1      -8.999   9.567  60.864  0.00  0.00    -0.212 OA
BRANCH  37  39
ATOM     39  C   UNL     1      -7.468   8.399  61.952  0.00  0.00    +0.243 C 
ATOM     40  O   UNL     1      -7.387   7.187  61.879  0.00  0.00    -0.285 OA
ENDBRANCH  37  39
ENDBRANCH  35  37
ENDBRANCH  34  35
BRANCH  34  41
ATOM     41  C   UNL     1      -7.821  10.135  65.450  0.00  0.00    +0.214 C 
ATOM     42  O   UNL     1      -7.465   8.734  65.041  0.00  0.00    -0.218 OA
BRANCH  41  43
ATOM     43  C   UNL     1      -8.747   9.545  66.669  0.00  0.00    +0.217 C 
ATOM     44  O   UNL     1      -8.338  10.133  67.820  0.00  0.00    -0.217 OA
ENDBRANCH  41  43
ENDBRANCH  34  41
ENDBRANCH  33  34
ENDBRANCH  26  33
ENDBRANCH   1  23
TORSDOF 13
ENDMDL
MODEL 7
REMARK VINA RESULT:      -7.0      3.255      6.160
REMARK  Name = 
REMARK  13 active torsions:
REMARK  status: ('A' for Active; 'I' for Inactive)
REMARK    1  A    between atoms: C_4  and  O_5
REMARK    2  A    between atoms: O_5  and  C_6
REMARK    3  A    between atoms: C_11  and  O_12
REMARK    4  A    between atoms: O_12  and  C_13
REMARK    5  A    between atoms: C_13  and  C_14
REMARK    6  A    between atoms: C_13  and  C_18
REMARK    7  A    between atoms: C_14  and  C_16
REMARK    8  A    between atoms: C_18  and  C_20
REMARK    9  A    between atoms: C_20  and  C_22
REMARK   10  A    between atoms: C_25  and  C_26
REMARK   11  A    between atoms: C_32  and  N_33
REMARK   12  A    between atoms: N_33  and  C_34
REMARK   13  A    between atoms: C_36  and  C_37
REMARK                            x       y       z     vdW  Elec       q    Type
REMARK                         _______ _______ _______ _____ _____    ______ ____
ROOT
ATOM      1  O   UNL     1     -10.718  13.996  67.204  0.00  0.00    -0.326 OA
ENDROOT
BRANCH   1   9
ATOM      2  C   UNL     1      -7.754  14.708  69.078  0.00  0.00    +0.034 C 
ATOM      3  C   UNL     1      -9.068  15.088  68.152  0.00  0.00    +0.136 C 
ATOM      4  C   UNL     1      -9.028  16.678  68.751  0.00  0.00    +0.133 C 
ATOM      5  C   UNL     1     -10.661  17.116  68.912  0.00  0.00    +0.205 C 
ATOM      6  O   UNL     1     -10.954  16.326  70.171  0.00  0.00    -0.219 OA
ATOM      7  C   UNL     1     -11.516  16.153  67.810  0.00  0.00    +0.239 C 
ATOM      8  O   UNL     1     -10.510  16.096  66.707  0.00  0.00    -0.215 OA
ATOM      9  C   UNL     1     -11.334  14.577  68.482  0.00  0.00    +0.269 C 
ATOM     10  O   UNL     1     -10.022  14.684  69.198  0.00  0.00    -0.330 OA
BRANCH   4  11
ATOM     11  N   UNL     1      -8.796  17.121  67.300  0.00  0.00    -0.209 NA
BRANCH  11  12
ATOM     12  C   UNL     1      -8.499  18.625  67.216  0.00  0.00    +0.127 C 
ATOM     13  C   UNL     1      -7.271  18.193  66.096  0.00  0.00    +0.205 C 
ATOM     14  O   UNL     1      -6.442  17.358  67.036  0.00  0.00    -0.218 OA
ATOM     15  C   UNL     1      -6.245  19.523  66.318  0.00  0.00    +0.218 C 
ATOM     16  O   UNL     1      -6.684  20.066  64.985  0.00  0.00    -0.217 OA
ATOM     17  C   UNL     1      -7.353  20.557  67.110  0.00  0.00    +0.205 C 
ATOM     18  O   UNL     1      -6.277  21.616  67.242  0.00  0.00    -0.216 OA
ATOM     19  C   UNL     1      -7.044  19.873  68.537  0.00  0.00    +0.018 C 
ATOM     20  C   UNL     1      -7.592  18.667  68.543  0.00  0.00    -0.010 C 
BRANCH  19  21
ATOM     21  C   UNL     1      -5.884  20.106  69.274  0.00  0.00    +0.207 C 
ATOM     22  O   UNL     1      -6.017  20.466  70.610  0.00  0.00    -0.215 OA
ENDBRANCH  19  21
ENDBRANCH  11  12
ENDBRANCH   4  11
ENDBRANCH   1   9
BRANCH   1  23
ATOM     23  C   UNL     1     -11.645  12.754  67.073  0.00  0.00    +0.180 C 
ATOM     24  C   UNL     1     -10.318  11.776  67.455  0.00  0.00    +0.180 C 
ATOM     25  O   UNL     1      -9.659  12.009  66.158  0.00  0.00    -0.326 OA
ATOM     26  C   UNL     1     -10.261  10.951  65.274  0.00  0.00    +0.270 C 
ATOM     27  C   UNL     1     -11.048  12.152  64.358  0.00  0.00    +0.240 C 
ATOM     28  O   UNL     1      -9.888  13.143  64.243  0.00  0.00    -0.215 OA
ATOM     29  C   UNL     1     -11.684  13.234  65.467  0.00  0.00    +0.217 C 
ATOM     30  O   UNL     1     -13.066  12.558  65.306  0.00  0.00    -0.218 OA
BRANCH  24  31
ATOM     31  C   UNL     1     -11.068  10.340  67.217  0.00  0.00    +0.214 C 
ATOM     32  O   UNL     1     -11.118   9.541  68.234  0.00  0.00    -0.218 OA
ENDBRANCH  24  31
BRANCH  26  33
ATOM     33  O   UNL     1      -8.992  11.003  64.442  0.00  0.00    -0.326 OA
BRANCH  33  34
ATOM     34  C   UNL     1      -8.528   9.645  64.093  0.00  0.00    +0.184 C 
BRANCH  34  35
ATOM     35  C   UNL     1      -8.116   9.971  62.481  0.00  0.00    +0.219 C 
ATOM     36  O   UNL     1      -9.582  10.241  62.269  0.00  0.00    -0.217 OA
BRANCH  35  37
ATOM     37  C   UNL     1      -8.339   8.361  61.949  0.00  0.00    +0.248 C 
ATOM     38  O   UNL     1      -8.870   8.796  60.598  0.00  0.00    -0.212 OA
BRANCH  37  39
ATOM     39  C   UNL     1      -6.839   8.347  61.350  0.00  0.00    +0.243 C 
ATOM     40  O   UNL     1      -6.398   7.230  61.156  0.00  0.00    -0.285 OA
ENDBRANCH  37  39
ENDBRANCH  35  37
ENDBRANCH  34  35
BRANCH  34  41
ATOM     41  C   UNL     1      -6.990   9.987  64.756  0.00  0.00    +0.214 C 
ATOM     42  O   UNL     1      -6.484   8.609  64.436  0.00  0.00    -0.218 OA
BRANCH  41  43
ATOM     43  C   UNL     1      -7.500   9.459  66.224  0.00  0.00    +0.217 C 
ATOM     44  O   UNL     1      -6.958  10.271  67.165  0.00  0.00    -0.217 OA
ENDBRANCH  41  43
ENDBRANCH  34  41
ENDBRANCH  33  34
ENDBRANCH  26  33
ENDBRANCH   1  23
TORSDOF 13
ENDMDL
MODEL 8
REMARK VINA RESULT:      -6.9      2.331      3.218
REMARK  Name = 
REMARK  13 active torsions:
REMARK  status: ('A' for Active; 'I' for Inactive)
REMARK    1  A    between atoms: C_4  and  O_5
REMARK    2  A    between atoms: O_5  and  C_6
REMARK    3  A    between atoms: C_11  and  O_12
REMARK    4  A    between atoms: O_12  and  C_13
REMARK    5  A    between atoms: C_13  and  C_14
REMARK    6  A    between atoms: C_13  and  C_18
REMARK    7  A    between atoms: C_14  and  C_16
REMARK    8  A    between atoms: C_18  and  C_20
REMARK    9  A    between atoms: C_20  and  C_22
REMARK   10  A    between atoms: C_25  and  C_26
REMARK   11  A    between atoms: C_32  and  N_33
REMARK   12  A    between atoms: N_33  and  C_34
REMARK   13  A    between atoms: C_36  and  C_37
REMARK                            x       y       z     vdW  Elec       q    Type
REMARK                         _______ _______ _______ _____ _____    ______ ____
ROOT
ATOM      1  O   UNL     1      -9.931  11.555  66.101  0.00  0.00    -0.326 OA
ENDROOT
BRANCH   1   9
ATOM      2  C   UNL     1     -12.008  13.189  68.514  0.00  0.00    +0.034 C 
ATOM      3  C   UNL     1     -11.084  13.101  67.148  0.00  0.00    +0.136 C 
ATOM      4  C   UNL     1     -11.886  14.461  66.520  0.00  0.00    +0.133 C 
ATOM      5  C   UNL     1     -12.033  14.143  64.858  0.00  0.00    +0.205 C 
ATOM      6  O   UNL     1     -13.164  13.139  64.948  0.00  0.00    -0.219 OA
ATOM      7  C   UNL     1     -10.778  13.069  64.474  0.00  0.00    +0.239 C 
ATOM      8  O   UNL     1      -9.722  13.593  65.391  0.00  0.00    -0.215 OA
ATOM      9  C   UNL     1     -11.246  11.642  65.317  0.00  0.00    +0.269 C 
ATOM     10  O   UNL     1     -12.025  12.194  66.472  0.00  0.00    -0.330 OA
BRANCH   4  11
ATOM     11  N   UNL     1     -10.518  15.155  66.518  0.00  0.00    -0.209 NA
BRANCH  11  12
ATOM     12  C   UNL     1     -10.490  16.340  67.493  0.00  0.00    +0.127 C 
ATOM     13  C   UNL     1     -10.261  17.319  66.101  0.00  0.00    +0.205 C 
ATOM     14  O   UNL     1      -8.946  16.728  65.667  0.00  0.00    -0.218 OA
ATOM     15  C   UNL     1      -9.470  18.624  66.836  0.00  0.00    +0.218 C 
ATOM     16  O   UNL     1     -10.722  19.446  66.691  0.00  0.00    -0.217 OA
ATOM     17  C   UNL     1      -9.879  18.276  68.459  0.00  0.00    +0.205 C 
ATOM     18  O   UNL     1      -9.084  19.480  68.922  0.00  0.00    -0.216 OA
ATOM     19  C   UNL     1      -8.650  17.242  68.597  0.00  0.00    +0.018 C 
ATOM     20  C   UNL     1      -8.945  16.156  67.898  0.00  0.00    -0.010 C 
BRANCH  19  21
ATOM     21  C   UNL     1      -7.318  17.633  68.733  0.00  0.00    +0.207 C 
ATOM     22  O   UNL     1      -6.386  17.104  67.848  0.00  0.00    -0.215 OA
ENDBRANCH  19  21
ENDBRANCH  11  12
ENDBRANCH   4  11
ENDBRANCH   1   9
BRANCH   1  23
ATOM     23  C   UNL     1      -9.821  10.005  66.150  0.00  0.00    +0.180 C 
ATOM     24  C   UNL     1      -9.639  10.114  67.830  0.00  0.00    +0.180 C 
ATOM     25  O   UNL     1      -8.281  10.678  67.736  0.00  0.00    -0.326 OA
ATOM     26  C   UNL     1      -7.408   9.456  67.660  0.00  0.00    +0.270 C 
ATOM     27  C   UNL     1      -6.982   9.849  66.059  0.00  0.00    +0.240 C 
ATOM     28  O   UNL     1      -6.750  11.349  66.250  0.00  0.00    -0.215 OA
ATOM     29  C   UNL     1      -8.406  10.303  65.302  0.00  0.00    +0.217 C 
ATOM     30  O   UNL     1      -8.497   8.895  64.669  0.00  0.00    -0.218 OA
BRANCH  24  31
ATOM     31  C   UNL     1      -9.344   8.525  68.091  0.00  0.00    +0.214 C 
ATOM     32  O   UNL     1     -10.267   7.861  68.708  0.00  0.00    -0.218 OA
ENDBRANCH  24  31
BRANCH  26  33
ATOM     33  O   UNL     1      -6.290  10.285  68.269  0.00  0.00    -0.326 OA
BRANCH  33  34
ATOM     34  C   UNL     1      -6.508  10.493  69.715  0.00  0.00    +0.184 C 
BRANCH  34  35
ATOM     35  C   UNL     1      -5.311   9.425  70.263  0.00  0.00    +0.219 C 
ATOM     36  O   UNL     1      -6.068   8.357  69.520  0.00  0.00    -0.217 OA
BRANCH  35  37
ATOM     37  C   UNL     1      -6.139   9.008  71.700  0.00  0.00    +0.248 C 
ATOM     38  O   UNL     1      -5.513   7.629  71.757  0.00  0.00    -0.212 OA
BRANCH  37  39
ATOM     39  C   UNL     1      -4.918   9.594  72.580  0.00  0.00    +0.243 C 
ATOM     40  O   UNL     1      -5.267  10.091  73.634  0.00  0.00    -0.285 OA
ENDBRANCH  37  39
ENDBRANCH  35  37
ENDBRANCH  34  35
BRANCH  34  41
ATOM     41  C   UNL     1      -5.518  11.886  69.677  0.00  0.00    +0.214 C 
ATOM     42  O   UNL     1      -5.820  12.208  71.113  0.00  0.00    -0.218 OA
BRANCH  41  43
ATOM     43  C   UNL     1      -6.803  12.791  69.204  0.00  0.00    +0.217 C 
ATOM     44  O   UNL     1      -6.559  14.075  69.568  0.00  0.00    -0.217 OA
ENDBRANCH  41  43
ENDBRANCH  34  41
ENDBRANCH  33  34
ENDBRANCH  26  33
ENDBRANCH   1  23
TORSDOF 13
ENDMDL
MODEL 9
REMARK VINA RESULT:      -6.9      3.387      9.639
REMARK  Name = 
REMARK  13 active torsions:
REMARK  status: ('A' for Active; 'I' for Inactive)
REMARK    1  A    between atoms: C_4  and  O_5
REMARK    2  A    between atoms: O_5  and  C_6
REMARK    3  A    between atoms: C_11  and  O_12
REMARK    4  A    between atoms: O_12  and  C_13
REMARK    5  A    between atoms: C_13  and  C_14
REMARK    6  A    between atoms: C_13  and  C_18
REMARK    7  A    between atoms: C_14  and  C_16
REMARK    8  A    between atoms: C_18  and  C_20
REMARK    9  A    between atoms: C_20  and  C_22
REMARK   10  A    between atoms: C_25  and  C_26
REMARK   11  A    between atoms: C_32  and  N_33
REMARK   12  A    between atoms: N_33  and  C_34
REMARK   13  A    between atoms: C_36  and  C_37
REMARK                            x       y       z     vdW  Elec       q    Type
REMARK                         _______ _______ _______ _____ _____    ______ ____
ROOT
ATOM      1  O   UNL     1     -10.189  14.019  67.085  0.00  0.00    -0.326 OA
ENDROOT
BRANCH   1   9
ATOM      2  C   UNL     1     -11.780  12.063  64.547  0.00  0.00    +0.034 C 
ATOM      3  C   UNL     1     -10.767  12.318  65.826  0.00  0.00    +0.136 C 
ATOM      4  C   UNL     1     -10.841  10.665  66.213  0.00  0.00    +0.133 C 
ATOM      5  C   UNL     1     -10.840  10.621  67.911  0.00  0.00    +0.205 C 
ATOM      6  O   UNL     1     -12.278  11.045  68.121  0.00  0.00    -0.219 OA
ATOM      7  C   UNL     1     -10.083  12.051  68.416  0.00  0.00    +0.239 C 
ATOM      8  O   UNL     1      -9.065  12.182  67.331  0.00  0.00    -0.215 OA
ATOM      9  C   UNL     1     -11.215  13.256  67.931  0.00  0.00    +0.269 C 
ATOM     10  O   UNL     1     -11.876  12.616  66.748  0.00  0.00    -0.330 OA
BRANCH   4  11
ATOM     11  N   UNL     1      -9.328  10.632  65.964  0.00  0.00    -0.209 NA
BRANCH  11  12
ATOM     12  C   UNL     1      -8.928   9.427  65.101  0.00  0.00    +0.127 C 
ATOM     13  C   UNL     1      -7.509   9.364  66.067  0.00  0.00    +0.205 C 
ATOM     14  O   UNL     1      -6.964  10.717  65.691  0.00  0.00    -0.218 OA
ATOM     15  C   UNL     1      -6.481   8.603  64.957  0.00  0.00    +0.218 C 
ATOM     16  O   UNL     1      -6.575   7.335  65.760  0.00  0.00    -0.217 OA
ATOM     17  C   UNL     1      -7.672   8.017  63.879  0.00  0.00    +0.205 C 
ATOM     18  O   UNL     1      -6.591   7.433  62.994  0.00  0.00    -0.216 OA
ATOM     19  C   UNL     1      -7.734   9.430  63.104  0.00  0.00    +0.018 C 
ATOM     20  C   UNL     1      -8.341  10.306  63.890  0.00  0.00    -0.010 C 
BRANCH  19  21
ATOM     21  C   UNL     1      -6.756   9.867  62.211  0.00  0.00    +0.207 C 
ATOM     22  O   UNL     1      -7.121  10.063  60.885  0.00  0.00    -0.215 OA
ENDBRANCH  19  21
ENDBRANCH  11  12
ENDBRANCH   4  11
ENDBRANCH   1   9
BRANCH   1  23
ATOM     23  C   UNL     1     -10.981  15.351  66.951  0.00  0.00    +0.180 C 
ATOM     24  C   UNL     1      -9.678  15.989  66.079  0.00  0.00    +0.180 C 
ATOM     25  O   UNL     1      -8.811  16.077  67.267  0.00  0.00    -0.326 OA
ATOM     26  C   UNL     1      -9.160  17.421  67.846  0.00  0.00    +0.270 C 
ATOM     27  C   UNL     1      -9.851  16.665  69.207  0.00  0.00    +0.240 C 
ATOM     28  O   UNL     1      -8.767  15.615  69.456  0.00  0.00    -0.215 OA
ATOM     29  C   UNL     1     -10.760  15.389  68.612  0.00  0.00    +0.217 C 
ATOM     30  O   UNL     1     -12.034  16.253  68.755  0.00  0.00    -0.218 OA
BRANCH  24  31
ATOM     31  C   UNL     1     -10.262  17.513  65.956  0.00  0.00    +0.214 C 
ATOM     32  O   UNL     1     -10.969  17.775  64.904  0.00  0.00    -0.218 OA
ENDBRANCH  24  31
BRANCH  26  33
ATOM     33  O   UNL     1      -7.767  17.461  68.450  0.00  0.00    -0.326 OA
BRANCH  33  34
ATOM     34  C   UNL     1      -6.794  18.046  67.505  0.00  0.00    +0.184 C 
BRANCH  34  35
ATOM     35  C   UNL     1      -6.627  19.545  68.278  0.00  0.00    +0.219 C 
ATOM     36  O   UNL     1      -7.997  19.859  67.739  0.00  0.00    -0.217 OA
BRANCH  35  37
ATOM     37  C   UNL     1      -5.921  20.323  66.929  0.00  0.00    +0.248 C 
ATOM     38  O   UNL     1      -6.627  21.634  67.212  0.00  0.00    -0.212 OA
BRANCH  37  39
ATOM     39  C   UNL     1      -4.680  20.799  67.846  0.00  0.00    +0.243 C 
ATOM     40  O   UNL     1      -3.696  21.127  67.210  0.00  0.00    -0.285 OA
ENDBRANCH  37  39
ENDBRANCH  35  37
ENDBRANCH  34  35
BRANCH  34  41
ATOM     41  C   UNL     1      -5.511  17.266  68.323  0.00  0.00    +0.214 C 
ATOM     42  O   UNL     1      -4.527  17.638  67.251  0.00  0.00    -0.218 OA
BRANCH  41  43
ATOM     43  C   UNL     1      -5.848  15.869  67.530  0.00  0.00    +0.217 C 
ATOM     44  O   UNL     1      -4.669  15.277  67.218  0.00  0.00    -0.217 OA
ENDBRANCH  41  43
ENDBRANCH  34  41
ENDBRANCH  33  34
ENDBRANCH  26  33
ENDBRANCH   1  23
TORSDOF 13
ENDMDL
