MODEL 1
REMARK VINA RESULT:      -3.8      0.000      0.000
REMARK  Name = 
REMARK  2 active torsions:
REMARK  status: ('A' for Active; 'I' for Inactive)
REMARK    1  A    between atoms: C_2  and  C_3
REMARK    2  A    between atoms: C_3  and  C_4
REMARK                            x       y       z     vdW  Elec       q    Type
REMARK                         _______ _______ _______ _____ _____    ______ ____
ROOT
ATOM      1  C   UNL     1     -11.619  13.563  64.919  0.00  0.00    +0.081 A 
ATOM      2  N   UNL     1     -12.744  12.919  64.533  0.00  0.00    -0.227 NA
ATOM      3  C   UNL     1     -12.362  12.174  63.474  0.00  0.00    +0.199 A 
ATOM      4  N   UNL     1     -11.017  12.167  63.366  0.00  0.00    -0.221 NA
ATOM      5  C   UNL     1     -10.516  12.922  64.371  0.00  0.00    +0.115 A 
ENDROOT
BRANCH   1   6
ATOM      6  C   UNL     1     -11.490  14.735  65.806  0.00  0.00    +0.068 C 
BRANCH   6   8
ATOM      7  N   UNL     1     -11.374  16.635  64.242  0.00  0.00    -0.131 NA
ATOM      8  C   UNL     1     -10.654  15.828  65.199  0.00  0.00    +0.116 C 
ENDBRANCH   6   8
ENDBRANCH   1   6
TORSDOF 2
ENDMDL
MODEL 2
REMARK VINA RESULT:      -3.8      2.994      5.595
REMARK  Name = 
REMARK  2 active torsions:
REMARK  status: ('A' for Active; 'I' for Inactive)
REMARK    1  A    between atoms: C_2  and  C_3
REMARK    2  A    between atoms: C_3  and  C_4
REMARK                            x       y       z     vdW  Elec       q    Type
REMARK                         _______ _______ _______ _____ _____    ______ ____
ROOT
ATOM      1  C   UNL     1      -9.802  17.623  66.473  0.00  0.00    +0.081 A 
ATOM      2  N   UNL     1      -9.332  18.804  66.010  0.00  0.00    -0.227 NA
ATOM      3  C   UNL     1     -10.106  19.734  66.608  0.00  0.00    +0.199 A 
ATOM      4  N   UNL     1     -10.851  19.170  67.581  0.00  0.00    -0.221 NA
ATOM      5  C   UNL     1     -10.559  17.849  67.615  0.00  0.00    +0.115 A 
ENDROOT
BRANCH   1   6
ATOM      6  C   UNL     1      -9.566  16.267  65.940  0.00  0.00    +0.068 C 
BRANCH   6   8
ATOM      7  N   UNL     1     -11.308  16.677  64.247  0.00  0.00    -0.131 NA
ATOM      8  C   UNL     1     -10.750  15.731  65.183  0.00  0.00    +0.116 C 
ENDBRANCH   6   8
ENDBRANCH   1   6
TORSDOF 2
ENDMDL
MODEL 3
REMARK VINA RESULT:      -3.7      6.350      7.475
REMARK  Name = 
REMARK  2 active torsions:
REMARK  status: ('A' for Active; 'I' for Inactive)
REMARK    1  A    between atoms: C_2  and  C_3
REMARK    2  A    between atoms: C_3  and  C_4
REMARK                            x       y       z     vdW  Elec       q    Type
REMARK                         _______ _______ _______ _____ _____    ______ ____
ROOT
ATOM      1  C   UNL     1     -12.268  15.801  71.375  0.00  0.00    +0.081 A 
ATOM      2  N   UNL     1     -13.586  15.595  71.149  0.00  0.00    -0.227 NA
ATOM      3  C   UNL     1     -14.122  15.454  72.380  0.00  0.00    +0.199 A 
ATOM      4  N   UNL     1     -13.225  15.803  73.326  0.00  0.00    -0.221 NA
ATOM      5  C   UNL     1     -12.085  16.175  72.700  0.00  0.00    +0.115 A 
ENDROOT
BRANCH   1   6
ATOM      6  C   UNL     1     -11.147  15.707  70.420  0.00  0.00    +0.068 C 
BRANCH   6   8
ATOM      7  N   UNL     1     -11.068  17.139  68.417  0.00  0.00    -0.131 NA
ATOM      8  C   UNL     1     -11.583  15.922  68.997  0.00  0.00    +0.116 C 
ENDBRANCH   6   8
ENDBRANCH   1   6
TORSDOF 2
ENDMDL
MODEL 4
REMARK VINA RESULT:      -3.6      2.034      2.767
REMARK  Name = 
REMARK  2 active torsions:
REMARK  status: ('A' for Active; 'I' for Inactive)
REMARK    1  A    between atoms: C_2  and  C_3
REMARK    2  A    between atoms: C_3  and  C_4
REMARK                            x       y       z     vdW  Elec       q    Type
REMARK                         _______ _______ _______ _____ _____    ______ ____
ROOT
ATOM      1  C   UNL     1     -11.931  13.642  66.104  0.00  0.00    +0.081 A 
ATOM      2  N   UNL     1     -12.022  12.299  66.237  0.00  0.00    -0.227 NA
ATOM      3  C   UNL     1     -11.699  12.064  67.526  0.00  0.00    +0.199 A 
ATOM      4  N   UNL     1     -11.655  13.221  68.218  0.00  0.00    -0.221 NA
ATOM      5  C   UNL     1     -11.951  14.228  67.363  0.00  0.00    +0.115 A 
ENDROOT
BRANCH   1   6
ATOM      6  C   UNL     1     -11.860  14.440  64.865  0.00  0.00    +0.068 C 
BRANCH   6   8
ATOM      7  N   UNL     1     -11.331  16.773  64.279  0.00  0.00    -0.131 NA
ATOM      8  C   UNL     1     -10.892  15.585  64.971  0.00  0.00    +0.116 C 
ENDBRANCH   6   8
ENDBRANCH   1   6
TORSDOF 2
ENDMDL
MODEL 5
REMARK VINA RESULT:      -3.5      8.268      8.969
REMARK  Name = 
REMARK  2 active torsions:
REMARK  status: ('A' for Active; 'I' for Inactive)
REMARK    1  A    between atoms: C_2  and  C_3
REMARK    2  A    between atoms: C_3  and  C_4
REMARK                            x       y       z     vdW  Elec       q    Type
REMARK                         _______ _______ _______ _____ _____    ______ ____
ROOT
ATOM      1  C   UNL     1     -13.201  15.396  72.589  0.00  0.00    +0.081 A 
ATOM      2  N   UNL     1     -14.391  15.835  72.120  0.00  0.00    -0.227 NA
ATOM      3  C   UNL     1     -15.019  14.719  71.693  0.00  0.00    +0.199 A 
ATOM      4  N   UNL     1     -14.354  13.619  72.105  0.00  0.00    -0.221 NA
ATOM      5  C   UNL     1     -13.274  14.027  72.811  0.00  0.00    +0.115 A 
ENDROOT
BRANCH   1   6
ATOM      6  C   UNL     1     -11.985  16.178  72.885  0.00  0.00    +0.068 C 
BRANCH   6   8
ATOM      7  N   UNL     1     -12.470  16.252  75.299  0.00  0.00    -0.131 NA
ATOM      8  C   UNL     1     -12.127  17.018  74.124  0.00  0.00    +0.116 C 
ENDBRANCH   6   8
ENDBRANCH   1   6
TORSDOF 2
ENDMDL
MODEL 6
REMARK VINA RESULT:      -3.5      1.963      2.707
REMARK  Name = 
REMARK  2 active torsions:
REMARK  status: ('A' for Active; 'I' for Inactive)
REMARK    1  A    between atoms: C_2  and  C_3
REMARK    2  A    between atoms: C_3  and  C_4
REMARK                            x       y       z     vdW  Elec       q    Type
REMARK                         _______ _______ _______ _____ _____    ______ ____
ROOT
ATOM      1  C   UNL     1     -12.016  12.977  65.358  0.00  0.00    +0.081 A 
ATOM      2  N   UNL     1     -12.997  12.404  64.624  0.00  0.00    -0.227 NA
ATOM      3  C   UNL     1     -12.439  12.201  63.412  0.00  0.00    +0.199 A 
ATOM      4  N   UNL     1     -11.107  12.408  63.468  0.00  0.00    -0.221 NA
ATOM      5  C   UNL     1     -10.793  12.755  64.738  0.00  0.00    +0.115 A 
ENDROOT
BRANCH   1   6
ATOM      6  C   UNL     1     -12.130  13.701  66.638  0.00  0.00    +0.068 C 
BRANCH   6   8
ATOM      7  N   UNL     1     -12.015  11.577  67.882  0.00  0.00    -0.131 NA
ATOM      8  C   UNL     1     -11.535  12.935  67.788  0.00  0.00    +0.116 C 
ENDBRANCH   6   8
ENDBRANCH   1   6
TORSDOF 2
ENDMDL
MODEL 7
REMARK VINA RESULT:      -3.5      5.836      6.773
REMARK  Name = 
REMARK  2 active torsions:
REMARK  status: ('A' for Active; 'I' for Inactive)
REMARK    1  A    between atoms: C_2  and  C_3
REMARK    2  A    between atoms: C_3  and  C_4
REMARK                            x       y       z     vdW  Elec       q    Type
REMARK                         _______ _______ _______ _____ _____    ______ ____
ROOT
ATOM      1  C   UNL     1     -12.055  15.405  70.716  0.00  0.00    +0.081 A 
ATOM      2  N   UNL     1     -12.058  16.103  69.558  0.00  0.00    -0.227 NA
ATOM      3  C   UNL     1     -11.712  15.200  68.617  0.00  0.00    +0.199 A 
ATOM      4  N   UNL     1     -11.736  13.953  69.131  0.00  0.00    -0.221 NA
ATOM      5  C   UNL     1     -12.103  14.047  70.430  0.00  0.00    +0.115 A 
ENDROOT
BRANCH   1   6
ATOM      6  C   UNL     1     -12.044  15.919  72.099  0.00  0.00    +0.068 C 
BRANCH   6   8
ATOM      7  N   UNL     1     -14.505  15.825  72.175  0.00  0.00    -0.131 NA
ATOM      8  C   UNL     1     -13.275  15.527  72.869  0.00  0.00    +0.116 C 
ENDBRANCH   6   8
ENDBRANCH   1   6
TORSDOF 2
ENDMDL
MODEL 8
REMARK VINA RESULT:      -3.4      2.262      2.607
REMARK  Name = 
REMARK  2 active torsions:
REMARK  status: ('A' for Active; 'I' for Inactive)
REMARK    1  A    between atoms: C_2  and  C_3
REMARK    2  A    between atoms: C_3  and  C_4
REMARK                            x       y       z     vdW  Elec       q    Type
REMARK                         _______ _______ _______ _____ _____    ______ ____
ROOT
ATOM      1  C   UNL     1     -12.021  13.604  66.434  0.00  0.00    +0.081 A 
ATOM      2  N   UNL     1     -12.155  12.352  65.941  0.00  0.00    -0.227 NA
ATOM      3  C   UNL     1     -12.551  12.531  64.664  0.00  0.00    +0.199 A 
ATOM      4  N   UNL     1     -12.428  13.828  64.311  0.00  0.00    -0.221 NA
ATOM      5  C   UNL     1     -11.945  14.504  65.379  0.00  0.00    +0.115 A 
ENDROOT
BRANCH   1   6
ATOM      6  C   UNL     1     -11.922  14.032  67.843  0.00  0.00    +0.068 C 
BRANCH   6   8
ATOM      7  N   UNL     1     -11.880  16.195  69.020  0.00  0.00    -0.131 NA
ATOM      8  C   UNL     1     -11.276  15.381  67.992  0.00  0.00    +0.116 C 
ENDBRANCH   6   8
ENDBRANCH   1   6
TORSDOF 2
ENDMDL
MODEL 9
REMARK VINA RESULT:      -3.4      7.326      8.723
REMARK  Name = 
REMARK  2 active torsions:
REMARK  status: ('A' for Active; 'I' for Inactive)
REMARK    1  A    between atoms: C_2  and  C_3
REMARK    2  A    between atoms: C_3  and  C_4
REMARK                            x       y       z     vdW  Elec       q    Type
REMARK                         _______ _______ _______ _____ _____    ______ ____
ROOT
ATOM      1  C   UNL     1     -13.284  14.074  72.025  0.00  0.00    +0.081 A 
ATOM      2  N   UNL     1     -12.764  14.626  73.145  0.00  0.00    -0.227 NA
ATOM      3  C   UNL     1     -13.361  15.832  73.236  0.00  0.00    +0.199 A 
ATOM      4  N   UNL     1     -14.382  15.919  72.358  0.00  0.00    -0.221 NA
ATOM      5  C   UNL     1     -14.448  14.749  71.681  0.00  0.00    +0.115 A 
ENDROOT
BRANCH   1   6
ATOM      6  C   UNL     1     -12.788  12.917  71.255  0.00  0.00    +0.068 C 
BRANCH   6   8
ATOM      7  N   UNL     1     -12.844  10.463  71.050  0.00  0.00    -0.131 NA
ATOM      8  C   UNL     1     -13.185  11.603  71.868  0.00  0.00    +0.116 C 
ENDBRANCH   6   8
ENDBRANCH   1   6
TORSDOF 2
ENDMDL
