MODEL 1
REMARK VINA RESULT:      -5.9      0.000      0.000
REMARK  Name = 
REMARK  6 active torsions:
REMARK  status: ('A' for Active; 'I' for Inactive)
REMARK    1  A    between atoms: C_2  and  C_3
REMARK    2  A    between atoms: C_3  and  C_4
REMARK    3  A    between atoms: C_4  and  O_5
REMARK    4  A    between atoms: O_5  and  C_6
REMARK    5  A    between atoms: C_6  and  C_7
REMARK    6  A    between atoms: C_12  and  O_13
REMARK                            x       y       z     vdW  Elec       q    Type
REMARK                         _______ _______ _______ _____ _____    ______ ____
ROOT
ATOM      1  C   UNL     1     -11.463  14.648  67.469  0.00  0.00    +0.010 A 
ATOM      2  C   UNL     1     -12.117  14.062  66.408  0.00  0.00    +0.038 A 
ATOM      3  C   UNL     1     -11.935  14.548  65.120  0.00  0.00    +0.177 A 
ATOM      4  C   UNL     1     -11.121  15.642  64.853  0.00  0.00    +0.229 A 
ATOM      5  O   UNL     1     -11.574  16.598  63.936  0.00  0.00    -0.283 OA
ATOM      6  C   UNL     1     -10.244  16.013  65.864  0.00  0.00    +0.045 A 
ATOM      7  C   UNL     1     -10.391  15.470  67.135  0.00  0.00    +0.002 A 
ENDROOT
BRANCH   3   8
ATOM      8  O   UNL     1     -12.528  13.950  64.006  0.00  0.00    -0.468 OA
ATOM      9  C   UNL     1     -12.043  12.731  63.493  0.00  0.00    +0.253 C 
ENDBRANCH   3   8
BRANCH   1  10
ATOM     10  C   UNL     1     -12.007  14.747  68.834  0.00  0.00    +0.169 C 
BRANCH  10  11
ATOM     11  O   UNL     1     -12.066  16.032  69.331  0.00  0.00    -0.349 OA
BRANCH  11  12
ATOM     12  C   UNL     1     -12.038  15.946  70.728  0.00  0.00    +0.143 C 
BRANCH  12  13
ATOM     13  C   UNL     1     -13.247  15.180  71.253  0.00  0.00    +0.032 C 
BRANCH  13  15
ATOM     14  C   UNL     1     -12.587  15.212  73.662  0.00  0.00    +0.000 C 
ATOM     15  C   UNL     1     -13.602  15.684  72.633  0.00  0.00    +0.003 C 
ENDBRANCH  13  15
ENDBRANCH  12  13
ENDBRANCH  11  12
ENDBRANCH  10  11
ENDBRANCH   1  10
TORSDOF 6
ENDMDL
MODEL 2
REMARK VINA RESULT:      -5.2      3.150      6.796
REMARK  Name = 
REMARK  6 active torsions:
REMARK  status: ('A' for Active; 'I' for Inactive)
REMARK    1  A    between atoms: C_2  and  C_3
REMARK    2  A    between atoms: C_3  and  C_4
REMARK    3  A    between atoms: C_4  and  O_5
REMARK    4  A    between atoms: O_5  and  C_6
REMARK    5  A    between atoms: C_6  and  C_7
REMARK    6  A    between atoms: C_12  and  O_13
REMARK                            x       y       z     vdW  Elec       q    Type
REMARK                         _______ _______ _______ _____ _____    ______ ____
ROOT
ATOM      1  C   UNL     1     -11.676  15.244  69.980  0.00  0.00    +0.010 A 
ATOM      2  C   UNL     1     -12.052  15.927  71.116  0.00  0.00    +0.038 A 
ATOM      3  C   UNL     1     -12.795  15.289  72.100  0.00  0.00    +0.177 A 
ATOM      4  C   UNL     1     -13.207  13.968  71.974  0.00  0.00    +0.229 A 
ATOM      5  O   UNL     1     -14.510  13.639  72.365  0.00  0.00    -0.283 OA
ATOM      6  C   UNL     1     -12.566  13.219  70.995  0.00  0.00    +0.045 A 
ATOM      7  C   UNL     1     -11.769  13.858  70.053  0.00  0.00    +0.002 A 
ENDROOT
BRANCH   3   8
ATOM      8  O   UNL     1     -13.149  15.920  73.295  0.00  0.00    -0.468 OA
ATOM      9  C   UNL     1     -12.420  15.693  74.479  0.00  0.00    +0.253 C 
ENDBRANCH   3   8
BRANCH   1  10
ATOM     10  C   UNL     1     -11.532  15.855  68.648  0.00  0.00    +0.169 C 
BRANCH  10  11
ATOM     11  O   UNL     1     -11.305  17.215  68.668  0.00  0.00    -0.349 OA
BRANCH  11  12
ATOM     12  C   UNL     1     -10.215  17.473  67.828  0.00  0.00    +0.143 C 
BRANCH  12  13
ATOM     13  C   UNL     1      -9.487  18.744  68.251  0.00  0.00    +0.032 C 
BRANCH  13  15
ATOM     14  C   UNL     1     -10.349  19.699  66.110  0.00  0.00    +0.000 C 
ATOM     15  C   UNL     1     -10.140  19.940  67.597  0.00  0.00    +0.003 C 
ENDBRANCH  13  15
ENDBRANCH  12  13
ENDBRANCH  11  12
ENDBRANCH  10  11
ENDBRANCH   1  10
TORSDOF 6
ENDMDL
MODEL 3
REMARK VINA RESULT:      -5.2      1.770      2.390
REMARK  Name = 
REMARK  6 active torsions:
REMARK  status: ('A' for Active; 'I' for Inactive)
REMARK    1  A    between atoms: C_2  and  C_3
REMARK    2  A    between atoms: C_3  and  C_4
REMARK    3  A    between atoms: C_4  and  O_5
REMARK    4  A    between atoms: O_5  and  C_6
REMARK    5  A    between atoms: C_6  and  C_7
REMARK    6  A    between atoms: C_12  and  O_13
REMARK                            x       y       z     vdW  Elec       q    Type
REMARK                         _______ _______ _______ _____ _____    ______ ____
ROOT
ATOM      1  C   UNL     1     -11.140  15.038  67.866  0.00  0.00    +0.010 A 
ATOM      2  C   UNL     1     -11.448  13.729  68.169  0.00  0.00    +0.038 A 
ATOM      3  C   UNL     1     -11.811  12.847  67.160  0.00  0.00    +0.177 A 
ATOM      4  C   UNL     1     -11.904  13.242  65.831  0.00  0.00    +0.229 A 
ATOM      5  O   UNL     1     -12.988  12.780  65.076  0.00  0.00    -0.283 OA
ATOM      6  C   UNL     1     -11.299  14.450  65.510  0.00  0.00    +0.045 A 
ATOM      7  C   UNL     1     -10.876  15.300  66.526  0.00  0.00    +0.002 A 
ENDROOT
BRANCH   3   8
ATOM      8  O   UNL     1     -12.073  11.497  67.408  0.00  0.00    -0.468 OA
ATOM      9  C   UNL     1     -11.029  10.551  67.449  0.00  0.00    +0.253 C 
ENDBRANCH   3   8
BRANCH   1  10
ATOM     10  C   UNL     1     -11.406  16.184  68.752  0.00  0.00    +0.169 C 
BRANCH  10  11
ATOM     11  O   UNL     1     -12.330  15.933  69.744  0.00  0.00    -0.349 OA
BRANCH  11  12
ATOM     12  C   UNL     1     -11.675  16.066  70.975  0.00  0.00    +0.143 C 
BRANCH  12  13
ATOM     13  C   UNL     1     -12.074  14.948  71.930  0.00  0.00    +0.032 C 
BRANCH  13  15
ATOM     14  C   UNL     1     -12.500  15.706  74.271  0.00  0.00    +0.000 C 
ATOM     15  C   UNL     1     -13.112  15.461  72.901  0.00  0.00    +0.003 C 
ENDBRANCH  13  15
ENDBRANCH  12  13
ENDBRANCH  11  12
ENDBRANCH  10  11
ENDBRANCH   1  10
TORSDOF 6
ENDMDL
MODEL 4
REMARK VINA RESULT:      -5.1      2.289      3.597
REMARK  Name = 
REMARK  6 active torsions:
REMARK  status: ('A' for Active; 'I' for Inactive)
REMARK    1  A    between atoms: C_2  and  C_3
REMARK    2  A    between atoms: C_3  and  C_4
REMARK    3  A    between atoms: C_4  and  O_5
REMARK    4  A    between atoms: O_5  and  C_6
REMARK    5  A    between atoms: C_6  and  C_7
REMARK    6  A    between atoms: C_12  and  O_13
REMARK                            x       y       z     vdW  Elec       q    Type
REMARK                         _______ _______ _______ _____ _____    ______ ____
ROOT
ATOM      1  C   UNL     1     -11.102  15.084  67.323  0.00  0.00    +0.010 A 
ATOM      2  C   UNL     1     -11.885  14.019  66.933  0.00  0.00    +0.038 A 
ATOM      3  C   UNL     1     -12.236  13.863  65.600  0.00  0.00    +0.177 A 
ATOM      4  C   UNL     1     -11.844  14.769  64.622  0.00  0.00    +0.229 A 
ATOM      5  O   UNL     1     -12.781  15.147  63.653  0.00  0.00    -0.283 OA
ATOM      6  C   UNL     1     -10.818  15.638  64.971  0.00  0.00    +0.045 A 
ATOM      7  C   UNL     1     -10.425  15.740  66.300  0.00  0.00    +0.002 A 
ENDROOT
BRANCH   3   8
ATOM      8  O   UNL     1     -12.977  12.769  65.146  0.00  0.00    -0.468 OA
ATOM      9  C   UNL     1     -12.559  12.024  64.026  0.00  0.00    +0.253 C 
ENDBRANCH   3   8
BRANCH   1  10
ATOM     10  C   UNL     1     -11.205  15.762  68.626  0.00  0.00    +0.169 C 
BRANCH  10  11
ATOM     11  O   UNL     1     -11.223  17.139  68.551  0.00  0.00    -0.349 OA
BRANCH  11  12
ATOM     12  C   UNL     1     -10.003  17.605  69.058  0.00  0.00    +0.143 C 
BRANCH  12  13
ATOM     13  C   UNL     1      -9.435  18.715  68.180  0.00  0.00    +0.032 C 
BRANCH  13  15
ATOM     14  C   UNL     1     -10.402  19.524  66.025  0.00  0.00    +0.000 C 
ATOM     15  C   UNL     1     -10.568  19.478  67.535  0.00  0.00    +0.003 C 
ENDBRANCH  13  15
ENDBRANCH  12  13
ENDBRANCH  11  12
ENDBRANCH  10  11
ENDBRANCH   1  10
TORSDOF 6
ENDMDL
MODEL 5
REMARK VINA RESULT:      -5.0      2.907      4.714
REMARK  Name = 
REMARK  6 active torsions:
REMARK  status: ('A' for Active; 'I' for Inactive)
REMARK    1  A    between atoms: C_2  and  C_3
REMARK    2  A    between atoms: C_3  and  C_4
REMARK    3  A    between atoms: C_4  and  O_5
REMARK    4  A    between atoms: O_5  and  C_6
REMARK    5  A    between atoms: C_6  and  C_7
REMARK    6  A    between atoms: C_12  and  O_13
REMARK                            x       y       z     vdW  Elec       q    Type
REMARK                         _______ _______ _______ _____ _____    ______ ____
ROOT
ATOM      1  C   UNL     1     -10.037  15.707  66.212  0.00  0.00    +0.010 A 
ATOM      2  C   UNL     1     -10.738  15.191  65.143  0.00  0.00    +0.038 A 
ATOM      3  C   UNL     1     -11.731  14.245  65.352  0.00  0.00    +0.177 A 
ATOM      4  C   UNL     1     -12.041  13.766  66.619  0.00  0.00    +0.229 A 
ATOM      5  O   UNL     1     -12.276  12.395  66.771  0.00  0.00    -0.283 OA
ATOM      6  C   UNL     1     -11.557  14.511  67.688  0.00  0.00    +0.045 A 
ATOM      7  C   UNL     1     -10.610  15.503  67.463  0.00  0.00    +0.002 A 
ENDROOT
BRANCH   3   8
ATOM      8  O   UNL     1     -12.510  13.738  64.309  0.00  0.00    -0.468 OA
ATOM      9  C   UNL     1     -11.967  12.838  63.371  0.00  0.00    +0.253 C 
ENDBRANCH   3   8
BRANCH   1  10
ATOM     10  C   UNL     1      -8.625  16.123  66.162  0.00  0.00    +0.169 C 
BRANCH  10  11
ATOM     11  O   UNL     1      -8.420  17.376  65.624  0.00  0.00    -0.349 OA
BRANCH  11  12
ATOM     12  C   UNL     1      -7.988  18.215  66.658  0.00  0.00    +0.143 C 
BRANCH  12  13
ATOM     13  C   UNL     1      -8.494  19.638  66.457  0.00  0.00    +0.032 C 
BRANCH  13  15
ATOM     14  C   UNL     1     -10.775  19.280  67.408  0.00  0.00    +0.000 C 
ATOM     15  C   UNL     1      -9.975  19.609  66.158  0.00  0.00    +0.003 C 
ENDBRANCH  13  15
ENDBRANCH  12  13
ENDBRANCH  11  12
ENDBRANCH  10  11
ENDBRANCH   1  10
TORSDOF 6
ENDMDL
MODEL 6
REMARK VINA RESULT:      -5.0      1.732      2.819
REMARK  Name = 
REMARK  6 active torsions:
REMARK  status: ('A' for Active; 'I' for Inactive)
REMARK    1  A    between atoms: C_2  and  C_3
REMARK    2  A    between atoms: C_3  and  C_4
REMARK    3  A    between atoms: C_4  and  O_5
REMARK    4  A    between atoms: O_5  and  C_6
REMARK    5  A    between atoms: C_6  and  C_7
REMARK    6  A    between atoms: C_12  and  O_13
REMARK                            x       y       z     vdW  Elec       q    Type
REMARK                         _______ _______ _______ _____ _____    ______ ____
ROOT
ATOM      1  C   UNL     1     -11.666  15.019  69.143  0.00  0.00    +0.010 A 
ATOM      2  C   UNL     1     -11.480  15.356  67.819  0.00  0.00    +0.038 A 
ATOM      3  C   UNL     1     -11.243  14.367  66.875  0.00  0.00    +0.177 A 
ATOM      4  C   UNL     1     -11.160  13.023  67.217  0.00  0.00    +0.229 A 
ATOM      5  O   UNL     1     -10.156  12.248  66.626  0.00  0.00    -0.283 OA
ATOM      6  C   UNL     1     -11.654  12.680  68.470  0.00  0.00    +0.045 A 
ATOM      7  C   UNL     1     -11.952  13.680  69.388  0.00  0.00    +0.002 A 
ENDROOT
BRANCH   3   8
ATOM      8  O   UNL     1     -11.108  14.652  65.514  0.00  0.00    -0.468 OA
ATOM      9  C   UNL     1     -12.180  14.454  64.621  0.00  0.00    +0.253 C 
ENDBRANCH   3   8
BRANCH   1  10
ATOM     10  C   UNL     1     -11.256  15.856  70.283  0.00  0.00    +0.169 C 
BRANCH  10  11
ATOM     11  O   UNL     1     -11.258  15.203  71.497  0.00  0.00    -0.349 OA
BRANCH  11  12
ATOM     12  C   UNL     1     -12.130  15.895  72.347  0.00  0.00    +0.143 C 
BRANCH  12  13
ATOM     13  C   UNL     1     -12.903  14.932  73.240  0.00  0.00    +0.032 C 
BRANCH  13  15
ATOM     14  C   UNL     1     -14.780  15.057  71.597  0.00  0.00    +0.000 C 
ATOM     15  C   UNL     1     -13.876  14.136  72.401  0.00  0.00    +0.003 C 
ENDBRANCH  13  15
ENDBRANCH  12  13
ENDBRANCH  11  12
ENDBRANCH  10  11
ENDBRANCH   1  10
TORSDOF 6
ENDMDL
MODEL 7
REMARK VINA RESULT:      -4.9      2.617      5.797
REMARK  Name = 
REMARK  6 active torsions:
REMARK  status: ('A' for Active; 'I' for Inactive)
REMARK    1  A    between atoms: C_2  and  C_3
REMARK    2  A    between atoms: C_3  and  C_4
REMARK    3  A    between atoms: C_4  and  O_5
REMARK    4  A    between atoms: O_5  and  C_6
REMARK    5  A    between atoms: C_6  and  C_7
REMARK    6  A    between atoms: C_12  and  O_13
REMARK                            x       y       z     vdW  Elec       q    Type
REMARK                         _______ _______ _______ _____ _____    ______ ____
ROOT
ATOM      1  C   UNL     1     -11.666  14.522  65.807  0.00  0.00    +0.010 A 
ATOM      2  C   UNL     1     -10.720  15.422  65.365  0.00  0.00    +0.038 A 
ATOM      3  C   UNL     1     -10.199  16.370  66.234  0.00  0.00    +0.177 A 
ATOM      4  C   UNL     1     -10.616  16.469  67.556  0.00  0.00    +0.229 A 
ATOM      5  O   UNL     1     -10.830  17.745  68.090  0.00  0.00    -0.283 OA
ATOM      6  C   UNL     1     -11.317  15.380  68.058  0.00  0.00    +0.045 A 
ATOM      7  C   UNL     1     -11.779  14.399  67.188  0.00  0.00    +0.002 A 
ENDROOT
BRANCH   3   8
ATOM      8  O   UNL     1      -9.196  17.263  65.849  0.00  0.00    -0.468 OA
ATOM      9  C   UNL     1      -7.849  17.035  66.196  0.00  0.00    +0.253 C 
ENDBRANCH   3   8
BRANCH   1  10
ATOM     10  C   UNL     1     -12.751  13.975  64.976  0.00  0.00    +0.169 C 
BRANCH  10  11
ATOM     11  O   UNL     1     -12.346  13.517  63.740  0.00  0.00    -0.349 OA
BRANCH  11  12
ATOM     12  C   UNL     1     -12.003  12.167  63.882  0.00  0.00    +0.143 C 
BRANCH  12  13
ATOM     13  C   UNL     1     -10.585  11.907  63.388  0.00  0.00    +0.032 C 
BRANCH  13  15
ATOM     14  C   UNL     1     -10.569  11.017  65.721  0.00  0.00    +0.000 C 
ATOM     15  C   UNL     1      -9.862  11.021  64.376  0.00  0.00    +0.003 C 
ENDBRANCH  13  15
ENDBRANCH  12  13
ENDBRANCH  11  12
ENDBRANCH  10  11
ENDBRANCH   1  10
TORSDOF 6
ENDMDL
MODEL 8
REMARK VINA RESULT:      -4.9      2.792      4.603
REMARK  Name = 
REMARK  6 active torsions:
REMARK  status: ('A' for Active; 'I' for Inactive)
REMARK    1  A    between atoms: C_2  and  C_3
REMARK    2  A    between atoms: C_3  and  C_4
REMARK    3  A    between atoms: C_4  and  O_5
REMARK    4  A    between atoms: O_5  and  C_6
REMARK    5  A    between atoms: C_6  and  C_7
REMARK    6  A    between atoms: C_12  and  O_13
REMARK                            x       y       z     vdW  Elec       q    Type
REMARK                         _______ _______ _______ _____ _____    ______ ____
ROOT
ATOM      1  C   UNL     1     -10.567  15.677  67.576  0.00  0.00    +0.010 A 
ATOM      2  C   UNL     1     -11.021  14.417  67.900  0.00  0.00    +0.038 A 
ATOM      3  C   UNL     1     -11.665  13.640  66.947  0.00  0.00    +0.177 A 
ATOM      4  C   UNL     1     -11.899  14.098  65.656  0.00  0.00    +0.229 A 
ATOM      5  O   UNL     1     -13.144  13.834  65.073  0.00  0.00    -0.283 OA
ATOM      6  C   UNL     1     -11.172  15.216  65.264  0.00  0.00    +0.045 A 
ATOM      7  C   UNL     1     -10.475  15.951  66.215  0.00  0.00    +0.002 A 
ENDROOT
BRANCH   3   8
ATOM      8  O   UNL     1     -12.089  12.335  67.210  0.00  0.00    -0.468 OA
ATOM      9  C   UNL     1     -11.698  11.669  68.388  0.00  0.00    +0.253 C 
ENDBRANCH   3   8
BRANCH   1  10
ATOM     10  C   UNL     1     -10.516  16.812  68.512  0.00  0.00    +0.169 C 
BRANCH  10  11
ATOM     11  O   UNL     1     -10.875  18.022  67.959  0.00  0.00    -0.349 OA
BRANCH  11  12
ATOM     12  C   UNL     1     -10.023  18.999  68.488  0.00  0.00    +0.143 C 
BRANCH  12  13
ATOM     13  C   UNL     1      -9.867  20.170  67.525  0.00  0.00    +0.032 C 
BRANCH  13  15
ATOM     14  C   UNL     1      -7.998  19.304  66.112  0.00  0.00    +0.000 C 
ATOM     15  C   UNL     1      -9.477  19.652  66.160  0.00  0.00    +0.003 C 
ENDBRANCH  13  15
ENDBRANCH  12  13
ENDBRANCH  11  12
ENDBRANCH  10  11
ENDBRANCH   1  10
TORSDOF 6
ENDMDL
MODEL 9
REMARK VINA RESULT:      -4.8      1.967      2.585
REMARK  Name = 
REMARK  6 active torsions:
REMARK  status: ('A' for Active; 'I' for Inactive)
REMARK    1  A    between atoms: C_2  and  C_3
REMARK    2  A    between atoms: C_3  and  C_4
REMARK    3  A    between atoms: C_4  and  O_5
REMARK    4  A    between atoms: O_5  and  C_6
REMARK    5  A    between atoms: C_6  and  C_7
REMARK    6  A    between atoms: C_12  and  O_13
REMARK                            x       y       z     vdW  Elec       q    Type
REMARK                         _______ _______ _______ _____ _____    ______ ____
ROOT
ATOM      1  C   UNL     1     -11.530  13.264  67.426  0.00  0.00    +0.010 A 
ATOM      2  C   UNL     1     -10.919  12.285  66.673  0.00  0.00    +0.038 A 
ATOM      3  C   UNL     1     -11.288  12.092  65.349  0.00  0.00    +0.177 A 
ATOM      4  C   UNL     1     -12.286  12.844  64.743  0.00  0.00    +0.229 A 
ATOM      5  O   UNL     1     -13.202  12.186  63.914  0.00  0.00    -0.283 OA
ATOM      6  C   UNL     1     -12.660  14.008  65.404  0.00  0.00    +0.045 A 
ATOM      7  C   UNL     1     -12.231  14.226  66.708  0.00  0.00    +0.002 A 
ENDROOT
BRANCH   3   8
ATOM      8  O   UNL     1     -10.657  11.153  64.528  0.00  0.00    -0.468 OA
ATOM      9  C   UNL     1     -10.011  10.028  65.077  0.00  0.00    +0.253 C 
ENDBRANCH   3   8
BRANCH   1  10
ATOM     10  C   UNL     1     -11.779  13.169  68.875  0.00  0.00    +0.169 C 
BRANCH  10  11
ATOM     11  O   UNL     1     -12.360  14.291  69.427  0.00  0.00    -0.349 OA
BRANCH  11  12
ATOM     12  C   UNL     1     -12.038  14.307  70.789  0.00  0.00    +0.143 C 
BRANCH  12  13
ATOM     13  C   UNL     1     -11.764  15.727  71.271  0.00  0.00    +0.032 C 
BRANCH  13  15
ATOM     14  C   UNL     1     -13.739  15.722  72.799  0.00  0.00    +0.000 C 
ATOM     15  C   UNL     1     -12.230  15.872  72.701  0.00  0.00    +0.003 C 
ENDBRANCH  13  15
ENDBRANCH  12  13
ENDBRANCH  11  12
ENDBRANCH  10  11
ENDBRANCH   1  10
TORSDOF 6
ENDMDL
