MODEL 1
REMARK VINA RESULT:      -7.0      0.000      0.000
REMARK  Name = 
REMARK  3 active torsions:
REMARK  status: ('A' for Active; 'I' for Inactive)
REMARK    1  A    between atoms: C_2  and  C_4
REMARK    2  A    between atoms: C_8  and  C_9
REMARK    3  A    between atoms: C_9  and  C_11
REMARK                            x       y       z     vdW  Elec       q    Type
REMARK                         _______ _______ _______ _____ _____    ______ ____
ROOT
ATOM      1  C   UNL     1     -12.508  12.969  65.296  0.00  0.00    +0.143 C 
ATOM      2  C   UNL     1     -11.539  12.990  66.582  0.00  0.00    +0.048 A 
ATOM      3  N   UNL     1     -11.717  14.232  67.039  0.00  0.00    -0.328 N 
ATOM      4  C   UNL     1     -11.742  14.291  68.376  0.00  0.00    +0.099 A 
ATOM      5  C   UNL     1     -11.531  13.019  68.835  0.00  0.00    +0.022 A 
ATOM      6  C   UNL     1     -11.509  15.112  65.932  0.00  0.00    +0.107 C 
ATOM      7  C   UNL     1     -11.685  12.201  67.722  0.00  0.00    +0.015 A 
ATOM      8  C   UNL     1     -11.894  14.377  64.735  0.00  0.00    +0.042 C 
ENDROOT
BRANCH   1  10
ATOM      9  O   UNL     1     -12.013  11.642  63.399  0.00  0.00    -0.245 OA
ATOM     10  C   UNL     1     -11.476  12.084  64.434  0.00  0.00    +0.370 C 
ATOM     11  O   UNL     1     -10.232  12.681  64.193  0.00  0.00    -0.245 OA
ENDBRANCH   1  10
BRANCH   4  12
ATOM     12  C   UNL     1     -12.052  15.496  69.155  0.00  0.00    +0.211 C 
ATOM     13  O   UNL     1     -11.544  16.587  68.754  0.00  0.00    -0.285 OA
BRANCH  12  14
ATOM     14  C   UNL     1     -12.382  15.457  70.574  0.00  0.00    +0.040 A 
ATOM     15  C   UNL     1     -11.662  16.116  71.544  0.00  0.00    +0.003 A 
ATOM     16  C   UNL     1     -12.112  15.963  72.850  0.00  0.00    +0.000 A 
ATOM     17  C   UNL     1     -13.319  15.355  73.133  0.00  0.00    +0.000 A 
ATOM     18  C   UNL     1     -14.188  15.018  72.107  0.00  0.00    +0.000 A 
ATOM     19  C   UNL     1     -13.718  15.170  70.833  0.00  0.00    +0.003 A 
ENDBRANCH  12  14
ENDBRANCH   4  12
TORSDOF 3
ENDMDL
MODEL 2
REMARK VINA RESULT:      -6.8      2.279      6.589
REMARK  Name = 
REMARK  3 active torsions:
REMARK  status: ('A' for Active; 'I' for Inactive)
REMARK    1  A    between atoms: C_2  and  C_4
REMARK    2  A    between atoms: C_8  and  C_9
REMARK    3  A    between atoms: C_9  and  C_11
REMARK                            x       y       z     vdW  Elec       q    Type
REMARK                         _______ _______ _______ _____ _____    ______ ____
ROOT
ATOM      1  C   UNL     1     -11.884  14.997  72.407  0.00  0.00    +0.143 C 
ATOM      2  C   UNL     1     -12.646  13.987  71.411  0.00  0.00    +0.048 A 
ATOM      3  N   UNL     1     -11.954  14.143  70.280  0.00  0.00    -0.328 N 
ATOM      4  C   UNL     1     -11.788  12.994  69.614  0.00  0.00    +0.099 A 
ATOM      5  C   UNL     1     -12.439  12.023  70.326  0.00  0.00    +0.022 A 
ATOM      6  C   UNL     1     -11.899  15.548  70.022  0.00  0.00    +0.107 C 
ATOM      7  C   UNL     1     -12.719  12.603  71.557  0.00  0.00    +0.015 A 
ATOM      8  C   UNL     1     -11.944  16.214  71.316  0.00  0.00    +0.042 C 
ENDROOT
BRANCH   1  10
ATOM      9  O   UNL     1     -13.039  16.298  74.012  0.00  0.00    -0.245 OA
ATOM     10  C   UNL     1     -13.254  15.459  73.115  0.00  0.00    +0.370 C 
ATOM     11  O   UNL     1     -14.280  15.843  72.242  0.00  0.00    -0.245 OA
ENDBRANCH   1  10
BRANCH   4  12
ATOM     12  C   UNL     1     -10.960  12.835  68.412  0.00  0.00    +0.211 C 
ATOM     13  O   UNL     1      -9.746  13.193  68.498  0.00  0.00    -0.285 OA
BRANCH  12  14
ATOM     14  C   UNL     1     -11.513  12.855  67.063  0.00  0.00    +0.040 A 
ATOM     15  C   UNL     1     -12.164  13.939  66.521  0.00  0.00    +0.003 A 
ATOM     16  C   UNL     1     -12.636  13.782  65.223  0.00  0.00    +0.000 A 
ATOM     17  C   UNL     1     -12.296  12.685  64.458  0.00  0.00    +0.000 A 
ATOM     18  C   UNL     1     -11.346  11.784  64.913  0.00  0.00    +0.000 A 
ATOM     19  C   UNL     1     -10.906  11.955  66.195  0.00  0.00    +0.003 A 
ENDBRANCH  12  14
ENDBRANCH   4  12
TORSDOF 3
ENDMDL
MODEL 3
REMARK VINA RESULT:      -6.5      2.344      6.829
REMARK  Name = 
REMARK  3 active torsions:
REMARK  status: ('A' for Active; 'I' for Inactive)
REMARK    1  A    between atoms: C_2  and  C_4
REMARK    2  A    between atoms: C_8  and  C_9
REMARK    3  A    between atoms: C_9  and  C_11
REMARK                            x       y       z     vdW  Elec       q    Type
REMARK                         _______ _______ _______ _____ _____    ______ ____
ROOT
ATOM      1  C   UNL     1     -13.712  14.876  71.424  0.00  0.00    +0.143 C 
ATOM      2  C   UNL     1     -12.252  14.779  70.752  0.00  0.00    +0.048 A 
ATOM      3  N   UNL     1     -12.297  13.576  70.173  0.00  0.00    -0.328 N 
ATOM      4  C   UNL     1     -11.684  13.554  68.983  0.00  0.00    +0.099 A 
ATOM      5  C   UNL     1     -11.170  14.805  68.776  0.00  0.00    +0.022 A 
ATOM      6  C   UNL     1     -12.721  12.651  71.176  0.00  0.00    +0.107 C 
ATOM      7  C   UNL     1     -11.766  15.607  69.742  0.00  0.00    +0.015 A 
ATOM      8  C   UNL     1     -13.566  13.394  72.101  0.00  0.00    +0.042 C 
ENDROOT
BRANCH   1  10
ATOM      9  O   UNL     1     -14.013  16.348  73.253  0.00  0.00    -0.245 OA
ATOM     10  C   UNL     1     -13.145  15.618  72.736  0.00  0.00    +0.370 C 
ATOM     11  O   UNL     1     -12.506  14.787  73.665  0.00  0.00    -0.245 OA
ENDBRANCH   1  10
BRANCH   4  12
ATOM     12  C   UNL     1     -11.687  12.411  68.061  0.00  0.00    +0.211 C 
ATOM     13  O   UNL     1     -11.111  11.353  68.455  0.00  0.00    -0.285 OA
BRANCH  12  14
ATOM     14  C   UNL     1     -11.771  12.563  66.614  0.00  0.00    +0.040 A 
ATOM     15  C   UNL     1     -12.442  13.590  65.991  0.00  0.00    +0.003 A 
ATOM     16  C   UNL     1     -12.427  13.576  64.602  0.00  0.00    +0.000 A 
ATOM     17  C   UNL     1     -11.624  12.704  63.895  0.00  0.00    +0.000 A 
ATOM     18  C   UNL     1     -10.691  11.921  64.559  0.00  0.00    +0.000 A 
ATOM     19  C   UNL     1     -10.732  11.947  65.924  0.00  0.00    +0.003 A 
ENDBRANCH  12  14
ENDBRANCH   4  12
TORSDOF 3
ENDMDL
MODEL 4
REMARK VINA RESULT:      -6.5      2.813      4.131
REMARK  Name = 
REMARK  3 active torsions:
REMARK  status: ('A' for Active; 'I' for Inactive)
REMARK    1  A    between atoms: C_2  and  C_4
REMARK    2  A    between atoms: C_8  and  C_9
REMARK    3  A    between atoms: C_9  and  C_11
REMARK                            x       y       z     vdW  Elec       q    Type
REMARK                         _______ _______ _______ _____ _____    ______ ____
ROOT
ATOM      1  C   UNL     1     -12.576  13.333  65.272  0.00  0.00    +0.143 C 
ATOM      2  C   UNL     1     -11.154  13.482  66.012  0.00  0.00    +0.048 A 
ATOM      3  N   UNL     1     -11.121  14.790  66.283  0.00  0.00    -0.328 N 
ATOM      4  C   UNL     1     -10.577  15.055  67.477  0.00  0.00    +0.099 A 
ATOM      5  C   UNL     1     -10.192  13.858  68.015  0.00  0.00    +0.022 A 
ATOM      6  C   UNL     1     -11.403  15.471  65.059  0.00  0.00    +0.107 C 
ATOM      7  C   UNL     1     -10.802  12.892  67.225  0.00  0.00    +0.015 A 
ATOM      8  C   UNL     1     -12.258  14.591  64.276  0.00  0.00    +0.042 C 
ENDROOT
BRANCH   1  10
ATOM      9  O   UNL     1     -12.837  12.015  63.324  0.00  0.00    -0.245 OA
ATOM     10  C   UNL     1     -12.007  12.255  64.222  0.00  0.00    +0.370 C 
ATOM     11  O   UNL     1     -10.725  12.522  63.725  0.00  0.00    -0.245 OA
ENDBRANCH   1  10
BRANCH   4  12
ATOM     12  C   UNL     1     -10.528  16.385  68.097  0.00  0.00    +0.211 C 
ATOM     13  O   UNL     1     -11.518  16.722  68.815  0.00  0.00    -0.285 OA
BRANCH  12  14
ATOM     14  C   UNL     1      -9.776  17.496  67.528  0.00  0.00    +0.040 A 
ATOM     15  C   UNL     1      -8.611  17.343  66.813  0.00  0.00    +0.003 A 
ATOM     16  C   UNL     1      -8.019  18.511  66.349  0.00  0.00    +0.000 A 
ATOM     17  C   UNL     1      -8.665  19.729  66.427  0.00  0.00    +0.000 A 
ATOM     18  C   UNL     1      -9.989  19.792  66.831  0.00  0.00    +0.000 A 
ATOM     19  C   UNL     1     -10.544  18.631  67.291  0.00  0.00    +0.003 A 
ENDBRANCH  12  14
ENDBRANCH   4  12
TORSDOF 3
ENDMDL
MODEL 5
REMARK VINA RESULT:      -6.4      3.336      5.719
REMARK  Name = 
REMARK  3 active torsions:
REMARK  status: ('A' for Active; 'I' for Inactive)
REMARK    1  A    between atoms: C_2  and  C_4
REMARK    2  A    between atoms: C_8  and  C_9
REMARK    3  A    between atoms: C_9  and  C_11
REMARK                            x       y       z     vdW  Elec       q    Type
REMARK                         _______ _______ _______ _____ _____    ______ ____
ROOT
ATOM      1  C   UNL     1     -10.541  14.707  65.085  0.00  0.00    +0.143 C 
ATOM      2  C   UNL     1     -11.024  14.525  66.610  0.00  0.00    +0.048 A 
ATOM      3  N   UNL     1     -11.566  13.304  66.582  0.00  0.00    -0.328 N 
ATOM      4  C   UNL     1     -11.310  12.601  67.692  0.00  0.00    +0.099 A 
ATOM      5  C   UNL     1     -10.587  13.414  68.522  0.00  0.00    +0.022 A 
ATOM      6  C   UNL     1     -12.495  13.291  65.497  0.00  0.00    +0.107 C 
ATOM      7  C   UNL     1     -10.191  14.484  67.728  0.00  0.00    +0.015 A 
ATOM      8  C   UNL     1     -11.994  14.231  64.504  0.00  0.00    +0.042 C 
ENDROOT
BRANCH   1  10
ATOM      9  O   UNL     1      -9.982  16.992  65.351  0.00  0.00    -0.245 OA
ATOM     10  C   UNL     1     -10.951  16.263  65.058  0.00  0.00    +0.370 C 
ATOM     11  O   UNL     1     -11.622  16.686  63.904  0.00  0.00    -0.245 OA
ENDBRANCH   1  10
BRANCH   4  12
ATOM     12  C   UNL     1     -11.662  11.190  67.888  0.00  0.00    +0.211 C 
ATOM     13  O   UNL     1     -12.278  10.894  68.957  0.00  0.00    -0.285 OA
BRANCH  12  14
ATOM     14  C   UNL     1     -10.907  10.095  67.291  0.00  0.00    +0.040 A 
ATOM     15  C   UNL     1     -10.183  10.213  66.128  0.00  0.00    +0.003 A 
ATOM     16  C   UNL     1      -9.529   9.066  65.695  0.00  0.00    +0.000 A 
ATOM     17  C   UNL     1      -9.446   7.938  66.487  0.00  0.00    +0.000 A 
ATOM     18  C   UNL     1      -9.883   7.976  67.803  0.00  0.00    +0.000 A 
ATOM     19  C   UNL     1     -10.530   9.112  68.199  0.00  0.00    +0.003 A 
ENDBRANCH  12  14
ENDBRANCH   4  12
TORSDOF 3
ENDMDL
MODEL 6
REMARK VINA RESULT:      -6.4      3.458      6.115
REMARK  Name = 
REMARK  3 active torsions:
REMARK  status: ('A' for Active; 'I' for Inactive)
REMARK    1  A    between atoms: C_2  and  C_4
REMARK    2  A    between atoms: C_8  and  C_9
REMARK    3  A    between atoms: C_9  and  C_11
REMARK                            x       y       z     vdW  Elec       q    Type
REMARK                         _______ _______ _______ _____ _____    ______ ____
ROOT
ATOM      1  C   UNL     1     -12.295  14.307  71.659  0.00  0.00    +0.143 C 
ATOM      2  C   UNL     1     -12.319  14.708  70.100  0.00  0.00    +0.048 A 
ATOM      3  N   UNL     1     -11.303  15.571  70.023  0.00  0.00    -0.328 N 
ATOM      4  C   UNL     1     -10.601  15.441  68.891  0.00  0.00    +0.099 A 
ATOM      5  C   UNL     1     -11.208  14.460  68.155  0.00  0.00    +0.022 A 
ATOM      6  C   UNL     1     -11.510  16.544  71.048  0.00  0.00    +0.107 C 
ATOM      7  C   UNL     1     -12.088  13.840  69.034  0.00  0.00    +0.015 A 
ATOM      8  C   UNL     1     -12.229  15.874  72.124  0.00  0.00    +0.042 C 
ENDROOT
BRANCH   1  10
ATOM      9  O   UNL     1     -14.283  13.421  72.590  0.00  0.00    -0.245 OA
ATOM     10  C   UNL     1     -13.901  14.265  71.755  0.00  0.00    +0.370 C 
ATOM     11  O   UNL     1     -14.525  15.509  71.910  0.00  0.00    -0.245 OA
ENDBRANCH   1  10
BRANCH   4  12
ATOM     12  C   UNL     1      -9.357  16.160  68.590  0.00  0.00    +0.211 C 
ATOM     13  O   UNL     1      -8.324  15.822  69.245  0.00  0.00    -0.285 OA
BRANCH  12  14
ATOM     14  C   UNL     1      -9.336  17.521  68.070  0.00  0.00    +0.040 A 
ATOM     15  C   UNL     1     -10.460  18.198  67.656  0.00  0.00    +0.003 A 
ATOM     16  C   UNL     1     -10.256  19.487  67.179  0.00  0.00    +0.000 A 
ATOM     17  C   UNL     1      -9.036  20.119  67.301  0.00  0.00    +0.000 A 
ATOM     18  C   UNL     1      -8.020  19.539  68.045  0.00  0.00    +0.000 A 
ATOM     19  C   UNL     1      -8.242  18.268  68.495  0.00  0.00    +0.003 A 
ENDBRANCH  12  14
ENDBRANCH   4  12
TORSDOF 3
ENDMDL
MODEL 7
REMARK VINA RESULT:      -6.4      3.445      4.493
REMARK  Name = 
REMARK  3 active torsions:
REMARK  status: ('A' for Active; 'I' for Inactive)
REMARK    1  A    between atoms: C_2  and  C_4
REMARK    2  A    between atoms: C_8  and  C_9
REMARK    3  A    between atoms: C_9  and  C_11
REMARK                            x       y       z     vdW  Elec       q    Type
REMARK                         _______ _______ _______ _____ _____    ______ ____
ROOT
ATOM      1  C   UNL     1     -10.461  14.428  64.875  0.00  0.00    +0.143 C 
ATOM      2  C   UNL     1     -10.344  14.227  66.469  0.00  0.00    +0.048 A 
ATOM      3  N   UNL     1     -10.820  12.989  66.624  0.00  0.00    -0.328 N 
ATOM      4  C   UNL     1     -10.152  12.293  67.552  0.00  0.00    +0.099 A 
ATOM      5  C   UNL     1      -9.200  13.129  68.069  0.00  0.00    +0.022 A 
ATOM      6  C   UNL     1     -12.082  12.945  65.956  0.00  0.00    +0.107 C 
ATOM      7  C   UNL     1      -9.158  14.213  67.201  0.00  0.00    +0.015 A 
ATOM      8  C   UNL     1     -12.011  13.904  64.862  0.00  0.00    +0.042 C 
ENDROOT
BRANCH   1  10
ATOM      9  O   UNL     1      -9.935  16.687  65.349  0.00  0.00    -0.245 OA
ATOM     10  C   UNL     1     -10.901  15.970  65.023  0.00  0.00    +0.370 C 
ATOM     11  O   UNL     1     -11.629  16.491  63.946  0.00  0.00    -0.245 OA
ENDBRANCH   1  10
BRANCH   4  12
ATOM     12  C   UNL     1     -10.363  10.869  67.843  0.00  0.00    +0.211 C 
ATOM     13  O   UNL     1     -10.587  10.106  66.855  0.00  0.00    -0.285 OA
BRANCH  12  14
ATOM     14  C   UNL     1     -10.884  10.392  69.118  0.00  0.00    +0.040 A 
ATOM     15  C   UNL     1     -10.146   9.658  70.018  0.00  0.00    +0.003 A 
ATOM     16  C   UNL     1     -10.804   9.277  71.181  0.00  0.00    +0.000 A 
ATOM     17  C   UNL     1     -12.051   9.774  71.503  0.00  0.00    +0.000 A 
ATOM     18  C   UNL     1     -12.614  10.790  70.746  0.00  0.00    +0.000 A 
ATOM     19  C   UNL     1     -11.952  11.139  69.603  0.00  0.00    +0.003 A 
ENDBRANCH  12  14
ENDBRANCH   4  12
TORSDOF 3
ENDMDL
MODEL 8
REMARK VINA RESULT:      -6.3      3.834      4.913
REMARK  Name = 
REMARK  3 active torsions:
REMARK  status: ('A' for Active; 'I' for Inactive)
REMARK    1  A    between atoms: C_2  and  C_4
REMARK    2  A    between atoms: C_8  and  C_9
REMARK    3  A    between atoms: C_9  and  C_11
REMARK                            x       y       z     vdW  Elec       q    Type
REMARK                         _______ _______ _______ _____ _____    ______ ____
ROOT
ATOM      1  C   UNL     1     -11.651  14.456  66.098  0.00  0.00    +0.143 C 
ATOM      2  C   UNL     1     -10.945  14.901  67.475  0.00  0.00    +0.048 A 
ATOM      3  N   UNL     1     -10.468  16.109  67.160  0.00  0.00    -0.328 N 
ATOM      4  C   UNL     1     -10.579  16.984  68.166  0.00  0.00    +0.099 A 
ATOM      5  C   UNL     1     -11.128  16.310  69.223  0.00  0.00    +0.022 A 
ATOM      6  C   UNL     1      -9.721  15.954  65.952  0.00  0.00    +0.107 C 
ATOM      7  C   UNL     1     -11.595  15.116  68.689  0.00  0.00    +0.015 A 
ATOM      8  C   UNL     1     -10.329  14.852  65.220  0.00  0.00    +0.042 C 
ENDROOT
BRANCH   1  10
ATOM      9  O   UNL     1     -12.139  12.191  66.581  0.00  0.00    -0.245 OA
ATOM     10  C   UNL     1     -11.183  12.925  66.260  0.00  0.00    +0.370 C 
ATOM     11  O   UNL     1     -10.433  12.412  65.194  0.00  0.00    -0.245 OA
ENDBRANCH   1  10
BRANCH   4  12
ATOM     12  C   UNL     1     -10.263  18.415  68.069  0.00  0.00    +0.211 C 
ATOM     13  O   UNL     1     -11.072  19.140  67.415  0.00  0.00    -0.285 OA
BRANCH  12  14
ATOM     14  C   UNL     1      -8.902  18.931  68.150  0.00  0.00    +0.040 A 
ATOM     15  C   UNL     1      -7.828  18.187  68.580  0.00  0.00    +0.003 A 
ATOM     16  C   UNL     1      -6.601  18.840  68.602  0.00  0.00    +0.000 A 
ATOM     17  C   UNL     1      -6.437  20.090  68.039  0.00  0.00    +0.000 A 
ATOM     18  C   UNL     1      -7.460  20.661  67.296  0.00  0.00    +0.000 A 
ATOM     19  C   UNL     1      -8.657  20.003  67.299  0.00  0.00    +0.003 A 
ENDBRANCH  12  14
ENDBRANCH   4  12
TORSDOF 3
ENDMDL
MODEL 9
REMARK VINA RESULT:      -6.3      4.698      7.006
REMARK  Name = 
REMARK  3 active torsions:
REMARK  status: ('A' for Active; 'I' for Inactive)
REMARK    1  A    between atoms: C_2  and  C_4
REMARK    2  A    between atoms: C_8  and  C_9
REMARK    3  A    between atoms: C_9  and  C_11
REMARK                            x       y       z     vdW  Elec       q    Type
REMARK                         _______ _______ _______ _____ _____    ______ ____
ROOT
ATOM      1  C   UNL     1      -7.271  19.301  68.295  0.00  0.00    +0.143 C 
ATOM      2  C   UNL     1      -8.435  19.690  67.252  0.00  0.00    +0.048 A 
ATOM      3  N   UNL     1      -8.615  18.539  66.600  0.00  0.00    -0.328 N 
ATOM      4  C   UNL     1      -9.901  18.301  66.319  0.00  0.00    +0.099 A 
ATOM      5  C   UNL     1     -10.615  19.374  66.780  0.00  0.00    +0.022 A 
ATOM      6  C   UNL     1      -7.325  18.111  66.156  0.00  0.00    +0.107 C 
ATOM      7  C   UNL     1      -9.731  20.078  67.588  0.00  0.00    +0.015 A 
ATOM      8  C   UNL     1      -6.359  18.623  67.118  0.00  0.00    +0.042 C 
ENDROOT
BRANCH   1  10
ATOM      9  O   UNL     1      -5.360  20.678  68.520  0.00  0.00    -0.245 OA
ATOM     10  C   UNL     1      -6.547  20.730  68.143  0.00  0.00    +0.370 C 
ATOM     11  O   UNL     1      -6.698  21.348  66.895  0.00  0.00    -0.245 OA
ENDBRANCH   1  10
BRANCH   4  12
ATOM     12  C   UNL     1     -10.413  17.058  65.729  0.00  0.00    +0.211 C 
ATOM     13  O   UNL     1     -11.049  17.159  64.636  0.00  0.00    -0.285 OA
BRANCH  12  14
ATOM     14  C   UNL     1     -10.743  15.882  66.525  0.00  0.00    +0.040 A 
ATOM     15  C   UNL     1     -10.944  15.912  67.885  0.00  0.00    +0.003 A 
ATOM     16  C   UNL     1     -11.242  14.695  68.487  0.00  0.00    +0.000 A 
ATOM     17  C   UNL     1     -11.517  13.567  67.740  0.00  0.00    +0.000 A 
ATOM     18  C   UNL     1     -11.655  13.658  66.363  0.00  0.00    +0.000 A 
ATOM     19  C   UNL     1     -11.347  14.863  65.796  0.00  0.00    +0.003 A 
ENDBRANCH  12  14
ENDBRANCH   4  12
TORSDOF 3
ENDMDL
