MODEL 1
REMARK VINA RESULT:      -7.6      0.000      0.000
REMARK  Name = 
REMARK  7 active torsions:
REMARK  status: ('A' for Active; 'I' for Inactive)
REMARK    1  A    between atoms: N_10  and  C_11
REMARK    2  A    between atoms: C_11  and  C_12
REMARK    3  A    between atoms: C_15  and  O_16
REMARK    4  A    between atoms: O_16  and  C_17
REMARK    5  A    between atoms: C_17  and  C_18
REMARK    6  A    between atoms: C_18  and  N_19
REMARK    7  A    between atoms: C_28  and  C_29
REMARK                            x       y       z     vdW  Elec       q    Type
REMARK                         _______ _______ _______ _____ _____    ______ ____
ROOT
ATOM      1  C   UNL     1     -11.831  11.914  69.313  0.00  0.00    +0.033 C 
ATOM      2  C   UNL     1     -11.797  13.226  68.594  0.00  0.00    -0.005 A 
ATOM      3  C   UNL     1     -11.768  14.499  69.137  0.00  0.00    +0.056 A 
ATOM      4  N   UNL     1     -11.535  15.388  68.141  0.00  0.00    -0.323 N 
ATOM      5  C   UNL     1     -11.611  14.693  66.980  0.00  0.00    +0.060 A 
ATOM      6  C   UNL     1     -11.582  15.127  65.679  0.00  0.00    +0.020 A 
ATOM      7  C   UNL     1     -12.220  14.333  64.738  0.00  0.00    +0.044 A 
ATOM      8  C   UNL     1     -12.341  12.971  64.967  0.00  0.00    +0.196 A 
ATOM      9  O   UNL     1     -13.014  12.157  64.060  0.00  0.00    -0.287 OA
ATOM     10  C   UNL     1     -11.850  12.486  66.172  0.00  0.00    +0.043 A 
ATOM     11  C   UNL     1     -11.561  13.338  67.230  0.00  0.00    +0.016 A 
ENDROOT
BRANCH   3  12
ATOM     12  C   UNL     1     -12.282  14.836  70.452  0.00  0.00    +0.016 A 
ATOM     13  C   UNL     1     -13.619  14.946  70.746  0.00  0.00    +0.005 A 
ATOM     14  C   UNL     1     -14.034  15.289  72.026  0.00  0.00    +0.042 A 
ATOM     15  C   UNL     1     -13.090  15.690  72.962  0.00  0.00    +0.196 A 
ATOM     16  O   UNL     1     -13.401  16.598  73.979  0.00  0.00    -0.287 OA
ATOM     17  C   UNL     1     -11.770  15.315  72.777  0.00  0.00    +0.042 A 
ATOM     18  C   UNL     1     -11.408  14.882  71.531  0.00  0.00    +0.005 A 
ENDBRANCH   3  12
BRANCH   4  19
ATOM     19  C   UNL     1     -10.760  16.601  68.381  0.00  0.00    +0.133 C 
BRANCH  19  20
ATOM     20  C   UNL     1      -9.305  16.366  68.282  0.00  0.00    +0.001 A 
ATOM     21  C   UNL     1      -8.731  15.573  69.268  0.00  0.00    +0.001 A 
ATOM     22  C   UNL     1      -7.662  14.726  68.999  0.00  0.00    +0.037 A 
ATOM     23  C   UNL     1      -7.148  14.647  67.710  0.00  0.00    +0.139 A 
ATOM     24  C   UNL     1      -7.438  15.731  66.892  0.00  0.00    +0.037 A 
ATOM     25  C   UNL     1      -8.578  16.492  67.118  0.00  0.00    +0.001 A 
BRANCH  23  26
ATOM     26  O   UNL     1      -6.601  13.469  67.201  0.00  0.00    -0.474 OA
BRANCH  26  27
ATOM     27  C   UNL     1      -7.046  12.186  67.561  0.00  0.00    +0.223 C 
BRANCH  27  28
ATOM     28  C   UNL     1      -8.255  11.745  66.749  0.00  0.00    +0.120 C 
BRANCH  28  29
ATOM     29  N   UNL     1      -7.948  10.649  65.866  0.00  0.00    -0.270 NA
ATOM     30  C   UNL     1      -7.056   9.676  66.437  0.00  0.00    +0.072 C 
ATOM     31  C   UNL     1      -7.726   8.320  66.608  0.00  0.00    +0.017 C 
ATOM     32  C   UNL     1      -8.535   8.416  67.896  0.00  0.00    +0.001 C 
ATOM     33  C   UNL     1      -9.600   9.475  67.635  0.00  0.00    +0.001 C 
ATOM     34  C   UNL     1     -10.004   9.331  66.194  0.00  0.00    +0.017 C 
ATOM     35  C   UNL     1      -9.106  10.066  65.242  0.00  0.00    +0.072 C 
ENDBRANCH  28  29
ENDBRANCH  27  28
ENDBRANCH  26  27
ENDBRANCH  23  26
ENDBRANCH  19  20
ENDBRANCH   4  19
TORSDOF 7
ENDMDL
MODEL 2
REMARK VINA RESULT:      -7.5      3.351      5.987
REMARK  Name = 
REMARK  7 active torsions:
REMARK  status: ('A' for Active; 'I' for Inactive)
REMARK    1  A    between atoms: N_10  and  C_11
REMARK    2  A    between atoms: C_11  and  C_12
REMARK    3  A    between atoms: C_15  and  O_16
REMARK    4  A    between atoms: O_16  and  C_17
REMARK    5  A    between atoms: C_17  and  C_18
REMARK    6  A    between atoms: C_18  and  N_19
REMARK    7  A    between atoms: C_28  and  C_29
REMARK                            x       y       z     vdW  Elec       q    Type
REMARK                         _______ _______ _______ _____ _____    ______ ____
ROOT
ATOM      1  C   UNL     1     -11.500  11.948  69.130  0.00  0.00    +0.033 C 
ATOM      2  C   UNL     1     -11.630  13.245  68.395  0.00  0.00    -0.005 A 
ATOM      3  C   UNL     1     -11.721  14.522  68.921  0.00  0.00    +0.056 A 
ATOM      4  N   UNL     1     -11.618  15.415  67.908  0.00  0.00    -0.323 N 
ATOM      5  C   UNL     1     -11.656  14.698  66.759  0.00  0.00    +0.060 A 
ATOM      6  C   UNL     1     -11.717  15.113  65.452  0.00  0.00    +0.020 A 
ATOM      7  C   UNL     1     -12.297  14.240  64.543  0.00  0.00    +0.044 A 
ATOM      8  C   UNL     1     -12.263  12.876  64.792  0.00  0.00    +0.196 A 
ATOM      9  O   UNL     1     -12.874  11.981  63.918  0.00  0.00    -0.287 OA
ATOM     10  C   UNL     1     -11.683  12.466  65.985  0.00  0.00    +0.043 A 
ATOM     11  C   UNL     1     -11.453  13.360  67.022  0.00  0.00    +0.016 A 
ENDROOT
BRANCH   3  12
ATOM     12  C   UNL     1     -12.224  14.822  70.249  0.00  0.00    +0.016 A 
ATOM     13  C   UNL     1     -13.556  14.815  70.582  0.00  0.00    +0.005 A 
ATOM     14  C   UNL     1     -13.963  15.129  71.871  0.00  0.00    +0.042 A 
ATOM     15  C   UNL     1     -13.032  15.621  72.778  0.00  0.00    +0.196 A 
ATOM     16  O   UNL     1     -13.393  16.505  73.798  0.00  0.00    -0.287 OA
ATOM     17  C   UNL     1     -11.689  15.364  72.555  0.00  0.00    +0.042 A 
ATOM     18  C   UNL     1     -11.326  14.955  71.302  0.00  0.00    +0.005 A 
ENDBRANCH   3  12
BRANCH   4  19
ATOM     19  C   UNL     1     -10.969  16.707  68.106  0.00  0.00    +0.133 C 
BRANCH  19  20
ATOM     20  C   UNL     1      -9.523  16.661  67.813  0.00  0.00    +0.001 A 
ATOM     21  C   UNL     1      -9.140  16.949  66.508  0.00  0.00    +0.001 A 
ATOM     22  C   UNL     1      -7.946  17.601  66.220  0.00  0.00    +0.037 A 
ATOM     23  C   UNL     1      -7.105  17.995  67.255  0.00  0.00    +0.139 A 
ATOM     24  C   UNL     1      -7.295  17.325  68.457  0.00  0.00    +0.037 A 
ATOM     25  C   UNL     1      -8.534  16.781  68.766  0.00  0.00    +0.001 A 
BRANCH  23  26
ATOM     26  O   UNL     1      -6.310  19.138  67.169  0.00  0.00    -0.474 OA
BRANCH  26  27
ATOM     27  C   UNL     1      -6.512  20.287  67.951  0.00  0.00    +0.223 C 
BRANCH  27  28
ATOM     28  C   UNL     1      -5.216  20.817  68.547  0.00  0.00    +0.120 C 
BRANCH  28  29
ATOM     29  N   UNL     1      -5.325  21.056  69.963  0.00  0.00    -0.270 NA
ATOM     30  C   UNL     1      -6.183  20.125  70.644  0.00  0.00    +0.072 C 
ATOM     31  C   UNL     1      -5.417  19.271  71.644  0.00  0.00    +0.017 C 
ATOM     32  C   UNL     1      -4.767  18.160  70.830  0.00  0.00    +0.001 C 
ATOM     33  C   UNL     1      -3.779  18.855  69.900  0.00  0.00    +0.001 C 
ATOM     34  C   UNL     1      -3.208  20.014  70.671  0.00  0.00    +0.017 C 
ATOM     35  C   UNL     1      -4.058  21.249  70.616  0.00  0.00    +0.072 C 
ENDBRANCH  28  29
ENDBRANCH  27  28
ENDBRANCH  26  27
ENDBRANCH  23  26
ENDBRANCH  19  20
ENDBRANCH   4  19
TORSDOF 7
ENDMDL
MODEL 3
REMARK VINA RESULT:      -7.4      2.819      6.404
REMARK  Name = 
REMARK  7 active torsions:
REMARK  status: ('A' for Active; 'I' for Inactive)
REMARK    1  A    between atoms: N_10  and  C_11
REMARK    2  A    between atoms: C_11  and  C_12
REMARK    3  A    between atoms: C_15  and  O_16
REMARK    4  A    between atoms: O_16  and  C_17
REMARK    5  A    between atoms: C_17  and  C_18
REMARK    6  A    between atoms: C_18  and  N_19
REMARK    7  A    between atoms: C_28  and  C_29
REMARK                            x       y       z     vdW  Elec       q    Type
REMARK                         _______ _______ _______ _____ _____    ______ ____
ROOT
ATOM      1  C   UNL     1     -10.426  15.350  68.811  0.00  0.00    +0.033 C 
ATOM      2  C   UNL     1     -11.278  14.216  69.287  0.00  0.00    -0.005 A 
ATOM      3  C   UNL     1     -11.589  13.041  68.624  0.00  0.00    +0.056 A 
ATOM      4  N   UNL     1     -12.213  12.208  69.491  0.00  0.00    -0.323 N 
ATOM      5  C   UNL     1     -12.454  12.931  70.612  0.00  0.00    +0.060 A 
ATOM      6  C   UNL     1     -13.167  12.613  71.740  0.00  0.00    +0.020 A 
ATOM      7  C   UNL     1     -13.719  13.668  72.452  0.00  0.00    +0.044 A 
ATOM      8  C   UNL     1     -13.119  14.917  72.391  0.00  0.00    +0.196 A 
ATOM      9  O   UNL     1     -13.675  16.003  73.061  0.00  0.00    -0.287 OA
ATOM     10  C   UNL     1     -12.010  15.046  71.566  0.00  0.00    +0.043 A 
ATOM     11  C   UNL     1     -11.713  14.093  70.600  0.00  0.00    +0.016 A 
ENDROOT
BRANCH   3  12
ATOM     12  C   UNL     1     -11.593  12.897  67.179  0.00  0.00    +0.016 A 
ATOM     13  C   UNL     1     -12.374  13.651  66.338  0.00  0.00    +0.005 A 
ATOM     14  C   UNL     1     -12.337  13.443  64.966  0.00  0.00    +0.042 A 
ATOM     15  C   UNL     1     -11.637  12.355  64.461  0.00  0.00    +0.196 A 
ATOM     16  O   UNL     1     -12.020  11.716  63.279  0.00  0.00    -0.287 OA
ATOM     17  C   UNL     1     -10.643  11.785  65.241  0.00  0.00    +0.042 A 
ATOM     18  C   UNL     1     -10.640  12.087  66.575  0.00  0.00    +0.005 A 
ENDBRANCH   3  12
BRANCH   4  19
ATOM     19  C   UNL     1     -12.031  10.762  69.409  0.00  0.00    +0.133 C 
BRANCH  19  20
ATOM     20  C   UNL     1     -10.883  10.295  70.211  0.00  0.00    +0.001 A 
ATOM     21  C   UNL     1     -11.175   9.540  71.341  0.00  0.00    +0.001 A 
ATOM     22  C   UNL     1     -10.344   8.512  71.772  0.00  0.00    +0.037 A 
ATOM     23  C   UNL     1      -9.190   8.209  71.059  0.00  0.00    +0.139 A 
ATOM     24  C   UNL     1      -8.721   9.225  70.236  0.00  0.00    +0.037 A 
ATOM     25  C   UNL     1      -9.598  10.174  69.728  0.00  0.00    +0.001 A 
BRANCH  23  26
ATOM     26  O   UNL     1      -8.687   6.910  70.981  0.00  0.00    -0.474 OA
BRANCH  26  27
ATOM     27  C   UNL     1      -9.462   5.796  70.618  0.00  0.00    +0.223 C 
BRANCH  27  28
ATOM     28  C   UNL     1      -9.024   5.194  69.290  0.00  0.00    +0.120 C 
BRANCH  28  29
ATOM     29  N   UNL     1     -10.124   5.037  68.374  0.00  0.00    -0.270 NA
ATOM     30  C   UNL     1     -11.047   6.140  68.381  0.00  0.00    +0.072 C 
ATOM     31  C   UNL     1     -11.068   6.872  67.047  0.00  0.00    +0.017 C 
ATOM     32  C   UNL     1      -9.865   7.808  67.068  0.00  0.00    +0.001 C 
ATOM     33  C   UNL     1      -8.641   6.901  67.126  0.00  0.00    +0.001 C 
ATOM     34  C   UNL     1      -8.966   5.687  66.300  0.00  0.00    +0.017 C 
ATOM     35  C   UNL     1      -9.724   4.633  67.053  0.00  0.00    +0.072 C 
ENDBRANCH  28  29
ENDBRANCH  27  28
ENDBRANCH  26  27
ENDBRANCH  23  26
ENDBRANCH  19  20
ENDBRANCH   4  19
TORSDOF 7
ENDMDL
MODEL 4
REMARK VINA RESULT:      -7.4      2.502      6.654
REMARK  Name = 
REMARK  7 active torsions:
REMARK  status: ('A' for Active; 'I' for Inactive)
REMARK    1  A    between atoms: N_10  and  C_11
REMARK    2  A    between atoms: C_11  and  C_12
REMARK    3  A    between atoms: C_15  and  O_16
REMARK    4  A    between atoms: O_16  and  C_17
REMARK    5  A    between atoms: C_17  and  C_18
REMARK    6  A    between atoms: C_18  and  N_19
REMARK    7  A    between atoms: C_28  and  C_29
REMARK                            x       y       z     vdW  Elec       q    Type
REMARK                         _______ _______ _______ _____ _____    ______ ____
ROOT
ATOM      1  C   UNL     1     -11.974  13.604  64.075  0.00  0.00    +0.033 C 
ATOM      2  C   UNL     1     -10.840  12.910  64.762  0.00  0.00    -0.005 A 
ATOM      3  C   UNL     1     -10.180  13.287  65.919  0.00  0.00    +0.056 A 
ATOM      4  N   UNL     1      -9.363  12.275  66.298  0.00  0.00    -0.323 N 
ATOM      5  C   UNL     1      -9.376  11.372  65.288  0.00  0.00    +0.060 A 
ATOM      6  C   UNL     1      -8.631  10.234  65.103  0.00  0.00    +0.020 A 
ATOM      7  C   UNL     1      -8.433   9.821  63.793  0.00  0.00    +0.044 A 
ATOM      8  C   UNL     1      -9.372  10.151  62.827  0.00  0.00    +0.196 A 
ATOM      9  O   UNL     1      -9.178   9.786  61.497  0.00  0.00    -0.287 OA
ATOM     10  C   UNL     1     -10.447  10.932  63.230  0.00  0.00    +0.043 A 
ATOM     11  C   UNL     1     -10.425  11.627  64.432  0.00  0.00    +0.016 A 
ENDROOT
BRANCH   3  12
ATOM     12  C   UNL     1     -10.094  14.654  66.400  0.00  0.00    +0.016 A 
ATOM     13  C   UNL     1     -10.907  15.173  67.377  0.00  0.00    +0.005 A 
ATOM     14  C   UNL     1     -10.775  16.497  67.774  0.00  0.00    +0.042 A 
ATOM     15  C   UNL     1      -9.936  17.342  67.058  0.00  0.00    +0.196 A 
ATOM     16  O   UNL     1     -10.186  18.713  66.954  0.00  0.00    -0.287 OA
ATOM     17  C   UNL     1      -8.929  16.782  66.290  0.00  0.00    +0.042 A 
ATOM     18  C   UNL     1      -9.028  15.449  65.997  0.00  0.00    +0.005 A 
ENDBRANCH   3  12
BRANCH   4  19
ATOM     19  C   UNL     1      -9.109  12.001  67.709  0.00  0.00    +0.133 C 
BRANCH  19  20
ATOM     20  C   UNL     1     -10.103  11.074  68.288  0.00  0.00    +0.001 A 
ATOM     21  C   UNL     1      -9.667  10.257  69.324  0.00  0.00    +0.001 A 
ATOM     22  C   UNL     1     -10.506   9.887  70.370  0.00  0.00    +0.037 A 
ATOM     23  C   UNL     1     -11.816  10.348  70.402  0.00  0.00    +0.139 A 
ATOM     24  C   UNL     1     -12.324  10.772  69.180  0.00  0.00    +0.037 A 
ATOM     25  C   UNL     1     -11.468  11.244  68.194  0.00  0.00    +0.001 A 
BRANCH  23  26
ATOM     26  O   UNL     1     -12.484  10.600  71.602  0.00  0.00    -0.474 OA
BRANCH  26  27
ATOM     27  C   UNL     1     -13.237  11.761  71.843  0.00  0.00    +0.223 C 
BRANCH  27  28
ATOM     28  C   UNL     1     -12.510  13.024  71.406  0.00  0.00    +0.120 C 
BRANCH  28  29
ATOM     29  N   UNL     1     -13.419  14.101  71.108  0.00  0.00    -0.270 NA
ATOM     30  C   UNL     1     -14.309  14.425  72.190  0.00  0.00    +0.072 C 
ATOM     31  C   UNL     1     -14.065  15.828  72.727  0.00  0.00    +0.017 C 
ATOM     32  C   UNL     1     -12.874  15.710  73.670  0.00  0.00    +0.001 C 
ATOM     33  C   UNL     1     -11.697  15.294  72.796  0.00  0.00    +0.001 C 
ATOM     34  C   UNL     1     -11.878  15.988  71.473  0.00  0.00    +0.017 C 
ATOM     35  C   UNL     1     -12.781  15.253  70.527  0.00  0.00    +0.072 C 
ENDBRANCH  28  29
ENDBRANCH  27  28
ENDBRANCH  26  27
ENDBRANCH  23  26
ENDBRANCH  19  20
ENDBRANCH   4  19
TORSDOF 7
ENDMDL
MODEL 5
REMARK VINA RESULT:      -7.4      2.705      7.038
REMARK  Name = 
REMARK  7 active torsions:
REMARK  status: ('A' for Active; 'I' for Inactive)
REMARK    1  A    between atoms: N_10  and  C_11
REMARK    2  A    between atoms: C_11  and  C_12
REMARK    3  A    between atoms: C_15  and  O_16
REMARK    4  A    between atoms: O_16  and  C_17
REMARK    5  A    between atoms: C_17  and  C_18
REMARK    6  A    between atoms: C_18  and  N_19
REMARK    7  A    between atoms: C_28  and  C_29
REMARK                            x       y       z     vdW  Elec       q    Type
REMARK                         _______ _______ _______ _____ _____    ______ ____
ROOT
ATOM      1  C   UNL     1     -12.800  10.742  71.417  0.00  0.00    +0.033 C 
ATOM      2  C   UNL     1     -12.432  12.037  70.763  0.00  0.00    -0.005 A 
ATOM      3  C   UNL     1     -11.840  12.233  69.527  0.00  0.00    +0.056 A 
ATOM      4  N   UNL     1     -11.873  13.557  69.238  0.00  0.00    -0.323 N 
ATOM      5  C   UNL     1     -12.303  14.184  70.361  0.00  0.00    +0.060 A 
ATOM      6  C   UNL     1     -12.395  15.521  70.653  0.00  0.00    +0.020 A 
ATOM      7  C   UNL     1     -12.321  15.877  71.992  0.00  0.00    +0.044 A 
ATOM      8  C   UNL     1     -12.722  14.969  72.960  0.00  0.00    +0.196 A 
ATOM      9  O   UNL     1     -12.619  15.284  74.313  0.00  0.00    -0.287 OA
ATOM     10  C   UNL     1     -13.135  13.718  72.522  0.00  0.00    +0.043 A 
ATOM     11  C   UNL     1     -12.851  13.272  71.238  0.00  0.00    +0.016 A 
ENDROOT
BRANCH   3  12
ATOM     12  C   UNL     1     -10.999  11.256  68.861  0.00  0.00    +0.016 A 
ATOM     13  C   UNL     1     -11.427  10.455  67.831  0.00  0.00    +0.005 A 
ATOM     14  C   UNL     1     -10.568   9.530  67.253  0.00  0.00    +0.042 A 
ATOM     15  C   UNL     1      -9.328   9.296  67.835  0.00  0.00    +0.196 A 
ATOM     16  O   UNL     1      -8.698   8.051  67.752  0.00  0.00    -0.287 OA
ATOM     17  C   UNL     1      -8.790  10.268  68.663  0.00  0.00    +0.042 A 
ATOM     18  C   UNL     1      -9.638  11.230  69.138  0.00  0.00    +0.005 A 
ENDBRANCH   3  12
BRANCH   4  19
ATOM     19  C   UNL     1     -12.030  14.024  67.865  0.00  0.00    +0.133 C 
BRANCH  19  20
ATOM     20  C   UNL     1     -10.737  14.348  67.231  0.00  0.00    +0.001 A 
ATOM     21  C   UNL     1     -10.759  14.620  65.868  0.00  0.00    +0.001 A 
ATOM     22  C   UNL     1      -9.897  15.545  65.290  0.00  0.00    +0.037 A 
ATOM     23  C   UNL     1      -8.989  16.236  66.084  0.00  0.00    +0.139 A 
ATOM     24  C   UNL     1      -8.702  15.642  67.306  0.00  0.00    +0.037 A 
ATOM     25  C   UNL     1      -9.632  14.809  67.914  0.00  0.00    +0.001 A 
BRANCH  23  26
ATOM     26  O   UNL     1      -8.591  17.541  65.790  0.00  0.00    -0.474 OA
BRANCH  26  27
ATOM     27  C   UNL     1      -9.047  18.669  66.491  0.00  0.00    +0.223 C 
BRANCH  27  28
ATOM     28  C   UNL     1      -8.013  19.786  66.526  0.00  0.00    +0.120 C 
BRANCH  28  29
ATOM     29  N   UNL     1      -7.578  20.084  67.865  0.00  0.00    -0.270 NA
ATOM     30  C   UNL     1      -7.620  18.955  68.754  0.00  0.00    +0.072 C 
ATOM     31  C   UNL     1      -6.232  18.555  69.235  0.00  0.00    +0.017 C 
ATOM     32  C   UNL     1      -5.629  17.719  68.113  0.00  0.00    +0.001 C 
ATOM     33  C   UNL     1      -5.499  18.662  66.922  0.00  0.00    +0.001 C 
ATOM     34  C   UNL     1      -5.146  20.013  67.481  0.00  0.00    +0.017 C 
ATOM     35  C   UNL     1      -6.337  20.811  67.923  0.00  0.00    +0.072 C 
ENDBRANCH  28  29
ENDBRANCH  27  28
ENDBRANCH  26  27
ENDBRANCH  23  26
ENDBRANCH  19  20
ENDBRANCH   4  19
TORSDOF 7
ENDMDL
MODEL 6
REMARK VINA RESULT:      -7.3      3.376      5.957
REMARK  Name = 
REMARK  7 active torsions:
REMARK  status: ('A' for Active; 'I' for Inactive)
REMARK    1  A    between atoms: N_10  and  C_11
REMARK    2  A    between atoms: C_11  and  C_12
REMARK    3  A    between atoms: C_15  and  O_16
REMARK    4  A    between atoms: O_16  and  C_17
REMARK    5  A    between atoms: C_17  and  C_18
REMARK    6  A    between atoms: C_18  and  N_19
REMARK    7  A    between atoms: C_28  and  C_29
REMARK                            x       y       z     vdW  Elec       q    Type
REMARK                         _______ _______ _______ _____ _____    ______ ____
ROOT
ATOM      1  C   UNL     1     -12.139  11.714  68.895  0.00  0.00    +0.033 C 
ATOM      2  C   UNL     1     -11.658  12.913  68.140  0.00  0.00    -0.005 A 
ATOM      3  C   UNL     1     -11.258  14.138  68.644  0.00  0.00    +0.056 A 
ATOM      4  N   UNL     1     -10.708  14.860  67.638  0.00  0.00    -0.323 N 
ATOM      5  C   UNL     1     -10.941  14.167  66.497  0.00  0.00    +0.060 A 
ATOM      6  C   UNL     1     -10.711  14.507  65.187  0.00  0.00    +0.020 A 
ATOM      7  C   UNL     1     -11.520  13.907  64.233  0.00  0.00    +0.044 A 
ATOM      8  C   UNL     1     -12.074  12.663  64.496  0.00  0.00    +0.196 A 
ATOM      9  O   UNL     1     -12.923  12.057  63.574  0.00  0.00    -0.287 OA
ATOM     10  C   UNL     1     -11.820  12.109  65.744  0.00  0.00    +0.043 A 
ATOM     11  C   UNL     1     -11.332  12.879  66.791  0.00  0.00    +0.016 A 
ENDROOT
BRANCH   3  12
ATOM     12  C   UNL     1     -11.704  14.682  69.914  0.00  0.00    +0.016 A 
ATOM     13  C   UNL     1     -10.854  15.147  70.888  0.00  0.00    +0.005 A 
ATOM     14  C   UNL     1     -11.356  15.638  72.085  0.00  0.00    +0.042 A 
ATOM     15  C   UNL     1     -12.709  15.499  72.365  0.00  0.00    +0.196 A 
ATOM     16  O   UNL     1     -13.182  15.370  73.673  0.00  0.00    -0.287 OA
ATOM     17  C   UNL     1     -13.588  15.309  71.311  0.00  0.00    +0.042 A 
ATOM     18  C   UNL     1     -13.058  14.923  70.111  0.00  0.00    +0.005 A 
ENDBRANCH   3  12
BRANCH   4  19
ATOM     19  C   UNL     1      -9.603  15.780  67.888  0.00  0.00    +0.133 C 
BRANCH  19  20
ATOM     20  C   UNL     1      -9.977  17.187  67.638  0.00  0.00    +0.001 A 
ATOM     21  C   UNL     1     -10.000  18.034  68.740  0.00  0.00    +0.001 A 
ATOM     22  C   UNL     1      -9.649  19.376  68.641  0.00  0.00    +0.037 A 
ATOM     23  C   UNL     1      -9.250  19.899  67.417  0.00  0.00    +0.139 A 
ATOM     24  C   UNL     1      -9.651  19.171  66.305  0.00  0.00    +0.037 A 
ATOM     25  C   UNL     1      -9.885  17.806  66.410  0.00  0.00    +0.001 A 
BRANCH  23  26
ATOM     26  O   UNL     1      -8.313  20.930  67.322  0.00  0.00    -0.474 OA
BRANCH  26  27
ATOM     27  C   UNL     1      -7.023  20.761  66.792  0.00  0.00    +0.223 C 
BRANCH  27  28
ATOM     28  C   UNL     1      -5.935  21.101  67.801  0.00  0.00    +0.120 C 
BRANCH  28  29
ATOM     29  N   UNL     1      -4.974  20.038  67.943  0.00  0.00    -0.270 NA
ATOM     30  C   UNL     1      -3.850  20.379  68.772  0.00  0.00    +0.072 C 
ATOM     31  C   UNL     1      -3.797  19.533  70.036  0.00  0.00    +0.017 C 
ATOM     32  C   UNL     1      -4.779  20.177  71.008  0.00  0.00    +0.001 C 
ATOM     33  C   UNL     1      -6.152  20.032  70.361  0.00  0.00    +0.001 C 
ATOM     34  C   UNL     1      -6.153  18.707  69.648  0.00  0.00    +0.017 C 
ATOM     35  C   UNL     1      -5.561  18.766  68.270  0.00  0.00    +0.072 C 
ENDBRANCH  28  29
ENDBRANCH  27  28
ENDBRANCH  26  27
ENDBRANCH  23  26
ENDBRANCH  19  20
ENDBRANCH   4  19
TORSDOF 7
ENDMDL
MODEL 7
REMARK VINA RESULT:      -7.3      2.408      6.793
REMARK  Name = 
REMARK  7 active torsions:
REMARK  status: ('A' for Active; 'I' for Inactive)
REMARK    1  A    between atoms: N_10  and  C_11
REMARK    2  A    between atoms: C_11  and  C_12
REMARK    3  A    between atoms: C_15  and  O_16
REMARK    4  A    between atoms: O_16  and  C_17
REMARK    5  A    between atoms: C_17  and  C_18
REMARK    6  A    between atoms: C_18  and  N_19
REMARK    7  A    between atoms: C_28  and  C_29
REMARK                            x       y       z     vdW  Elec       q    Type
REMARK                         _______ _______ _______ _____ _____    ______ ____
ROOT
ATOM      1  C   UNL     1     -13.159  10.681  71.579  0.00  0.00    +0.033 C 
ATOM      2  C   UNL     1     -12.567  11.873  70.895  0.00  0.00    -0.005 A 
ATOM      3  C   UNL     1     -11.868  11.916  69.702  0.00  0.00    +0.056 A 
ATOM      4  N   UNL     1     -11.694  13.213  69.350  0.00  0.00    -0.323 N 
ATOM      5  C   UNL     1     -12.109  13.956  70.404  0.00  0.00    +0.060 A 
ATOM      6  C   UNL     1     -12.032  15.308  70.625  0.00  0.00    +0.020 A 
ATOM      7  C   UNL     1     -12.003  15.727  71.948  0.00  0.00    +0.044 A 
ATOM      8  C   UNL     1     -12.596  14.939  72.924  0.00  0.00    +0.196 A 
ATOM      9  O   UNL     1     -12.544  15.314  74.264  0.00  0.00    -0.287 OA
ATOM     10  C   UNL     1     -13.148  13.733  72.514  0.00  0.00    +0.043 A 
ATOM     11  C   UNL     1     -12.840  13.180  71.278  0.00  0.00    +0.016 A 
ENDROOT
BRANCH   3  12
ATOM     12  C   UNL     1     -11.128  10.796  69.149  0.00  0.00    +0.016 A 
ATOM     13  C   UNL     1     -11.320  10.303  67.882  0.00  0.00    +0.005 A 
ATOM     14  C   UNL     1     -10.585   9.216  67.429  0.00  0.00    +0.042 A 
ATOM     15  C   UNL     1      -9.779   8.521  68.321  0.00  0.00    +0.196 A 
ATOM     16  O   UNL     1      -9.522   7.155  68.172  0.00  0.00    -0.287 OA
ATOM     17  C   UNL     1      -9.365   9.160  69.478  0.00  0.00    +0.042 A 
ATOM     18  C   UNL     1     -10.040  10.289  69.850  0.00  0.00    +0.005 A 
ENDBRANCH   3  12
BRANCH   4  19
ATOM     19  C   UNL     1     -11.686  13.618  67.948  0.00  0.00    +0.133 C 
BRANCH  19  20
ATOM     20  C   UNL     1     -10.319  13.719  67.400  0.00  0.00    +0.001 A 
ATOM     21  C   UNL     1     -10.171  14.424  66.211  0.00  0.00    +0.001 A 
ATOM     22  C   UNL     1      -9.033  15.174  65.939  0.00  0.00    +0.037 A 
ATOM     23  C   UNL     1      -8.009  15.244  66.876  0.00  0.00    +0.139 A 
ATOM     24  C   UNL     1      -7.994  14.216  67.812  0.00  0.00    +0.037 A 
ATOM     25  C   UNL     1      -9.171  13.559  68.146  0.00  0.00    +0.001 A 
BRANCH  23  26
ATOM     26  O   UNL     1      -7.212  16.380  67.022  0.00  0.00    -0.474 OA
BRANCH  26  27
ATOM     27  C   UNL     1      -7.277  17.490  66.163  0.00  0.00    +0.223 C 
BRANCH  27  28
ATOM     28  C   UNL     1      -7.434  18.800  66.922  0.00  0.00    +0.120 C 
BRANCH  28  29
ATOM     29  N   UNL     1      -8.650  19.489  66.573  0.00  0.00    -0.270 NA
ATOM     30  C   UNL     1      -9.686  18.624  66.077  0.00  0.00    +0.072 C 
ATOM     31  C   UNL     1     -10.895  18.596  67.000  0.00  0.00    +0.017 C 
ATOM     32  C   UNL     1     -10.543  17.623  68.118  0.00  0.00    +0.001 C 
ATOM     33  C   UNL     1      -9.363  18.251  68.852  0.00  0.00    +0.001 C 
ATOM     34  C   UNL     1      -9.590  19.738  68.836  0.00  0.00    +0.017 C 
ATOM     35  C   UNL     1      -9.106  20.407  67.583  0.00  0.00    +0.072 C 
ENDBRANCH  28  29
ENDBRANCH  27  28
ENDBRANCH  26  27
ENDBRANCH  23  26
ENDBRANCH  19  20
ENDBRANCH   4  19
TORSDOF 7
ENDMDL
MODEL 8
REMARK VINA RESULT:      -7.3      2.569      5.293
REMARK  Name = 
REMARK  7 active torsions:
REMARK  status: ('A' for Active; 'I' for Inactive)
REMARK    1  A    between atoms: N_10  and  C_11
REMARK    2  A    between atoms: C_11  and  C_12
REMARK    3  A    between atoms: C_15  and  O_16
REMARK    4  A    between atoms: O_16  and  C_17
REMARK    5  A    between atoms: C_17  and  C_18
REMARK    6  A    between atoms: C_18  and  N_19
REMARK    7  A    between atoms: C_28  and  C_29
REMARK                            x       y       z     vdW  Elec       q    Type
REMARK                         _______ _______ _______ _____ _____    ______ ____
ROOT
ATOM      1  C   UNL     1     -11.912  11.655  69.083  0.00  0.00    +0.033 C 
ATOM      2  C   UNL     1     -11.708  12.959  68.378  0.00  0.00    -0.005 A 
ATOM      3  C   UNL     1     -11.461  14.202  68.932  0.00  0.00    +0.056 A 
ATOM      4  N   UNL     1     -11.137  15.063  67.937  0.00  0.00    -0.323 N 
ATOM      5  C   UNL     1     -11.369  14.408  66.773  0.00  0.00    +0.060 A 
ATOM      6  C   UNL     1     -11.329  14.856  65.477  0.00  0.00    +0.020 A 
ATOM      7  C   UNL     1     -12.122  14.185  64.557  0.00  0.00    +0.044 A 
ATOM      8  C   UNL     1     -12.441  12.853  64.777  0.00  0.00    +0.196 A 
ATOM      9  O   UNL     1     -13.269  12.168  63.892  0.00  0.00    -0.287 OA
ATOM     10  C   UNL     1     -11.978  12.278  65.953  0.00  0.00    +0.043 A 
ATOM     11  C   UNL     1     -11.517  13.057  67.006  0.00  0.00    +0.016 A 
ENDROOT
BRANCH   3  12
ATOM     12  C   UNL     1     -11.859  14.591  70.273  0.00  0.00    +0.016 A 
ATOM     13  C   UNL     1     -11.543  15.798  70.846  0.00  0.00    +0.005 A 
ATOM     14  C   UNL     1     -11.946  16.092  72.141  0.00  0.00    +0.042 A 
ATOM     15  C   UNL     1     -12.520  15.094  72.918  0.00  0.00    +0.196 A 
ATOM     16  O   UNL     1     -12.385  15.072  74.308  0.00  0.00    -0.287 OA
ATOM     17  C   UNL     1     -13.091  14.004  72.281  0.00  0.00    +0.042 A 
ATOM     18  C   UNL     1     -12.758  13.794  70.972  0.00  0.00    +0.005 A 
ENDBRANCH   3  12
BRANCH   4  19
ATOM     19  C   UNL     1     -10.175  16.138  68.154  0.00  0.00    +0.133 C 
BRANCH  19  20
ATOM     20  C   UNL     1      -8.799  15.634  68.328  0.00  0.00    +0.001 A 
ATOM     21  C   UNL     1      -8.068  15.396  67.170  0.00  0.00    +0.001 A 
ATOM     22  C   UNL     1      -6.694  15.598  67.114  0.00  0.00    +0.037 A 
ATOM     23  C   UNL     1      -6.016  16.062  68.236  0.00  0.00    +0.139 A 
ATOM     24  C   UNL     1      -6.673  15.868  69.444  0.00  0.00    +0.037 A 
ATOM     25  C   UNL     1      -8.058  15.783  69.481  0.00  0.00    +0.001 A 
BRANCH  23  26
ATOM     26  O   UNL     1      -4.888  16.878  68.135  0.00  0.00    -0.474 OA
BRANCH  26  27
ATOM     27  C   UNL     1      -4.457  17.464  66.934  0.00  0.00    +0.223 C 
BRANCH  27  28
ATOM     28  C   UNL     1      -4.442  18.984  67.005  0.00  0.00    +0.120 C 
BRANCH  28  29
ATOM     29  N   UNL     1      -5.285  19.585  66.004  0.00  0.00    -0.270 NA
ATOM     30  C   UNL     1      -6.419  18.779  65.641  0.00  0.00    +0.072 C 
ATOM     31  C   UNL     1      -7.734  19.444  66.020  0.00  0.00    +0.017 C 
ATOM     32  C   UNL     1      -7.934  19.153  67.503  0.00  0.00    +0.001 C 
ATOM     33  C   UNL     1      -6.789  19.860  68.218  0.00  0.00    +0.001 C 
ATOM     34  C   UNL     1      -6.530  21.134  67.460  0.00  0.00    +0.017 C 
ATOM     35  C   UNL     1      -5.622  20.957  66.279  0.00  0.00    +0.072 C 
ENDBRANCH  28  29
ENDBRANCH  27  28
ENDBRANCH  26  27
ENDBRANCH  23  26
ENDBRANCH  19  20
ENDBRANCH   4  19
TORSDOF 7
ENDMDL
MODEL 9
REMARK VINA RESULT:      -7.2      2.212      7.208
REMARK  Name = 
REMARK  7 active torsions:
REMARK  status: ('A' for Active; 'I' for Inactive)
REMARK    1  A    between atoms: N_10  and  C_11
REMARK    2  A    between atoms: C_11  and  C_12
REMARK    3  A    between atoms: C_15  and  O_16
REMARK    4  A    between atoms: O_16  and  C_17
REMARK    5  A    between atoms: C_17  and  C_18
REMARK    6  A    between atoms: C_18  and  N_19
REMARK    7  A    between atoms: C_28  and  C_29
REMARK                            x       y       z     vdW  Elec       q    Type
REMARK                         _______ _______ _______ _____ _____    ______ ____
ROOT
ATOM      1  C   UNL     1      -7.791  16.674  66.896  0.00  0.00    +0.033 C 
ATOM      2  C   UNL     1      -7.602  15.298  67.452  0.00  0.00    -0.005 A 
ATOM      3  C   UNL     1      -8.307  14.146  67.146  0.00  0.00    +0.056 A 
ATOM      4  N   UNL     1      -7.679  13.091  67.720  0.00  0.00    -0.323 N 
ATOM      5  C   UNL     1      -6.718  13.607  68.523  0.00  0.00    +0.060 A 
ATOM      6  C   UNL     1      -5.885  12.991  69.423  0.00  0.00    +0.020 A 
ATOM      7  C   UNL     1      -5.419  13.763  70.477  0.00  0.00    +0.044 A 
ATOM      8  C   UNL     1      -5.302  15.135  70.315  0.00  0.00    +0.196 A 
ATOM      9  O   UNL     1      -4.878  15.940  71.370  0.00  0.00    -0.287 OA
ATOM     10  C   UNL     1      -5.714  15.666  69.100  0.00  0.00    +0.043 A 
ATOM     11  C   UNL     1      -6.506  14.936  68.224  0.00  0.00    +0.016 A 
ENDROOT
BRANCH   3  12
ATOM     12  C   UNL     1      -9.667  14.133  66.640  0.00  0.00    +0.016 A 
ATOM     13  C   UNL     1     -10.781  14.188  67.440  0.00  0.00    +0.005 A 
ATOM     14  C   UNL     1     -12.052  14.154  66.883  0.00  0.00    +0.042 A 
ATOM     15  C   UNL     1     -12.194  13.889  65.527  0.00  0.00    +0.196 A 
ATOM     16  O   UNL     1     -13.322  13.242  65.016  0.00  0.00    -0.287 OA
ATOM     17  C   UNL     1     -11.114  14.118  64.690  0.00  0.00    +0.042 A 
ATOM     18  C   UNL     1      -9.884  14.251  65.272  0.00  0.00    +0.005 A 
ENDBRANCH   3  12
BRANCH   4  19
ATOM     19  C   UNL     1      -7.667  11.782  67.076  0.00  0.00    +0.133 C 
BRANCH  19  20
ATOM     20  C   UNL     1      -8.789  10.929  67.515  0.00  0.00    +0.001 A 
ATOM     21  C   UNL     1      -8.898  10.693  68.880  0.00  0.00    +0.001 A 
ATOM     22  C   UNL     1     -10.132  10.551  69.504  0.00  0.00    +0.037 A 
ATOM     23  C   UNL     1     -11.301  10.658  68.760  0.00  0.00    +0.139 A 
ATOM     24  C   UNL     1     -11.152  10.457  67.394  0.00  0.00    +0.037 A 
ATOM     25  C   UNL     1      -9.935  10.716  66.778  0.00  0.00    +0.001 A 
BRANCH  23  26
ATOM     26  O   UNL     1     -12.480  11.173  69.302  0.00  0.00    -0.474 OA
BRANCH  26  27
ATOM     27  C   UNL     1     -12.569  11.719  70.593  0.00  0.00    +0.223 C 
BRANCH  27  28
ATOM     28  C   UNL     1     -12.083  13.161  70.645  0.00  0.00    +0.120 C 
BRANCH  28  29
ATOM     29  N   UNL     1     -13.173  14.102  70.674  0.00  0.00    -0.270 NA
ATOM     30  C   UNL     1     -13.991  14.008  71.853  0.00  0.00    +0.072 C 
ATOM     31  C   UNL     1     -13.915  15.270  72.700  0.00  0.00    +0.017 C 
ATOM     32  C   UNL     1     -12.632  15.147  73.514  0.00  0.00    +0.001 C 
ATOM     33  C   UNL     1     -11.498  15.155  72.496  0.00  0.00    +0.001 C 
ATOM     34  C   UNL     1     -11.915  16.093  71.396  0.00  0.00    +0.017 C 
ATOM     35  C   UNL     1     -12.782  15.449  70.354  0.00  0.00    +0.072 C 
ENDBRANCH  28  29
ENDBRANCH  27  28
ENDBRANCH  26  27
ENDBRANCH  23  26
ENDBRANCH  19  20
ENDBRANCH   4  19
TORSDOF 7
ENDMDL
