MODEL 1
REMARK VINA RESULT:      -6.7      0.000      0.000
REMARK  Name = 
REMARK  7 active torsions:
REMARK  status: ('A' for Active; 'I' for Inactive)
REMARK    1  A    between atoms: C_2  and  C_3
REMARK    2  A    between atoms: C_2  and  N_12
REMARK    3  A    between atoms: C_3  and  C_4
REMARK    4  A    between atoms: C_4  and  C_5
REMARK    5  A    between atoms: N_12  and  C_13
REMARK    6  A    between atoms: C_13  and  C_14
REMARK    7  A    between atoms: C_14  and  C_15
REMARK                            x       y       z     vdW  Elec       q    Type
REMARK                         _______ _______ _______ _____ _____    ______ ____
ROOT
ATOM      1  C   UNL     1     -13.872  15.040  72.355  0.00  0.00    +0.019 C 
ATOM      2  C   UNL     1     -13.121  14.472  70.974  0.00  0.00    +0.073 C 
ENDROOT
BRANCH   2   3
ATOM      3  N   UNL     1     -11.691  14.966  71.501  0.00  0.00    -0.219 NA
BRANCH   3   4
ATOM      4  C   UNL     1     -11.359  16.012  70.533  0.00  0.00    +0.093 C 
BRANCH   4   5
ATOM      5  C   UNL     1     -12.032  15.614  69.254  0.00  0.00    +0.045 C 
BRANCH   5   6
ATOM      6  C   UNL     1     -11.154  15.643  68.075  0.00  0.00    -0.017 A 
ATOM      7  C   UNL     1     -10.407  16.751  67.694  0.00  0.00    +0.041 A 
ATOM      8  C   UNL     1     -10.150  16.976  66.347  0.00  0.00    +0.234 A 
ATOM      9  O   UNL     1      -9.540  18.157  65.939  0.00  0.00    -0.283 OA
ATOM     10  C   UNL     1     -10.743  16.211  65.349  0.00  0.00    +0.234 A 
ATOM     11  O   UNL     1     -11.263  16.790  64.187  0.00  0.00    -0.283 OA
ATOM     12  C   UNL     1     -11.142  14.941  65.750  0.00  0.00    +0.045 A 
ATOM     13  C   UNL     1     -11.291  14.660  67.103  0.00  0.00    -0.001 A 
ENDBRANCH   5   6
ENDBRANCH   4   5
ENDBRANCH   3   4
ENDBRANCH   2   3
BRANCH   2  14
ATOM     14  C   UNL     1     -12.901  12.965  71.666  0.00  0.00    +0.022 C 
BRANCH  14  15
ATOM     15  C   UNL     1     -12.337  12.227  70.478  0.00  0.00    +0.028 C 
BRANCH  15  16
ATOM     16  C   UNL     1     -12.141  10.818  70.906  0.00  0.00    -0.022 A 
ATOM     17  C   UNL     1     -11.035  10.105  70.495  0.00  0.00    -0.001 A 
ATOM     18  C   UNL     1     -10.714   8.954  71.190  0.00  0.00    +0.042 A 
ATOM     19  C   UNL     1     -11.577   8.508  72.184  0.00  0.00    +0.196 A 
ATOM     20  O   UNL     1     -11.196   7.514  73.070  0.00  0.00    -0.287 OA
ATOM     21  C   UNL     1     -12.898   8.940  72.183  0.00  0.00    +0.042 A 
ATOM     22  C   UNL     1     -13.162  10.155  71.565  0.00  0.00    -0.001 A 
ENDBRANCH  15  16
ENDBRANCH  14  15
ENDBRANCH   2  14
TORSDOF 7
ENDMDL
MODEL 2
REMARK VINA RESULT:      -6.7      3.465      5.464
REMARK  Name = 
REMARK  7 active torsions:
REMARK  status: ('A' for Active; 'I' for Inactive)
REMARK    1  A    between atoms: C_2  and  C_3
REMARK    2  A    between atoms: C_2  and  N_12
REMARK    3  A    between atoms: C_3  and  C_4
REMARK    4  A    between atoms: C_4  and  C_5
REMARK    5  A    between atoms: N_12  and  C_13
REMARK    6  A    between atoms: C_13  and  C_14
REMARK    7  A    between atoms: C_14  and  C_15
REMARK                            x       y       z     vdW  Elec       q    Type
REMARK                         _______ _______ _______ _____ _____    ______ ____
ROOT
ATOM      1  C   UNL     1     -12.349  12.566  70.541  0.00  0.00    +0.019 C 
ATOM      2  C   UNL     1     -12.141  13.695  69.325  0.00  0.00    +0.073 C 
ENDROOT
BRANCH   2   3
ATOM      3  N   UNL     1     -11.206  14.593  70.264  0.00  0.00    -0.219 NA
BRANCH   3   4
ATOM      4  C   UNL     1     -11.747  15.933  70.035  0.00  0.00    +0.093 C 
BRANCH   4   5
ATOM      5  C   UNL     1     -11.471  16.243  68.594  0.00  0.00    +0.045 C 
BRANCH   5   6
ATOM      6  C   UNL     1     -10.270  17.061  68.371  0.00  0.00    -0.017 A 
ATOM      7  C   UNL     1     -10.272  18.267  67.681  0.00  0.00    +0.041 A 
ATOM      8  C   UNL     1      -9.150  18.646  66.955  0.00  0.00    +0.234 A 
ATOM      9  O   UNL     1      -9.192  19.768  66.136  0.00  0.00    -0.283 OA
ATOM     10  C   UNL     1      -8.072  17.787  66.770  0.00  0.00    +0.234 A 
ATOM     11  O   UNL     1      -7.438  17.656  65.531  0.00  0.00    -0.283 OA
ATOM     12  C   UNL     1      -7.937  16.805  67.744  0.00  0.00    +0.045 A 
ATOM     13  C   UNL     1      -9.017  16.493  68.562  0.00  0.00    -0.001 A 
ENDBRANCH   5   6
ENDBRANCH   4   5
ENDBRANCH   3   4
ENDBRANCH   2   3
BRANCH   2  14
ATOM     14  C   UNL     1     -10.817  12.866  68.729  0.00  0.00    +0.022 C 
BRANCH  14  15
ATOM     15  C   UNL     1     -11.448  12.231  67.515  0.00  0.00    +0.028 C 
BRANCH  15  16
ATOM     16  C   UNL     1     -11.336  13.220  66.411  0.00  0.00    -0.022 A 
ATOM     17  C   UNL     1     -12.376  13.406  65.526  0.00  0.00    -0.001 A 
ATOM     18  C   UNL     1     -12.375  14.558  64.761  0.00  0.00    +0.042 A 
ATOM     19  C   UNL     1     -11.278  15.409  64.832  0.00  0.00    +0.196 A 
ATOM     20  O   UNL     1     -11.323  16.681  64.287  0.00  0.00    -0.287 OA
ATOM     21  C   UNL     1     -10.066  14.918  65.302  0.00  0.00    +0.042 A 
ATOM     22  C   UNL     1     -10.117  13.822  66.154  0.00  0.00    -0.001 A 
ENDBRANCH  15  16
ENDBRANCH  14  15
ENDBRANCH   2  14
TORSDOF 7
ENDMDL
MODEL 3
REMARK VINA RESULT:      -6.7      3.494      7.078
REMARK  Name = 
REMARK  7 active torsions:
REMARK  status: ('A' for Active; 'I' for Inactive)
REMARK    1  A    between atoms: C_2  and  C_3
REMARK    2  A    between atoms: C_2  and  N_12
REMARK    3  A    between atoms: C_3  and  C_4
REMARK    4  A    between atoms: C_4  and  C_5
REMARK    5  A    between atoms: N_12  and  C_13
REMARK    6  A    between atoms: C_13  and  C_14
REMARK    7  A    between atoms: C_14  and  C_15
REMARK                            x       y       z     vdW  Elec       q    Type
REMARK                         _______ _______ _______ _____ _____    ______ ____
ROOT
ATOM      1  C   UNL     1      -9.666  10.011  69.082  0.00  0.00    +0.019 C 
ATOM      2  C   UNL     1     -10.489   9.570  67.695  0.00  0.00    +0.073 C 
ENDROOT
BRANCH   2   3
ATOM      3  N   UNL     1     -11.591  10.705  67.941  0.00  0.00    -0.219 NA
BRANCH   3   4
ATOM      4  C   UNL     1     -10.801  11.759  68.579  0.00  0.00    +0.093 C 
BRANCH   4   5
ATOM      5  C   UNL     1     -11.654  12.992  68.535  0.00  0.00    +0.045 C 
BRANCH   5   6
ATOM      6  C   UNL     1     -11.895  13.605  69.849  0.00  0.00    -0.017 A 
ATOM      7  C   UNL     1     -12.608  12.991  70.871  0.00  0.00    +0.041 A 
ATOM      8  C   UNL     1     -13.344  13.766  71.759  0.00  0.00    +0.234 A 
ATOM      9  O   UNL     1     -14.184  13.161  72.687  0.00  0.00    -0.283 OA
ATOM     10  C   UNL     1     -13.516  15.133  71.571  0.00  0.00    +0.234 A 
ATOM     11  O   UNL     1     -14.754  15.754  71.762  0.00  0.00    -0.283 OA
ATOM     12  C   UNL     1     -12.523  15.745  70.814  0.00  0.00    +0.045 A 
ATOM     13  C   UNL     1     -11.696  14.972  70.007  0.00  0.00    -0.001 A 
ENDBRANCH   5   6
ENDBRANCH   4   5
ENDBRANCH   3   4
ENDBRANCH   2   3
BRANCH   2  14
ATOM     14  C   UNL     1      -9.564  10.610  66.768  0.00  0.00    +0.022 C 
BRANCH  14  15
ATOM     15  C   UNL     1     -10.089  10.255  65.400  0.00  0.00    +0.028 C 
BRANCH  15  16
ATOM     16  C   UNL     1     -10.578  11.520  64.790  0.00  0.00    -0.022 A 
ATOM     17  C   UNL     1     -11.393  11.494  63.679  0.00  0.00    -0.001 A 
ATOM     18  C   UNL     1     -12.100  12.642  63.372  0.00  0.00    +0.042 A 
ATOM     19  C   UNL     1     -11.871  13.792  64.119  0.00  0.00    +0.196 A 
ATOM     20  O   UNL     1     -12.712  14.888  64.023  0.00  0.00    -0.287 OA
ATOM     21  C   UNL     1     -10.689  13.910  64.840  0.00  0.00    +0.042 A 
ATOM     22  C   UNL     1     -10.063  12.730  65.221  0.00  0.00    -0.001 A 
ENDBRANCH  15  16
ENDBRANCH  14  15
ENDBRANCH   2  14
TORSDOF 7
ENDMDL
MODEL 4
REMARK VINA RESULT:      -6.7      1.513      2.192
REMARK  Name = 
REMARK  7 active torsions:
REMARK  status: ('A' for Active; 'I' for Inactive)
REMARK    1  A    between atoms: C_2  and  C_3
REMARK    2  A    between atoms: C_2  and  N_12
REMARK    3  A    between atoms: C_3  and  C_4
REMARK    4  A    between atoms: C_4  and  C_5
REMARK    5  A    between atoms: N_12  and  C_13
REMARK    6  A    between atoms: C_13  and  C_14
REMARK    7  A    between atoms: C_14  and  C_15
REMARK                            x       y       z     vdW  Elec       q    Type
REMARK                         _______ _______ _______ _____ _____    ______ ____
ROOT
ATOM      1  C   UNL     1     -12.537  15.579  70.799  0.00  0.00    +0.019 C 
ATOM      2  C   UNL     1     -11.907  15.684  69.254  0.00  0.00    +0.073 C 
ENDROOT
BRANCH   2   3
ATOM      3  N   UNL     1     -10.423  15.437  69.801  0.00  0.00    -0.219 NA
BRANCH   3   4
ATOM      4  C   UNL     1      -9.619  16.208  68.851  0.00  0.00    +0.093 C 
BRANCH   4   5
ATOM      5  C   UNL     1      -8.825  15.199  68.076  0.00  0.00    +0.045 C 
BRANCH   5   6
ATOM      6  C   UNL     1      -9.342  14.932  66.726  0.00  0.00    -0.017 A 
ATOM      7  C   UNL     1      -9.801  15.919  65.863  0.00  0.00    +0.041 A 
ATOM      8  C   UNL     1     -10.818  15.626  64.963  0.00  0.00    +0.234 A 
ATOM      9  O   UNL     1     -11.394  16.639  64.204  0.00  0.00    -0.283 OA
ATOM     10  C   UNL     1     -11.501  14.416  64.995  0.00  0.00    +0.234 A 
ATOM     11  O   UNL     1     -12.890  14.348  64.851  0.00  0.00    -0.283 OA
ATOM     12  C   UNL     1     -10.794  13.365  65.569  0.00  0.00    +0.045 A 
ATOM     13  C   UNL     1      -9.698  13.633  66.381  0.00  0.00    -0.001 A 
ENDBRANCH   5   6
ENDBRANCH   4   5
ENDBRANCH   3   4
ENDBRANCH   2   3
BRANCH   2  14
ATOM     14  C   UNL     1     -12.134  14.046  69.008  0.00  0.00    +0.022 C 
BRANCH  14  15
ATOM     15  C   UNL     1     -12.141  13.579  70.442  0.00  0.00    +0.028 C 
BRANCH  15  16
ATOM     16  C   UNL     1     -12.063  12.095  70.406  0.00  0.00    -0.022 A 
ATOM     17  C   UNL     1     -11.341  11.453  69.423  0.00  0.00    -0.001 A 
ATOM     18  C   UNL     1     -11.002  10.129  69.632  0.00  0.00    +0.042 A 
ATOM     19  C   UNL     1     -11.498   9.478  70.756  0.00  0.00    +0.196 A 
ATOM     20  O   UNL     1     -11.004   8.245  71.145  0.00  0.00    -0.287 OA
ATOM     21  C   UNL     1     -12.620   9.989  71.396  0.00  0.00    +0.042 A 
ATOM     22  C   UNL     1     -12.868  11.347  71.248  0.00  0.00    -0.001 A 
ENDBRANCH  15  16
ENDBRANCH  14  15
ENDBRANCH   2  14
TORSDOF 7
ENDMDL
MODEL 5
REMARK VINA RESULT:      -6.6      3.323      6.625
REMARK  Name = 
REMARK  7 active torsions:
REMARK  status: ('A' for Active; 'I' for Inactive)
REMARK    1  A    between atoms: C_2  and  C_3
REMARK    2  A    between atoms: C_2  and  N_12
REMARK    3  A    between atoms: C_3  and  C_4
REMARK    4  A    between atoms: C_4  and  C_5
REMARK    5  A    between atoms: N_12  and  C_13
REMARK    6  A    between atoms: C_13  and  C_14
REMARK    7  A    between atoms: C_14  and  C_15
REMARK                            x       y       z     vdW  Elec       q    Type
REMARK                         _______ _______ _______ _____ _____    ______ ____
ROOT
ATOM      1  C   UNL     1      -9.555  18.810  66.438  0.00  0.00    +0.019 C 
ATOM      2  C   UNL     1      -9.209  17.347  67.169  0.00  0.00    +0.073 C 
ENDROOT
BRANCH   2   3
ATOM      3  N   UNL     1     -10.634  17.329  67.898  0.00  0.00    -0.219 NA
BRANCH   3   4
ATOM      4  C   UNL     1     -10.253  17.179  69.303  0.00  0.00    +0.093 C 
BRANCH   4   5
ATOM      5  C   UNL     1     -10.215  15.703  69.560  0.00  0.00    +0.045 C 
BRANCH   5   6
ATOM      6  C   UNL     1     -11.529  15.104  69.836  0.00  0.00    -0.017 A 
ATOM      7  C   UNL     1     -12.576  15.782  70.446  0.00  0.00    +0.041 A 
ATOM      8  C   UNL     1     -13.476  15.085  71.243  0.00  0.00    +0.234 A 
ATOM      9  O   UNL     1     -14.433  15.770  71.983  0.00  0.00    -0.283 OA
ATOM     10  C   UNL     1     -13.280  13.749  71.574  0.00  0.00    +0.234 A 
ATOM     11  O   UNL     1     -13.498  13.271  72.870  0.00  0.00    -0.283 OA
ATOM     12  C   UNL     1     -12.490  13.038  70.679  0.00  0.00    +0.045 A 
ATOM     13  C   UNL     1     -11.668  13.722  69.790  0.00  0.00    -0.001 A 
ENDBRANCH   5   6
ENDBRANCH   4   5
ENDBRANCH   3   4
ENDBRANCH   2   3
BRANCH   2  14
ATOM     14  C   UNL     1      -9.821  16.504  65.860  0.00  0.00    +0.022 C 
BRANCH  14  15
ATOM     15  C   UNL     1      -9.306  15.126  66.191  0.00  0.00    +0.028 C 
BRANCH  15  16
ATOM     16  C   UNL     1     -10.406  14.175  65.881  0.00  0.00    -0.022 A 
ATOM     17  C   UNL     1     -11.719  14.514  66.131  0.00  0.00    -0.001 A 
ATOM     18  C   UNL     1     -12.706  13.773  65.509  0.00  0.00    +0.042 A 
ATOM     19  C   UNL     1     -12.340  12.660  64.762  0.00  0.00    +0.196 A 
ATOM     20  O   UNL     1     -13.245  12.029  63.926  0.00  0.00    -0.287 OA
ATOM     21  C   UNL     1     -11.103  12.068  64.986  0.00  0.00    +0.042 A 
ATOM     22  C   UNL     1     -10.104  12.875  65.516  0.00  0.00    -0.001 A 
ENDBRANCH  15  16
ENDBRANCH  14  15
ENDBRANCH   2  14
TORSDOF 7
ENDMDL
MODEL 6
REMARK VINA RESULT:      -6.6      2.841      6.866
REMARK  Name = 
REMARK  7 active torsions:
REMARK  status: ('A' for Active; 'I' for Inactive)
REMARK    1  A    between atoms: C_2  and  C_3
REMARK    2  A    between atoms: C_2  and  N_12
REMARK    3  A    between atoms: C_3  and  C_4
REMARK    4  A    between atoms: C_4  and  C_5
REMARK    5  A    between atoms: N_12  and  C_13
REMARK    6  A    between atoms: C_13  and  C_14
REMARK    7  A    between atoms: C_14  and  C_15
REMARK                            x       y       z     vdW  Elec       q    Type
REMARK                         _______ _______ _______ _____ _____    ______ ____
ROOT
ATOM      1  C   UNL     1      -9.028  10.940  68.293  0.00  0.00    +0.019 C 
ATOM      2  C   UNL     1     -10.432  10.042  68.169  0.00  0.00    +0.073 C 
ENDROOT
BRANCH   2   3
ATOM      3  N   UNL     1     -10.792  10.322  69.704  0.00  0.00    -0.219 NA
BRANCH   3   4
ATOM      4  C   UNL     1     -12.012  11.122  69.586  0.00  0.00    +0.093 C 
BRANCH   4   5
ATOM      5  C   UNL     1     -12.332  11.585  70.976  0.00  0.00    +0.045 C 
BRANCH   5   6
ATOM      6  C   UNL     1     -12.860  12.956  71.049  0.00  0.00    -0.017 A 
ATOM      7  C   UNL     1     -12.473  13.981  70.195  0.00  0.00    +0.041 A 
ATOM      8  C   UNL     1     -12.456  15.291  70.657  0.00  0.00    +0.234 A 
ATOM      9  O   UNL     1     -11.925  16.305  69.868  0.00  0.00    -0.283 OA
ATOM     10  C   UNL     1     -12.670  15.600  71.995  0.00  0.00    +0.234 A 
ATOM     11  O   UNL     1     -11.889  16.544  72.668  0.00  0.00    -0.283 OA
ATOM     12  C   UNL     1     -13.404  14.652  72.700  0.00  0.00    +0.045 A 
ATOM     13  C   UNL     1     -13.532  13.364  72.195  0.00  0.00    -0.001 A 
ENDBRANCH   5   6
ENDBRANCH   4   5
ENDBRANCH   3   4
ENDBRANCH   2   3
BRANCH   2  14
ATOM     14  C   UNL     1     -11.295  11.387  67.678  0.00  0.00    +0.022 C 
BRANCH  14  15
ATOM     15  C   UNL     1     -10.538  11.720  66.417  0.00  0.00    +0.028 C 
BRANCH  15  16
ATOM     16  C   UNL     1     -10.980  13.077  66.001  0.00  0.00    -0.022 A 
ATOM     17  C   UNL     1     -10.355  14.201  66.497  0.00  0.00    -0.001 A 
ATOM     18  C   UNL     1     -10.548  15.395  65.826  0.00  0.00    +0.042 A 
ATOM     19  C   UNL     1     -11.446  15.431  64.765  0.00  0.00    +0.196 A 
ATOM     20  O   UNL     1     -11.499  16.518  63.910  0.00  0.00    -0.287 OA
ATOM     21  C   UNL     1     -12.418  14.444  64.664  0.00  0.00    +0.042 A 
ATOM     22  C   UNL     1     -12.141  13.222  65.263  0.00  0.00    -0.001 A 
ENDBRANCH  15  16
ENDBRANCH  14  15
ENDBRANCH   2  14
TORSDOF 7
ENDMDL
MODEL 7
REMARK VINA RESULT:      -6.5      3.712      7.504
REMARK  Name = 
REMARK  7 active torsions:
REMARK  status: ('A' for Active; 'I' for Inactive)
REMARK    1  A    between atoms: C_2  and  C_3
REMARK    2  A    between atoms: C_2  and  N_12
REMARK    3  A    between atoms: C_3  and  C_4
REMARK    4  A    between atoms: C_4  and  C_5
REMARK    5  A    between atoms: N_12  and  C_13
REMARK    6  A    between atoms: C_13  and  C_14
REMARK    7  A    between atoms: C_14  and  C_15
REMARK                            x       y       z     vdW  Elec       q    Type
REMARK                         _______ _______ _______ _____ _____    ______ ____
ROOT
ATOM      1  C   UNL     1     -10.029  13.290  67.672  0.00  0.00    +0.019 C 
ATOM      2  C   UNL     1     -11.665  13.138  67.360  0.00  0.00    +0.073 C 
ENDROOT
BRANCH   2   3
ATOM      3  N   UNL     1     -11.567  11.541  67.414  0.00  0.00    -0.219 NA
BRANCH   3   4
ATOM      4  C   UNL     1     -11.070  11.316  68.772  0.00  0.00    +0.093 C 
BRANCH   4   5
ATOM      5  C   UNL     1     -11.126   9.833  68.987  0.00  0.00    +0.045 C 
BRANCH   5   6
ATOM      6  C   UNL     1     -11.560   9.433  70.334  0.00  0.00    -0.017 A 
ATOM      7  C   UNL     1     -11.666   8.113  70.753  0.00  0.00    +0.041 A 
ATOM      8  C   UNL     1     -12.630   7.765  71.690  0.00  0.00    +0.234 A 
ATOM      9  O   UNL     1     -12.853   6.429  72.003  0.00  0.00    -0.283 OA
ATOM     10  C   UNL     1     -13.598   8.668  72.117  0.00  0.00    +0.234 A 
ATOM     11  O   UNL     1     -14.938   8.297  72.267  0.00  0.00    -0.283 OA
ATOM     12  C   UNL     1     -13.241  10.006  71.991  0.00  0.00    +0.045 A 
ATOM     13  C   UNL     1     -12.198  10.364  71.145  0.00  0.00    -0.001 A 
ENDBRANCH   5   6
ENDBRANCH   4   5
ENDBRANCH   3   4
ENDBRANCH   2   3
BRANCH   2  14
ATOM     14  C   UNL     1     -12.023  13.213  68.992  0.00  0.00    +0.022 C 
BRANCH  14  15
ATOM     15  C   UNL     1     -11.732  14.672  69.242  0.00  0.00    +0.028 C 
BRANCH  15  16
ATOM     16  C   UNL     1     -12.187  14.965  70.626  0.00  0.00    -0.022 A 
ATOM     17  C   UNL     1     -13.111  14.153  71.248  0.00  0.00    -0.001 A 
ATOM     18  C   UNL     1     -13.230  14.246  72.623  0.00  0.00    +0.042 A 
ATOM     19  C   UNL     1     -12.506  15.225  73.294  0.00  0.00    +0.196 A 
ATOM     20  O   UNL     1     -12.392  15.212  74.674  0.00  0.00    -0.287 OA
ATOM     21  C   UNL     1     -12.035  16.326  72.589  0.00  0.00    +0.042 A 
ATOM     22  C   UNL     1     -11.828  16.160  71.225  0.00  0.00    -0.001 A 
ENDBRANCH  15  16
ENDBRANCH  14  15
ENDBRANCH   2  14
TORSDOF 7
ENDMDL
MODEL 8
REMARK VINA RESULT:      -6.4      3.339      5.315
REMARK  Name = 
REMARK  7 active torsions:
REMARK  status: ('A' for Active; 'I' for Inactive)
REMARK    1  A    between atoms: C_2  and  C_3
REMARK    2  A    between atoms: C_2  and  N_12
REMARK    3  A    between atoms: C_3  and  C_4
REMARK    4  A    between atoms: C_4  and  C_5
REMARK    5  A    between atoms: N_12  and  C_13
REMARK    6  A    between atoms: C_13  and  C_14
REMARK    7  A    between atoms: C_14  and  C_15
REMARK                            x       y       z     vdW  Elec       q    Type
REMARK                         _______ _______ _______ _____ _____    ______ ____
ROOT
ATOM      1  C   UNL     1     -11.713   9.100  71.037  0.00  0.00    +0.019 C 
ATOM      2  C   UNL     1     -10.674  10.077  70.165  0.00  0.00    +0.073 C 
ENDROOT
BRANCH   2   3
ATOM      3  N   UNL     1     -10.855   9.169  68.858  0.00  0.00    -0.219 NA
BRANCH   3   4
ATOM      4  C   UNL     1      -9.824   9.709  67.971  0.00  0.00    +0.093 C 
BRANCH   4   5
ATOM      5  C   UNL     1     -10.410   9.669  66.591  0.00  0.00    +0.045 C 
BRANCH   5   6
ATOM      6  C   UNL     1     -10.460  10.975  65.918  0.00  0.00    -0.017 A 
ATOM      7  C   UNL     1     -11.246  12.037  66.347  0.00  0.00    +0.041 A 
ATOM      8  C   UNL     1     -11.761  12.930  65.416  0.00  0.00    +0.234 A 
ATOM      9  O   UNL     1     -12.673  13.903  65.810  0.00  0.00    -0.283 OA
ATOM     10  C   UNL     1     -11.642  12.715  64.048  0.00  0.00    +0.234 A 
ATOM     11  O   UNL     1     -12.709  12.934  63.172  0.00  0.00    -0.283 OA
ATOM     12  C   UNL     1     -10.573  11.907  63.678  0.00  0.00    +0.045 A 
ATOM     13  C   UNL     1      -9.966  11.091  64.624  0.00  0.00    -0.001 A 
ENDBRANCH   5   6
ENDBRANCH   4   5
ENDBRANCH   3   4
ENDBRANCH   2   3
BRANCH   2  14
ATOM     14  C   UNL     1     -11.936  11.071  69.700  0.00  0.00    +0.022 C 
BRANCH  14  15
ATOM     15  C   UNL     1     -12.624  11.235  71.032  0.00  0.00    +0.028 C 
BRANCH  15  16
ATOM     16  C   UNL     1     -12.714  12.697  71.286  0.00  0.00    -0.022 A 
ATOM     17  C   UNL     1     -13.583  13.193  72.235  0.00  0.00    -0.001 A 
ATOM     18  C   UNL     1     -13.379  14.484  72.684  0.00  0.00    +0.042 A 
ATOM     19  C   UNL     1     -12.392  15.256  72.081  0.00  0.00    +0.196 A 
ATOM     20  O   UNL     1     -11.979  16.454  72.641  0.00  0.00    -0.287 OA
ATOM     21  C   UNL     1     -11.938  14.911  70.815  0.00  0.00    +0.042 A 
ATOM     22  C   UNL     1     -12.065  13.579  70.441  0.00  0.00    -0.001 A 
ENDBRANCH  15  16
ENDBRANCH  14  15
ENDBRANCH   2  14
TORSDOF 7
ENDMDL
MODEL 9
REMARK VINA RESULT:      -6.2      3.567      5.196
REMARK  Name = 
REMARK  7 active torsions:
REMARK  status: ('A' for Active; 'I' for Inactive)
REMARK    1  A    between atoms: C_2  and  C_3
REMARK    2  A    between atoms: C_2  and  N_12
REMARK    3  A    between atoms: C_3  and  C_4
REMARK    4  A    between atoms: C_4  and  C_5
REMARK    5  A    between atoms: N_12  and  C_13
REMARK    6  A    between atoms: C_13  and  C_14
REMARK    7  A    between atoms: C_14  and  C_15
REMARK                            x       y       z     vdW  Elec       q    Type
REMARK                         _______ _______ _______ _____ _____    ______ ____
ROOT
ATOM      1  C   UNL     1      -7.816  17.375  68.439  0.00  0.00    +0.019 C 
ATOM      2  C   UNL     1      -9.322  16.920  67.873  0.00  0.00    +0.073 C 
ENDROOT
BRANCH   2   3
ATOM      3  N   UNL     1      -8.705  15.626  67.159  0.00  0.00    -0.219 NA
BRANCH   3   4
ATOM      4  C   UNL     1      -9.224  15.758  65.796  0.00  0.00    +0.093 C 
BRANCH   4   5
ATOM      5  C   UNL     1     -10.706  15.930  65.939  0.00  0.00    +0.045 C 
BRANCH   5   6
ATOM      6  C   UNL     1     -11.481  14.702  65.706  0.00  0.00    -0.017 A 
ATOM      7  C   UNL     1     -11.574  13.660  66.619  0.00  0.00    +0.041 A 
ATOM      8  C   UNL     1     -11.720  12.356  66.162  0.00  0.00    +0.234 A 
ATOM      9  O   UNL     1     -11.657  11.290  67.053  0.00  0.00    -0.283 OA
ATOM     10  C   UNL     1     -11.626  12.037  64.812  0.00  0.00    +0.234 A 
ATOM     11  O   UNL     1     -10.919  10.917  64.366  0.00  0.00    -0.283 OA
ATOM     12  C   UNL     1     -11.916  13.085  63.946  0.00  0.00    +0.045 A 
ATOM     13  C   UNL     1     -11.892  14.394  64.414  0.00  0.00    -0.001 A 
ENDBRANCH   5   6
ENDBRANCH   4   5
ENDBRANCH   3   4
ENDBRANCH   2   3
BRANCH   2  14
ATOM     14  C   UNL     1      -9.628  16.053  69.270  0.00  0.00    +0.022 C 
BRANCH  14  15
ATOM     15  C   UNL     1     -10.997  16.592  69.600  0.00  0.00    +0.028 C 
BRANCH  15  16
ATOM     16  C   UNL     1     -11.611  15.635  70.558  0.00  0.00    -0.022 A 
ATOM     17  C   UNL     1     -11.895  16.020  71.851  0.00  0.00    -0.001 A 
ATOM     18  C   UNL     1     -12.773  15.239  72.578  0.00  0.00    +0.042 A 
ATOM     19  C   UNL     1     -13.233  14.050  72.023  0.00  0.00    +0.196 A 
ATOM     20  O   UNL     1     -14.288  13.356  72.589  0.00  0.00    -0.287 OA
ATOM     21  C   UNL     1     -12.516  13.462  70.988  0.00  0.00    +0.042 A 
ATOM     22  C   UNL     1     -11.725  14.300  70.213  0.00  0.00    -0.001 A 
ENDBRANCH  15  16
ENDBRANCH  14  15
ENDBRANCH   2  14
TORSDOF 7
ENDMDL
