MODEL 1
REMARK VINA RESULT:      -7.0      0.000      0.000
REMARK  Name = 
REMARK  2 active torsions:
REMARK  status: ('A' for Active; 'I' for Inactive)
REMARK    1  A    between atoms: C_24  and  C_26
REMARK    2  A    between atoms: C_26  and  C_28
REMARK                            x       y       z     vdW  Elec       q    Type
REMARK                         _______ _______ _______ _____ _____    ______ ____
ROOT
ATOM      1  C   UNL     1     -11.477  13.737  69.030  0.00  0.00    +0.003 C 
ATOM      2  C   UNL     1     -11.658  14.478  67.590  0.00  0.00    +0.035 C 
ATOM      3  C   UNL     1     -10.154  14.131  67.065  0.00  0.00    +0.178 C 
ATOM      4  O   UNL     1     -10.406  14.505  65.725  0.00  0.00    -0.218 OA
ATOM      5  C   UNL     1      -9.294  15.054  67.684  0.00  0.00    +0.035 C 
ATOM      6  C   UNL     1     -10.154  16.308  67.110  0.00  0.00    +0.006 C 
ATOM      7  C   UNL     1      -9.314  17.332  68.143  0.00  0.00    +0.036 C 
ATOM      8  C   UNL     1      -8.309  17.803  66.987  0.00  0.00    +0.168 C 
ATOM      9  C   UNL     1      -7.900  16.498  66.130  0.00  0.00    +0.182 C 
ATOM     10  O   UNL     1      -6.400  16.711  66.272  0.00  0.00    -0.220 OA
ATOM     11  F   UNL     1      -9.001  18.393  65.943  0.00  0.00    -0.237 F 
ATOM     12  C   UNL     1      -7.456  18.613  67.680  0.00  0.00    +0.066 C 
ATOM     13  C   UNL     1      -8.126  19.262  68.821  0.00  0.00    -0.003 C 
ATOM     14  C   UNL     1      -7.380  19.921  69.719  0.00  0.00    +0.036 C 
ATOM     15  C   UNL     1      -6.038  20.297  69.227  0.00  0.00    +0.195 C 
ATOM     16  C   UNL     1      -6.064  20.529  67.768  0.00  0.00    +0.038 C 
ATOM     17  O   UNL     1      -5.412  21.171  69.901  0.00  0.00    -0.287 OA
ATOM     18  C   UNL     1      -9.669  19.742  68.830  0.00  0.00    +0.180 C 
ATOM     19  F   UNL     1      -9.488  20.660  67.639  0.00  0.00    -0.233 F 
ATOM     20  C   UNL     1      -6.352  17.860  68.443  0.00  0.00    +0.011 C 
ATOM     21  C   UNL     1      -6.853  19.794  66.977  0.00  0.00    -0.017 C 
ATOM     22  C   UNL     1     -10.309  18.567  67.863  0.00  0.00    +0.042 C 
ATOM     23  C   UNL     1      -9.301  15.175  69.203  0.00  0.00    +0.003 C 
ATOM     24  C   UNL     1      -7.943  15.408  67.366  0.00  0.00    +0.038 C 
ATOM     25  C   UNL     1     -11.298  15.954  68.189  0.00  0.00    +0.003 C 
ENDROOT
BRANCH   3  26
ATOM     26  C   UNL     1      -9.968  12.695  67.066  0.00  0.00    +0.194 C 
ATOM     27  O   UNL     1     -10.660  11.880  66.452  0.00  0.00    -0.292 OA
BRANCH  26  28
ATOM     28  C   UNL     1      -8.620  12.076  67.336  0.00  0.00    +0.161 C 
ATOM     29 CL   UNL     1      -8.628  11.015  68.740  0.00  0.00    -0.105 Cl
ENDBRANCH  26  28
ENDBRANCH   3  26
TORSDOF 2
ENDMDL
MODEL 2
REMARK VINA RESULT:      -7.0      2.627      6.650
REMARK  Name = 
REMARK  2 active torsions:
REMARK  status: ('A' for Active; 'I' for Inactive)
REMARK    1  A    between atoms: C_24  and  C_26
REMARK    2  A    between atoms: C_26  and  C_28
REMARK                            x       y       z     vdW  Elec       q    Type
REMARK                         _______ _______ _______ _____ _____    ______ ____
ROOT
ATOM      1  C   UNL     1      -4.290  21.053  65.530  0.00  0.00    +0.003 C 
ATOM      2  C   UNL     1      -5.058  21.563  66.875  0.00  0.00    +0.035 C 
ATOM      3  C   UNL     1      -4.678  20.247  67.760  0.00  0.00    +0.178 C 
ATOM      4  O   UNL     1      -5.079  20.812  68.992  0.00  0.00    -0.218 OA
ATOM      5  C   UNL     1      -5.567  19.232  67.367  0.00  0.00    +0.035 C 
ATOM      6  C   UNL     1      -6.853  20.169  67.698  0.00  0.00    +0.006 C 
ATOM      7  C   UNL     1      -7.837  19.068  66.898  0.00  0.00    +0.036 C 
ATOM      8  C   UNL     1      -8.298  18.367  68.264  0.00  0.00    +0.168 C 
ATOM      9  C   UNL     1      -6.995  18.224  69.206  0.00  0.00    +0.182 C 
ATOM     10  O   UNL     1      -7.165  16.730  69.439  0.00  0.00    -0.220 OA
ATOM     11  F   UNL     1      -8.923  19.278  69.098  0.00  0.00    -0.237 F 
ATOM     12  C   UNL     1      -9.073  17.345  67.798  0.00  0.00    +0.066 C 
ATOM     13  C   UNL     1      -9.723  17.690  66.520  0.00  0.00    -0.003 C 
ATOM     14  C   UNL     1     -10.347  16.724  65.831  0.00  0.00    +0.036 C 
ATOM     15  C   UNL     1     -10.693  15.535  66.637  0.00  0.00    +0.195 C 
ATOM     16  C   UNL     1     -10.948  15.916  68.042  0.00  0.00    +0.038 C 
ATOM     17  O   UNL     1     -11.539  14.735  66.133  0.00  0.00    -0.287 OA
ATOM     18  C   UNL     1     -10.245  19.167  66.125  0.00  0.00    +0.180 C 
ATOM     19  F   UNL     1     -11.176  19.259  67.316  0.00  0.00    -0.233 F 
ATOM     20  C   UNL     1      -8.278  16.109  67.340  0.00  0.00    +0.011 C 
ATOM     21  C   UNL     1     -10.248  16.899  68.619  0.00  0.00    -0.017 C 
ATOM     22  C   UNL     1      -9.103  20.063  66.912  0.00  0.00    +0.042 C 
ATOM     23  C   UNL     1      -5.664  18.858  65.893  0.00  0.00    +0.003 C 
ATOM     24  C   UNL     1      -5.889  17.992  68.007  0.00  0.00    +0.038 C 
ATOM     25  C   UNL     1      -6.514  21.020  66.371  0.00  0.00    +0.003 C 
ENDROOT
BRANCH   3  26
ATOM     26  C   UNL     1      -3.238  20.111  67.817  0.00  0.00    +0.194 C 
ATOM     27  O   UNL     1      -2.455  20.942  68.282  0.00  0.00    -0.292 OA
BRANCH  26  28
ATOM     28  C   UNL     1      -2.575  18.756  67.845  0.00  0.00    +0.161 C 
ATOM     29 CL   UNL     1      -2.082  18.207  66.247  0.00  0.00    -0.105 Cl
ENDBRANCH  26  28
ENDBRANCH   3  26
TORSDOF 2
ENDMDL
MODEL 3
REMARK VINA RESULT:      -7.0      2.181      3.076
REMARK  Name = 
REMARK  2 active torsions:
REMARK  status: ('A' for Active; 'I' for Inactive)
REMARK    1  A    between atoms: C_24  and  C_26
REMARK    2  A    between atoms: C_26  and  C_28
REMARK                            x       y       z     vdW  Elec       q    Type
REMARK                         _______ _______ _______ _____ _____    ______ ____
ROOT
ATOM      1  C   UNL     1      -9.272  13.624  68.090  0.00  0.00    +0.003 C 
ATOM      2  C   UNL     1      -9.955  14.829  68.950  0.00  0.00    +0.035 C 
ATOM      3  C   UNL     1     -10.471  15.657  67.644  0.00  0.00    +0.178 C 
ATOM      4  O   UNL     1     -11.307  16.529  68.379  0.00  0.00    -0.218 OA
ATOM      5  C   UNL     1      -9.354  16.346  67.143  0.00  0.00    +0.035 C 
ATOM      6  C   UNL     1      -9.090  17.055  68.581  0.00  0.00    +0.006 C 
ATOM      7  C   UNL     1      -7.588  17.567  68.031  0.00  0.00    +0.036 C 
ATOM      8  C   UNL     1      -8.129  19.034  67.678  0.00  0.00    +0.168 C 
ATOM      9  C   UNL     1      -9.577  18.870  66.985  0.00  0.00    +0.182 C 
ATOM     10  O   UNL     1      -9.225  19.686  65.750  0.00  0.00    -0.220 OA
ATOM     11  F   UNL     1      -8.630  19.658  68.807  0.00  0.00    -0.237 F 
ATOM     12  C   UNL     1      -7.024  19.603  67.115  0.00  0.00    +0.066 C 
ATOM     13  C   UNL     1      -5.777  19.047  67.671  0.00  0.00    -0.003 C 
ATOM     14  C   UNL     1      -4.613  19.349  67.079  0.00  0.00    +0.036 C 
ATOM     15  C   UNL     1      -4.669  20.549  66.218  0.00  0.00    +0.195 C 
ATOM     16  C   UNL     1      -5.669  21.510  66.729  0.00  0.00    +0.038 C 
ATOM     17  O   UNL     1      -3.555  21.058  65.882  0.00  0.00    -0.287 OA
ATOM     18  C   UNL     1      -5.586  18.577  69.205  0.00  0.00    +0.180 C 
ATOM     19  F   UNL     1      -5.936  19.940  69.765  0.00  0.00    -0.233 F 
ATOM     20  C   UNL     1      -6.812  19.239  65.634  0.00  0.00    +0.011 C 
ATOM     21  C   UNL     1      -6.800  21.076  67.297  0.00  0.00    -0.017 C 
ATOM     22  C   UNL     1      -7.115  18.030  69.500  0.00  0.00    +0.042 C 
ATOM     23  C   UNL     1      -8.091  15.566  66.799  0.00  0.00    +0.003 C 
ATOM     24  C   UNL     1      -9.286  17.439  66.220  0.00  0.00    +0.038 C 
ATOM     25  C   UNL     1      -8.547  15.638  69.125  0.00  0.00    +0.003 C 
ENDROOT
BRANCH   3  26
ATOM     26  C   UNL     1     -11.345  14.811  66.858  0.00  0.00    +0.194 C 
ATOM     27  O   UNL     1     -12.419  14.340  67.236  0.00  0.00    -0.292 OA
BRANCH  26  28
ATOM     28  C   UNL     1     -11.345  14.864  65.351  0.00  0.00    +0.161 C 
ATOM     29 CL   UNL     1     -10.428  13.549  64.625  0.00  0.00    -0.105 Cl
ENDBRANCH  26  28
ENDBRANCH   3  26
TORSDOF 2
ENDMDL
MODEL 4
REMARK VINA RESULT:      -6.9      2.460      6.539
REMARK  Name = 
REMARK  2 active torsions:
REMARK  status: ('A' for Active; 'I' for Inactive)
REMARK    1  A    between atoms: C_24  and  C_26
REMARK    2  A    between atoms: C_26  and  C_28
REMARK                            x       y       z     vdW  Elec       q    Type
REMARK                         _______ _______ _______ _____ _____    ______ ____
ROOT
ATOM      1  C   UNL     1      -5.898  18.818  66.565  0.00  0.00    +0.003 C 
ATOM      2  C   UNL     1      -7.417  19.317  66.883  0.00  0.00    +0.035 C 
ATOM      3  C   UNL     1      -7.490  18.611  68.352  0.00  0.00    +0.178 C 
ATOM      4  O   UNL     1      -8.671  19.282  68.746  0.00  0.00    -0.218 OA
ATOM      5  C   UNL     1      -7.745  17.248  68.127  0.00  0.00    +0.035 C 
ATOM      6  C   UNL     1      -9.072  17.594  67.254  0.00  0.00    +0.006 C 
ATOM      7  C   UNL     1      -9.123  15.998  66.735  0.00  0.00    +0.036 C 
ATOM      8  C   UNL     1     -10.234  15.598  67.819  0.00  0.00    +0.168 C 
ATOM      9  C   UNL     1      -9.837  16.308  69.213  0.00  0.00    +0.182 C 
ATOM     10  O   UNL     1      -9.877  15.025  70.031  0.00  0.00    -0.220 OA
ATOM     11  F   UNL     1     -11.382  16.352  67.649  0.00  0.00    -0.237 F 
ATOM     12  C   UNL     1     -10.355  14.256  67.603  0.00  0.00    +0.066 C 
ATOM     13  C   UNL     1     -10.079  13.900  66.199  0.00  0.00    -0.003 C 
ATOM     14  C   UNL     1      -9.953  12.607  65.872  0.00  0.00    +0.036 C 
ATOM     15  C   UNL     1     -10.541  11.676  66.858  0.00  0.00    +0.195 C 
ATOM     16  C   UNL     1     -11.694  12.301  67.540  0.00  0.00    +0.038 C 
ATOM     17  O   UNL     1     -10.727  10.482  66.470  0.00  0.00    -0.287 OA
ATOM     18  C   UNL     1     -10.452  14.825  64.928  0.00  0.00    +0.180 C 
ATOM     19  F   UNL     1     -11.929  14.851  65.261  0.00  0.00    -0.233 F 
ATOM     20  C   UNL     1      -9.269  13.407  68.286  0.00  0.00    +0.011 C 
ATOM     21  C   UNL     1     -11.693  13.610  67.817  0.00  0.00    -0.017 C 
ATOM     22  C   UNL     1     -10.241  16.310  65.618  0.00  0.00    +0.042 C 
ATOM     23  C   UNL     1      -6.814  16.458  67.215  0.00  0.00    +0.003 C 
ATOM     24  C   UNL     1      -8.200  16.236  69.031  0.00  0.00    +0.038 C 
ATOM     25  C   UNL     1      -8.101  18.081  66.062  0.00  0.00    +0.003 C 
ENDROOT
BRANCH   3  26
ATOM     26  C   UNL     1      -6.423  19.129  69.182  0.00  0.00    +0.194 C 
ATOM     27  O   UNL     1      -6.287  20.305  69.528  0.00  0.00    -0.292 OA
BRANCH  26  28
ATOM     28  C   UNL     1      -5.695  18.250  70.168  0.00  0.00    +0.161 C 
ATOM     29 CL   UNL     1      -4.198  17.594  69.517  0.00  0.00    -0.105 Cl
ENDBRANCH  26  28
ENDBRANCH   3  26
TORSDOF 2
ENDMDL
MODEL 5
REMARK VINA RESULT:      -6.9      2.002      2.673
REMARK  Name = 
REMARK  2 active torsions:
REMARK  status: ('A' for Active; 'I' for Inactive)
REMARK    1  A    between atoms: C_24  and  C_26
REMARK    2  A    between atoms: C_26  and  C_28
REMARK                            x       y       z     vdW  Elec       q    Type
REMARK                         _______ _______ _______ _____ _____    ______ ____
ROOT
ATOM      1  C   UNL     1     -11.112  16.032  68.832  0.00  0.00    +0.003 C 
ATOM      2  C   UNL     1     -10.889  17.184  67.700  0.00  0.00    +0.035 C 
ATOM      3  C   UNL     1      -9.790  16.332  66.849  0.00  0.00    +0.178 C 
ATOM      4  O   UNL     1      -9.819  17.190  65.726  0.00  0.00    -0.218 OA
ATOM      5  C   UNL     1      -8.571  16.456  67.536  0.00  0.00    +0.035 C 
ATOM      6  C   UNL     1      -8.654  18.078  67.483  0.00  0.00    +0.006 C 
ATOM      7  C   UNL     1      -7.396  18.160  68.593  0.00  0.00    +0.036 C 
ATOM      8  C   UNL     1      -6.300  18.419  67.453  0.00  0.00    +0.168 C 
ATOM      9  C   UNL     1      -6.638  17.438  66.216  0.00  0.00    +0.182 C 
ATOM     10  O   UNL     1      -5.246  16.826  66.149  0.00  0.00    -0.220 OA
ATOM     11  F   UNL     1      -6.590  19.572  66.745  0.00  0.00    -0.237 F 
ATOM     12  C   UNL     1      -5.146  18.431  68.181  0.00  0.00    +0.066 C 
ATOM     13  C   UNL     1      -5.371  18.918  69.554  0.00  0.00    -0.003 C 
ATOM     14  C   UNL     1      -4.385  18.795  70.454  0.00  0.00    +0.036 C 
ATOM     15  C   UNL     1      -3.048  18.596  69.858  0.00  0.00    +0.195 C 
ATOM     16  C   UNL     1      -2.959  19.267  68.544  0.00  0.00    +0.038 C 
ATOM     17  O   UNL     1      -2.053  18.778  70.625  0.00  0.00    -0.287 OA
ATOM     18  C   UNL     1      -6.438  20.062  69.960  0.00  0.00    +0.180 C 
ATOM     19  F   UNL     1      -5.811  21.100  69.050  0.00  0.00    -0.233 F 
ATOM     20  C   UNL     1      -4.592  17.033  68.508  0.00  0.00    +0.011 C 
ATOM     21  C   UNL     1      -4.020  19.316  67.732  0.00  0.00    -0.017 C 
ATOM     22  C   UNL     1      -7.602  19.739  68.836  0.00  0.00    +0.042 C 
ATOM     23  C   UNL     1      -8.504  16.067  69.009  0.00  0.00    +0.003 C 
ATOM     24  C   UNL     1      -7.235  16.180  67.098  0.00  0.00    +0.038 C 
ATOM     25  C   UNL     1      -9.808  18.007  68.607  0.00  0.00    +0.003 C 
ENDROOT
BRANCH   3  26
ATOM     26  C   UNL     1     -10.380  15.079  66.428  0.00  0.00    +0.194 C 
ATOM     27  O   UNL     1     -11.334  14.957  65.656  0.00  0.00    -0.292 OA
BRANCH  26  28
ATOM     28  C   UNL     1      -9.585  13.798  66.416  0.00  0.00    +0.161 C 
ATOM     29 CL   UNL     1      -9.863  12.812  67.847  0.00  0.00    -0.105 Cl
ENDBRANCH  26  28
ENDBRANCH   3  26
TORSDOF 2
ENDMDL
MODEL 6
REMARK VINA RESULT:      -6.8      2.740      6.447
REMARK  Name = 
REMARK  2 active torsions:
REMARK  status: ('A' for Active; 'I' for Inactive)
REMARK    1  A    between atoms: C_24  and  C_26
REMARK    2  A    between atoms: C_26  and  C_28
REMARK                            x       y       z     vdW  Elec       q    Type
REMARK                         _______ _______ _______ _____ _____    ______ ____
ROOT
ATOM      1  C   UNL     1      -7.663  20.539  67.203  0.00  0.00    +0.003 C 
ATOM      2  C   UNL     1      -7.333  19.752  68.592  0.00  0.00    +0.035 C 
ATOM      3  C   UNL     1      -6.420  18.600  67.886  0.00  0.00    +0.178 C 
ATOM      4  O   UNL     1      -5.897  18.102  69.102  0.00  0.00    -0.218 OA
ATOM      5  C   UNL     1      -7.314  17.679  67.315  0.00  0.00    +0.035 C 
ATOM      6  C   UNL     1      -8.062  17.453  68.741  0.00  0.00    +0.006 C 
ATOM      7  C   UNL     1      -9.298  16.644  67.942  0.00  0.00    +0.036 C 
ATOM      8  C   UNL     1      -8.696  15.203  68.303  0.00  0.00    +0.168 C 
ATOM      9  C   UNL     1      -7.096  15.276  68.103  0.00  0.00    +0.182 C 
ATOM     10  O   UNL     1      -7.025  14.072  67.175  0.00  0.00    -0.220 OA
ATOM     11  F   UNL     1      -8.616  15.032  69.674  0.00  0.00    -0.237 F 
ATOM     12  C   UNL     1      -9.556  14.375  67.640  0.00  0.00    +0.066 C 
ATOM     13  C   UNL     1     -10.907  14.956  67.540  0.00  0.00    -0.003 C 
ATOM     14  C   UNL     1     -11.807  14.365  66.742  0.00  0.00    +0.036 C 
ATOM     15  C   UNL     1     -11.485  12.962  66.406  0.00  0.00    +0.195 C 
ATOM     16  C   UNL     1     -10.734  12.323  67.507  0.00  0.00    +0.038 C 
ATOM     17  O   UNL     1     -12.429  12.265  65.922  0.00  0.00    -0.287 OA
ATOM     18  C   UNL     1     -11.597  15.878  68.674  0.00  0.00    +0.180 C 
ATOM     19  F   UNL     1     -11.480  14.812  69.743  0.00  0.00    -0.233 F 
ATOM     20  C   UNL     1      -9.248  14.217  66.140  0.00  0.00    +0.011 C 
ATOM     21  C   UNL     1      -9.854  13.027  68.228  0.00  0.00    -0.017 C 
ATOM     22  C   UNL     1     -10.247  16.638  69.244  0.00  0.00    +0.042 C 
ATOM     23  C   UNL     1      -8.373  18.176  66.338  0.00  0.00    +0.003 C 
ATOM     24  C   UNL     1      -7.086  16.344  66.848  0.00  0.00    +0.038 C 
ATOM     25  C   UNL     1      -8.731  18.909  68.565  0.00  0.00    +0.003 C 
ENDROOT
BRANCH   3  26
ATOM     26  C   UNL     1      -5.318  19.227  67.188  0.00  0.00    +0.194 C 
ATOM     27  O   UNL     1      -4.455  19.942  67.702  0.00  0.00    -0.292 OA
BRANCH  26  28
ATOM     28  C   UNL     1      -4.766  18.650  65.909  0.00  0.00    +0.161 C 
ATOM     29 CL   UNL     1      -5.547  19.307  64.475  0.00  0.00    -0.105 Cl
ENDBRANCH  26  28
ENDBRANCH   3  26
TORSDOF 2
ENDMDL
MODEL 7
REMARK VINA RESULT:      -6.8      3.477      7.386
REMARK  Name = 
REMARK  2 active torsions:
REMARK  status: ('A' for Active; 'I' for Inactive)
REMARK    1  A    between atoms: C_24  and  C_26
REMARK    2  A    between atoms: C_26  and  C_28
REMARK                            x       y       z     vdW  Elec       q    Type
REMARK                         _______ _______ _______ _____ _____    ______ ____
ROOT
ATOM      1  C   UNL     1      -8.280  17.428  68.439  0.00  0.00    +0.003 C 
ATOM      2  C   UNL     1      -8.175  16.835  66.923  0.00  0.00    +0.035 C 
ATOM      3  C   UNL     1      -9.774  16.560  66.769  0.00  0.00    +0.178 C 
ATOM      4  O   UNL     1      -9.722  16.332  65.375  0.00  0.00    -0.218 OA
ATOM      5  C   UNL     1     -10.041  15.365  67.458  0.00  0.00    +0.035 C 
ATOM      6  C   UNL     1      -8.926  14.563  66.588  0.00  0.00    +0.006 C 
ATOM      7  C   UNL     1      -9.038  13.278  67.664  0.00  0.00    +0.036 C 
ATOM      8  C   UNL     1     -10.027  12.458  66.706  0.00  0.00    +0.168 C 
ATOM      9  C   UNL     1     -11.096  13.502  66.096  0.00  0.00    +0.182 C 
ATOM     10  O   UNL     1     -12.319  12.707  66.531  0.00  0.00    -0.220 OA
ATOM     11  F   UNL     1      -9.429  12.204  65.484  0.00  0.00    -0.237 F 
ATOM     12  C   UNL     1     -10.312  11.369  67.477  0.00  0.00    +0.066 C 
ATOM     13  C   UNL     1      -9.196  11.027  68.376  0.00  0.00    -0.003 C 
ATOM     14  C   UNL     1      -9.396  10.116  69.339  0.00  0.00    +0.036 C 
ATOM     15  C   UNL     1     -10.565   9.243  69.108  0.00  0.00    +0.195 C 
ATOM     16  C   UNL     1     -10.797   9.056  67.661  0.00  0.00    +0.038 C 
ATOM     17  O   UNL     1     -10.628   8.184  69.805  0.00  0.00    -0.287 OA
ATOM     18  C   UNL     1      -7.632  11.202  68.007  0.00  0.00    +0.180 C 
ATOM     19  F   UNL     1      -7.722  10.300  66.793  0.00  0.00    -0.233 F 
ATOM     20  C   UNL     1     -11.407  11.611  68.531  0.00  0.00    +0.011 C 
ATOM     21  C   UNL     1     -10.562  10.053  66.800  0.00  0.00    -0.017 C 
ATOM     22  C   UNL     1      -7.742  12.544  67.053  0.00  0.00    +0.042 C 
ATOM     23  C   UNL     1      -9.629  15.241  68.920  0.00  0.00    +0.003 C 
ATOM     24  C   UNL     1     -11.185  14.505  67.400  0.00  0.00    +0.038 C 
ATOM     25  C   UNL     1      -7.786  15.332  67.430  0.00  0.00    +0.003 C 
ENDROOT
BRANCH   3  26
ATOM     26  C   UNL     1     -10.492  17.803  66.959  0.00  0.00    +0.194 C 
ATOM     27  O   UNL     1     -11.039  18.166  68.003  0.00  0.00    -0.292 OA
BRANCH  26  28
ATOM     28  C   UNL     1     -10.188  19.023  66.126  0.00  0.00    +0.161 C 
ATOM     29 CL   UNL     1      -9.813  20.437  67.103  0.00  0.00    -0.105 Cl
ENDBRANCH  26  28
ENDBRANCH   3  26
TORSDOF 2
ENDMDL
MODEL 8
REMARK VINA RESULT:      -6.8      2.739      6.644
REMARK  Name = 
REMARK  2 active torsions:
REMARK  status: ('A' for Active; 'I' for Inactive)
REMARK    1  A    between atoms: C_24  and  C_26
REMARK    2  A    between atoms: C_26  and  C_28
REMARK                            x       y       z     vdW  Elec       q    Type
REMARK                         _______ _______ _______ _____ _____    ______ ____
ROOT
ATOM      1  C   UNL     1      -7.729  19.521  66.201  0.00  0.00    +0.003 C 
ATOM      2  C   UNL     1      -9.111  19.393  67.056  0.00  0.00    +0.035 C 
ATOM      3  C   UNL     1      -8.514  18.316  68.125  0.00  0.00    +0.178 C 
ATOM      4  O   UNL     1      -9.596  18.431  69.026  0.00  0.00    -0.218 OA
ATOM      5  C   UNL     1      -8.532  17.066  67.483  0.00  0.00    +0.035 C 
ATOM      6  C   UNL     1     -10.122  17.201  67.170  0.00  0.00    +0.006 C 
ATOM      7  C   UNL     1     -10.007  15.888  66.128  0.00  0.00    +0.036 C 
ATOM      8  C   UNL     1     -10.556  14.863  67.231  0.00  0.00    +0.168 C 
ATOM      9  C   UNL     1      -9.860  15.237  68.638  0.00  0.00    +0.182 C 
ATOM     10  O   UNL     1      -9.336  13.833  68.902  0.00  0.00    -0.220 OA
ATOM     11  F   UNL     1     -11.825  15.224  67.650  0.00  0.00    -0.237 F 
ATOM     12  C   UNL     1     -10.454  13.673  66.571  0.00  0.00    +0.066 C 
ATOM     13  C   UNL     1     -10.617  13.839  65.115  0.00  0.00    -0.003 C 
ATOM     14  C   UNL     1     -10.338  12.803  64.311  0.00  0.00    +0.036 C 
ATOM     15  C   UNL     1     -10.331  11.494  64.996  0.00  0.00    +0.195 C 
ATOM     16  C   UNL     1     -11.278  11.495  66.130  0.00  0.00    +0.038 C 
ATOM     17  O   UNL     1     -10.380  10.465  64.254  0.00  0.00    -0.287 OA
ATOM     18  C   UNL     1     -11.599  14.916  64.417  0.00  0.00    +0.180 C 
ATOM     19  F   UNL     1     -12.836  14.370  65.100  0.00  0.00    -0.233 F 
ATOM     20  C   UNL     1      -9.043  13.060  66.589  0.00  0.00    +0.011 C 
ATOM     21  C   UNL     1     -11.462  12.599  66.862  0.00  0.00    -0.017 C 
ATOM     22  C   UNL     1     -11.484  16.129  65.531  0.00  0.00    +0.042 C 
ATOM     23  C   UNL     1      -7.831  16.909  66.139  0.00  0.00    +0.003 C 
ATOM     24  C   UNL     1      -8.415  15.749  68.032  0.00  0.00    +0.038 C 
ATOM     25  C   UNL     1      -9.757  18.290  66.039  0.00  0.00    +0.003 C 
ENDROOT
BRANCH   3  26
ATOM     26  C   UNL     1      -7.361  18.891  68.787  0.00  0.00    +0.194 C 
ATOM     27  O   UNL     1      -7.365  19.909  69.482  0.00  0.00    -0.292 OA
BRANCH  26  28
ATOM     28  C   UNL     1      -6.175  18.046  69.178  0.00  0.00    +0.161 C 
ATOM     29 CL   UNL     1      -4.870  18.119  67.999  0.00  0.00    -0.105 Cl
ENDBRANCH  26  28
ENDBRANCH   3  26
TORSDOF 2
ENDMDL
MODEL 9
REMARK VINA RESULT:      -6.4      2.430      4.054
REMARK  Name = 
REMARK  2 active torsions:
REMARK  status: ('A' for Active; 'I' for Inactive)
REMARK    1  A    between atoms: C_24  and  C_26
REMARK    2  A    between atoms: C_26  and  C_28
REMARK                            x       y       z     vdW  Elec       q    Type
REMARK                         _______ _______ _______ _____ _____    ______ ____
ROOT
ATOM      1  C   UNL     1      -9.537   9.676  69.375  0.00  0.00    +0.003 C 
ATOM      2  C   UNL     1     -11.002  10.197  68.886  0.00  0.00    +0.035 C 
ATOM      3  C   UNL     1     -10.540  10.491  67.350  0.00  0.00    +0.178 C 
ATOM      4  O   UNL     1     -11.855  10.654  66.859  0.00  0.00    -0.218 OA
ATOM      5  C   UNL     1      -9.860  11.720  67.368  0.00  0.00    +0.035 C 
ATOM      6  C   UNL     1     -11.131  12.464  68.057  0.00  0.00    +0.006 C 
ATOM      7  C   UNL     1     -10.158  13.798  68.366  0.00  0.00    +0.036 C 
ATOM      8  C   UNL     1     -10.699  14.589  67.082  0.00  0.00    +0.168 C 
ATOM      9  C   UNL     1     -10.797  13.536  65.862  0.00  0.00    +0.182 C 
ATOM     10  O   UNL     1      -9.962  14.369  64.901  0.00  0.00    -0.220 OA
ATOM     11  F   UNL     1     -12.067  14.778  67.160  0.00  0.00    -0.237 F 
ATOM     12  C   UNL     1      -9.930  15.717  67.114  0.00  0.00    +0.066 C 
ATOM     13  C   UNL     1      -9.550  16.081  68.490  0.00  0.00    -0.003 C 
ATOM     14  C   UNL     1      -8.630  17.038  68.676  0.00  0.00    +0.036 C 
ATOM     15  C   UNL     1      -8.433  17.919  67.505  0.00  0.00    +0.195 C 
ATOM     16  C   UNL     1      -9.686  18.043  66.732  0.00  0.00    +0.038 C 
ATOM     17  O   UNL     1      -7.818  19.009  67.714  0.00  0.00    -0.287 OA
ATOM     18  C   UNL     1     -10.486  15.864  69.790  0.00  0.00    +0.180 C 
ATOM     19  F   UNL     1     -11.612  16.712  69.236  0.00  0.00    -0.233 F 
ATOM     20  C   UNL     1      -8.525  15.540  66.512  0.00  0.00    +0.011 C 
ATOM     21  C   UNL     1     -10.521  17.005  66.618  0.00  0.00    -0.017 C 
ATOM     22  C   UNL     1     -11.258  14.482  69.324  0.00  0.00    +0.042 C 
ATOM     23  C   UNL     1      -8.678  11.904  68.312  0.00  0.00    +0.003 C 
ATOM     24  C   UNL     1      -9.513  12.595  66.288  0.00  0.00    +0.038 C 
ATOM     25  C   UNL     1     -10.758  11.716  69.436  0.00  0.00    +0.003 C 
ENDROOT
BRANCH   3  26
ATOM     26  C   UNL     1     -10.028   9.269  66.765  0.00  0.00    +0.194 C 
ATOM     27  O   UNL     1     -10.614   8.185  66.737  0.00  0.00    -0.292 OA
BRANCH  26  28
ATOM     28  C   UNL     1      -9.011   9.295  65.652  0.00  0.00    +0.161 C 
ATOM     29 CL   UNL     1      -9.677   9.888  64.135  0.00  0.00    -0.105 Cl
ENDBRANCH  26  28
ENDBRANCH   3  26
TORSDOF 2
ENDMDL
