MODEL 1
REMARK VINA RESULT:      -6.3      0.000      0.000
REMARK  Name = 
REMARK  2 active torsions:
REMARK  status: ('A' for Active; 'I' for Inactive)
REMARK    1  A    between atoms: C_2  and  C_3
REMARK    2  A    between atoms: C_2  and  N_12
REMARK                            x       y       z     vdW  Elec       q    Type
REMARK                         _______ _______ _______ _____ _____    ______ ____
ROOT
ATOM      1  C   UNL     1     -11.666  14.014  68.475  0.00  0.00    +0.026 A 
ATOM      2  S   UNL     1     -11.601  15.645  69.030  0.00  0.00    -0.090 S 
ATOM      3  C   UNL     1     -12.084  15.416  70.663  0.00  0.00    +0.029 A 
ATOM      4  C   UNL     1     -12.508  14.093  70.614  0.00  0.00    +0.006 A 
ATOM      5  C   UNL     1     -13.132  13.626  71.767  0.00  0.00    +0.001 A 
ATOM      6  C   UNL     1     -13.231  14.410  72.879  0.00  0.00    +0.000 A 
ATOM      7  C   UNL     1     -12.430  15.532  73.049  0.00  0.00    +0.001 A 
ATOM      8  C   UNL     1     -12.039  16.130  71.857  0.00  0.00    +0.006 A 
ATOM      9  C   UNL     1     -11.841  13.369  69.679  0.00  0.00    +0.004 A 
ENDROOT
BRANCH   1  11
ATOM     10  C   UNL     1     -10.427  11.966  68.490  0.00  0.00    +0.027 C 
ATOM     11  C   UNL     1     -10.404  13.392  67.612  0.00  0.00    +0.109 C 
BRANCH  11  12
ATOM     12  N   UNL     1     -11.369  12.797  66.481  0.00  0.00    -0.264 N 
ATOM     13  C   UNL     1     -11.749  13.795  65.555  0.00  0.00    +0.188 C 
ATOM     14  O   UNL     1     -10.851  14.207  64.760  0.00  0.00    -0.524 OA
ATOM     15  N   UNL     1     -13.097  14.107  65.209  0.00  0.00    -0.102 NA
ATOM     16  O   UNL     1     -12.050  11.709  66.799  0.00  0.00    -0.418 OA
ENDBRANCH  11  12
ENDBRANCH   1  11
TORSDOF 2
ENDMDL
MODEL 2
REMARK VINA RESULT:      -5.9      1.766      1.882
REMARK  Name = 
REMARK  2 active torsions:
REMARK  status: ('A' for Active; 'I' for Inactive)
REMARK    1  A    between atoms: C_2  and  C_3
REMARK    2  A    between atoms: C_2  and  N_12
REMARK                            x       y       z     vdW  Elec       q    Type
REMARK                         _______ _______ _______ _____ _____    ______ ____
ROOT
ATOM      1  C   UNL     1     -11.474  15.015  68.676  0.00  0.00    +0.026 A 
ATOM      2  S   UNL     1     -10.874  16.234  69.737  0.00  0.00    -0.090 S 
ATOM      3  C   UNL     1     -11.894  15.965  71.094  0.00  0.00    +0.029 A 
ATOM      4  C   UNL     1     -12.818  15.087  70.541  0.00  0.00    +0.006 A 
ATOM      5  C   UNL     1     -13.911  14.786  71.349  0.00  0.00    +0.001 A 
ATOM      6  C   UNL     1     -13.997  15.271  72.622  0.00  0.00    +0.000 A 
ATOM      7  C   UNL     1     -12.883  15.764  73.287  0.00  0.00    +0.001 A 
ATOM      8  C   UNL     1     -11.916  16.302  72.444  0.00  0.00    +0.006 A 
ATOM      9  C   UNL     1     -12.283  14.325  69.551  0.00  0.00    +0.004 A 
ENDROOT
BRANCH   1  11
ATOM     10  C   UNL     1     -11.577  12.828  67.708  0.00  0.00    +0.027 C 
ATOM     11  C   UNL     1     -10.416  14.021  67.891  0.00  0.00    +0.109 C 
BRANCH  11  12
ATOM     12  N   UNL     1     -10.747  14.665  66.463  0.00  0.00    -0.264 N 
ATOM     13  C   UNL     1      -9.918  15.779  66.199  0.00  0.00    +0.188 C 
ATOM     14  O   UNL     1      -8.698  15.537  65.954  0.00  0.00    -0.524 OA
ATOM     15  N   UNL     1     -10.394  17.075  65.839  0.00  0.00    -0.102 NA
ATOM     16  O   UNL     1     -11.962  14.449  65.986  0.00  0.00    -0.418 OA
ENDBRANCH  11  12
ENDBRANCH   1  11
TORSDOF 2
ENDMDL
MODEL 3
REMARK VINA RESULT:      -5.7      1.603      2.398
REMARK  Name = 
REMARK  2 active torsions:
REMARK  status: ('A' for Active; 'I' for Inactive)
REMARK    1  A    between atoms: C_2  and  C_3
REMARK    2  A    between atoms: C_2  and  N_12
REMARK                            x       y       z     vdW  Elec       q    Type
REMARK                         _______ _______ _______ _____ _____    ______ ____
ROOT
ATOM      1  C   UNL     1     -11.376  14.399  68.840  0.00  0.00    +0.026 A 
ATOM      2  S   UNL     1     -12.079  13.195  69.854  0.00  0.00    -0.090 S 
ATOM      3  C   UNL     1     -12.445  14.155  71.232  0.00  0.00    +0.029 A 
ATOM      4  C   UNL     1     -11.768  15.324  70.909  0.00  0.00    +0.006 A 
ATOM      5  C   UNL     1     -11.721  16.283  71.917  0.00  0.00    +0.001 A 
ATOM      6  C   UNL     1     -12.375  16.091  73.099  0.00  0.00    +0.000 A 
ATOM      7  C   UNL     1     -13.383  15.144  73.225  0.00  0.00    +0.001 A 
ATOM      8  C   UNL     1     -13.245  14.058  72.367  0.00  0.00    +0.006 A 
ATOM      9  C   UNL     1     -11.689  15.525  69.568  0.00  0.00    +0.004 A 
ENDROOT
BRANCH   1  11
ATOM     10  C   UNL     1     -10.696  15.688  66.942  0.00  0.00    +0.027 C 
ATOM     11  C   UNL     1     -11.854  14.522  67.265  0.00  0.00    +0.109 C 
BRANCH  11  12
ATOM     12  N   UNL     1     -10.891  13.331  66.797  0.00  0.00    -0.264 N 
ATOM     13  C   UNL     1     -11.631  12.168  66.482  0.00  0.00    +0.188 C 
ATOM     14  O   UNL     1     -12.323  12.202  65.420  0.00  0.00    -0.524 OA
ATOM     15  N   UNL     1     -11.390  10.879  67.043  0.00  0.00    -0.102 NA
ATOM     16  O   UNL     1      -9.639  13.384  67.219  0.00  0.00    -0.418 OA
ENDBRANCH  11  12
ENDBRANCH   1  11
TORSDOF 2
ENDMDL
MODEL 4
REMARK VINA RESULT:      -5.6      2.298      3.038
REMARK  Name = 
REMARK  2 active torsions:
REMARK  status: ('A' for Active; 'I' for Inactive)
REMARK    1  A    between atoms: C_2  and  C_3
REMARK    2  A    between atoms: C_2  and  N_12
REMARK                            x       y       z     vdW  Elec       q    Type
REMARK                         _______ _______ _______ _____ _____    ______ ____
ROOT
ATOM      1  C   UNL     1     -10.784  15.784  69.048  0.00  0.00    +0.026 A 
ATOM      2  S   UNL     1     -11.629  14.282  69.011  0.00  0.00    -0.090 S 
ATOM      3  C   UNL     1     -12.289  14.281  70.597  0.00  0.00    +0.029 A 
ATOM      4  C   UNL     1     -11.603  15.353  71.154  0.00  0.00    +0.006 A 
ATOM      5  C   UNL     1     -11.786  15.531  72.522  0.00  0.00    +0.001 A 
ATOM      6  C   UNL     1     -12.651  14.743  73.223  0.00  0.00    +0.000 A 
ATOM      7  C   UNL     1     -13.631  13.995  72.584  0.00  0.00    +0.001 A 
ATOM      8  C   UNL     1     -13.291  13.609  71.292  0.00  0.00    +0.006 A 
ATOM      9  C   UNL     1     -11.272  16.293  70.231  0.00  0.00    +0.004 A 
ENDROOT
BRANCH   1  11
ATOM     10  C   UNL     1      -9.888  17.935  68.501  0.00  0.00    +0.027 C 
ATOM     11  C   UNL     1     -10.949  16.847  67.797  0.00  0.00    +0.109 C 
BRANCH  11  12
ATOM     12  N   UNL     1      -9.786  16.149  66.946  0.00  0.00    -0.264 N 
ATOM     13  C   UNL     1     -10.282  15.635  65.726  0.00  0.00    +0.188 C 
ATOM     14  O   UNL     1     -10.604  16.482  64.839  0.00  0.00    -0.524 OA
ATOM     15  N   UNL     1     -10.116  14.288  65.289  0.00  0.00    -0.102 NA
ATOM     16  O   UNL     1      -8.741  15.709  67.626  0.00  0.00    -0.418 OA
ENDBRANCH  11  12
ENDBRANCH   1  11
TORSDOF 2
ENDMDL
MODEL 5
REMARK VINA RESULT:      -5.4      3.513      5.912
REMARK  Name = 
REMARK  2 active torsions:
REMARK  status: ('A' for Active; 'I' for Inactive)
REMARK    1  A    between atoms: C_2  and  C_3
REMARK    2  A    between atoms: C_2  and  N_12
REMARK                            x       y       z     vdW  Elec       q    Type
REMARK                         _______ _______ _______ _____ _____    ______ ____
ROOT
ATOM      1  C   UNL     1     -12.122  13.900  69.612  0.00  0.00    +0.026 A 
ATOM      2  S   UNL     1     -11.776  12.221  69.431  0.00  0.00    -0.090 S 
ATOM      3  C   UNL     1     -11.557  12.151  67.728  0.00  0.00    +0.029 A 
ATOM      4  C   UNL     1     -12.011  13.414  67.366  0.00  0.00    +0.006 A 
ATOM      5  C   UNL     1     -12.125  13.636  65.997  0.00  0.00    +0.001 A 
ATOM      6  C   UNL     1     -11.732  12.688  65.097  0.00  0.00    +0.000 A 
ATOM      7  C   UNL     1     -10.892  11.645  65.463  0.00  0.00    +0.001 A 
ATOM      8  C   UNL     1     -11.002  11.275  66.799  0.00  0.00    +0.006 A 
ATOM      9  C   UNL     1     -11.812  14.337  68.343  0.00  0.00    +0.004 A 
ENDROOT
BRANCH   1  11
ATOM     10  C   UNL     1     -11.316  16.144  69.817  0.00  0.00    +0.027 C 
ATOM     11  C   UNL     1     -11.347  14.773  70.778  0.00  0.00    +0.109 C 
BRANCH  11  12
ATOM     12  N   UNL     1     -12.721  15.206  71.479  0.00  0.00    -0.264 N 
ATOM     13  C   UNL     1     -13.094  14.285  72.484  0.00  0.00    +0.188 C 
ATOM     14  O   UNL     1     -12.400  14.286  73.545  0.00  0.00    -0.524 OA
ATOM     15  N   UNL     1     -14.360  13.632  72.553  0.00  0.00    -0.102 NA
ATOM     16  O   UNL     1     -13.527  15.976  70.768  0.00  0.00    -0.418 OA
ENDBRANCH  11  12
ENDBRANCH   1  11
TORSDOF 2
ENDMDL
MODEL 6
REMARK VINA RESULT:      -5.4      4.679      6.445
REMARK  Name = 
REMARK  2 active torsions:
REMARK  status: ('A' for Active; 'I' for Inactive)
REMARK    1  A    between atoms: C_2  and  C_3
REMARK    2  A    between atoms: C_2  and  N_12
REMARK                            x       y       z     vdW  Elec       q    Type
REMARK                         _______ _______ _______ _____ _____    ______ ____
ROOT
ATOM      1  C   UNL     1     -10.159  15.555  65.887  0.00  0.00    +0.026 A 
ATOM      2  S   UNL     1     -11.331  15.635  64.626  0.00  0.00    -0.090 S 
ATOM      3  C   UNL     1     -11.466  13.964  64.249  0.00  0.00    +0.029 A 
ATOM      4  C   UNL     1     -10.394  13.457  64.974  0.00  0.00    +0.006 A 
ATOM      5  C   UNL     1     -10.109  12.112  64.754  0.00  0.00    +0.001 A 
ATOM      6  C   UNL     1     -10.897  11.352  63.940  0.00  0.00    +0.000 A 
ATOM      7  C   UNL     1     -12.180  11.753  63.592  0.00  0.00    +0.001 A 
ATOM      8  C   UNL     1     -12.352  13.133  63.568  0.00  0.00    +0.006 A 
ATOM      9  C   UNL     1     -10.124  14.192  66.084  0.00  0.00    +0.004 A 
ENDROOT
BRANCH   1  11
ATOM     10  C   UNL     1      -9.048  15.715  68.001  0.00  0.00    +0.027 C 
ATOM     11  C   UNL     1     -10.412  16.381  67.294  0.00  0.00    +0.109 C 
BRANCH  11  12
ATOM     12  N   UNL     1      -9.607  17.665  66.777  0.00  0.00    -0.264 N 
ATOM     13  C   UNL     1     -10.412  18.826  66.823  0.00  0.00    +0.188 C 
ATOM     14  O   UNL     1     -10.677  19.291  67.973  0.00  0.00    -0.524 OA
ATOM     15  N   UNL     1     -10.641  19.697  65.717  0.00  0.00    -0.102 NA
ATOM     16  O   UNL     1      -8.592  17.436  65.961  0.00  0.00    -0.418 OA
ENDBRANCH  11  12
ENDBRANCH   1  11
TORSDOF 2
ENDMDL
MODEL 7
REMARK VINA RESULT:      -5.3      3.578      4.484
REMARK  Name = 
REMARK  2 active torsions:
REMARK  status: ('A' for Active; 'I' for Inactive)
REMARK    1  A    between atoms: C_2  and  C_3
REMARK    2  A    between atoms: C_2  and  N_12
REMARK                            x       y       z     vdW  Elec       q    Type
REMARK                         _______ _______ _______ _____ _____    ______ ____
ROOT
ATOM      1  C   UNL     1     -10.554  15.370  66.453  0.00  0.00    +0.026 A 
ATOM      2  S   UNL     1     -10.803  16.657  65.334  0.00  0.00    -0.090 S 
ATOM      3  C   UNL     1     -10.338  17.989  66.315  0.00  0.00    +0.029 A 
ATOM      4  C   UNL     1     -10.245  17.365  67.554  0.00  0.00    +0.006 A 
ATOM      5  C   UNL     1     -10.040  18.217  68.635  0.00  0.00    +0.001 A 
ATOM      6  C   UNL     1      -9.863  19.558  68.449  0.00  0.00    +0.000 A 
ATOM      7  C   UNL     1      -9.523  20.079  67.207  0.00  0.00    +0.001 A 
ATOM      8  C   UNL     1      -9.982  19.322  66.135  0.00  0.00    +0.006 A 
ATOM      9  C   UNL     1      -9.900  16.056  67.451  0.00  0.00    +0.004 A 
ENDROOT
BRANCH   1  11
ATOM     10  C   UNL     1      -9.652  13.442  67.548  0.00  0.00    +0.027 C 
ATOM     11  C   UNL     1      -9.729  14.021  65.979  0.00  0.00    +0.109 C 
BRANCH  11  12
ATOM     12  N   UNL     1     -11.074  13.211  65.667  0.00  0.00    -0.264 N 
ATOM     13  C   UNL     1     -11.284  13.083  64.275  0.00  0.00    +0.188 C 
ATOM     14  O   UNL     1     -10.510  12.297  63.651  0.00  0.00    -0.524 OA
ATOM     15  N   UNL     1     -12.479  13.469  63.598  0.00  0.00    -0.102 NA
ATOM     16  O   UNL     1     -12.000  13.219  66.611  0.00  0.00    -0.418 OA
ENDBRANCH  11  12
ENDBRANCH   1  11
TORSDOF 2
ENDMDL
MODEL 8
REMARK VINA RESULT:      -5.3      8.071      9.178
REMARK  Name = 
REMARK  2 active torsions:
REMARK  status: ('A' for Active; 'I' for Inactive)
REMARK    1  A    between atoms: C_2  and  C_3
REMARK    2  A    between atoms: C_2  and  N_12
REMARK                            x       y       z     vdW  Elec       q    Type
REMARK                         _______ _______ _______ _____ _____    ______ ____
ROOT
ATOM      1  C   UNL     1      -6.657  19.298  69.294  0.00  0.00    +0.026 A 
ATOM      2  S   UNL     1      -7.106  17.702  68.822  0.00  0.00    -0.090 S 
ATOM      3  C   UNL     1      -8.473  18.063  67.844  0.00  0.00    +0.029 A 
ATOM      4  C   UNL     1      -8.646  19.408  68.144  0.00  0.00    +0.006 A 
ATOM      5  C   UNL     1      -9.802  19.989  67.630  0.00  0.00    +0.001 A 
ATOM      6  C   UNL     1     -10.644  19.280  66.823  0.00  0.00    +0.000 A 
ATOM      7  C   UNL     1     -10.233  18.113  66.192  0.00  0.00    +0.001 A 
ATOM      8  C   UNL     1      -9.247  17.418  66.883  0.00  0.00    +0.006 A 
ATOM      9  C   UNL     1      -7.477  20.024  68.460  0.00  0.00    +0.004 A 
ENDROOT
BRANCH   1  11
ATOM     10  C   UNL     1      -5.489  21.142  68.312  0.00  0.00    +0.027 C 
ATOM     11  C   UNL     1      -5.080  19.771  69.183  0.00  0.00    +0.109 C 
BRANCH  11  12
ATOM     12  N   UNL     1      -5.133  20.553  70.579  0.00  0.00    -0.264 N 
ATOM     13  C   UNL     1      -3.839  20.717  71.124  0.00  0.00    +0.188 C 
ATOM     14  O   UNL     1      -3.075  21.543  70.540  0.00  0.00    -0.524 OA
ATOM     15  N   UNL     1      -3.458  20.319  72.439  0.00  0.00    -0.102 NA
ATOM     16  O   UNL     1      -6.273  20.490  71.247  0.00  0.00    -0.418 OA
ENDBRANCH  11  12
ENDBRANCH   1  11
TORSDOF 2
ENDMDL
MODEL 9
REMARK VINA RESULT:      -5.3      3.869      5.209
REMARK  Name = 
REMARK  2 active torsions:
REMARK  status: ('A' for Active; 'I' for Inactive)
REMARK    1  A    between atoms: C_2  and  C_3
REMARK    2  A    between atoms: C_2  and  N_12
REMARK                            x       y       z     vdW  Elec       q    Type
REMARK                         _______ _______ _______ _____ _____    ______ ____
ROOT
ATOM      1  C   UNL     1     -10.667  15.681  67.526  0.00  0.00    +0.026 A 
ATOM      2  S   UNL     1      -9.278  15.930  66.536  0.00  0.00    -0.090 S 
ATOM      3  C   UNL     1      -9.125  17.636  66.674  0.00  0.00    +0.029 A 
ATOM      4  C   UNL     1     -10.328  17.944  67.297  0.00  0.00    +0.006 A 
ATOM      5  C   UNL     1     -10.608  19.303  67.413  0.00  0.00    +0.001 A 
ATOM      6  C   UNL     1      -9.704  20.242  67.008  0.00  0.00    +0.000 A 
ATOM      7  C   UNL     1      -8.367  19.924  66.809  0.00  0.00    +0.001 A 
ATOM      8  C   UNL     1      -8.153  18.603  66.432  0.00  0.00    +0.006 A 
ATOM      9  C   UNL     1     -10.779  16.934  68.086  0.00  0.00    +0.004 A 
ENDROOT
BRANCH   1  11
ATOM     10  C   UNL     1     -11.752  15.312  69.627  0.00  0.00    +0.027 C 
ATOM     11  C   UNL     1     -10.656  14.488  68.666  0.00  0.00    +0.109 C 
BRANCH  11  12
ATOM     12  N   UNL     1     -11.813  13.662  67.927  0.00  0.00    -0.264 N 
ATOM     13  C   UNL     1     -11.701  12.277  68.190  0.00  0.00    +0.188 C 
ATOM     14  O   UNL     1     -11.994  11.894  69.363  0.00  0.00    -0.524 OA
ATOM     15  N   UNL     1     -11.640  11.266  67.187  0.00  0.00    -0.102 NA
ATOM     16  O   UNL     1     -12.349  14.226  66.858  0.00  0.00    -0.418 OA
ENDBRANCH  11  12
ENDBRANCH   1  11
TORSDOF 2
ENDMDL
