MODEL 1
REMARK VINA RESULT:      -7.4      0.000      0.000
REMARK  Name = 
REMARK  2 active torsions:
REMARK  status: ('A' for Active; 'I' for Inactive)
REMARK    1  A    between atoms: C_4  and  C_5
REMARK    2  A    between atoms: N_7  and  C_8
REMARK                            x       y       z     vdW  Elec       q    Type
REMARK                         _______ _______ _______ _____ _____    ______ ____
ROOT
ATOM      1  C   UNL     1     -11.438  15.047  68.370  0.00  0.00    +0.284 C 
ATOM      2  N   UNL     1     -12.075  14.407  67.253  0.00  0.00    -0.202 NA
ATOM      3  O   UNL     1     -10.185  15.180  68.379  0.00  0.00    -0.267 OA
ENDROOT
BRANCH   1  11
ATOM      4  C   UNL     1     -13.167  15.894  72.567  0.00  0.00    +0.154 C 
ATOM      5  N   UNL     1     -12.882  15.425  71.697  0.00  0.00    -0.249 N 
ATOM      6  C   UNL     1     -13.082  14.110  71.415  0.00  0.00    +0.080 A 
ATOM      7  C   UNL     1     -12.428  13.755  70.270  0.00  0.00    +0.041 A 
ATOM      8  C   UNL     1     -12.002  12.467  69.969  0.00  0.00    +0.003 A 
ATOM      9  C   UNL     1     -12.234  11.474  70.891  0.00  0.00    +0.000 A 
ATOM     10  C   UNL     1     -13.174  11.738  71.868  0.00  0.00    +0.002 A 
ATOM     11  C   UNL     1     -12.086  14.965  69.684  0.00  0.00    +0.157 A 
ATOM     12  C   UNL     1     -13.577  13.038  72.153  0.00  0.00    +0.019 A 
ATOM     13  N   UNL     1     -12.313  15.903  70.592  0.00  0.00    -0.165 NA
ENDBRANCH   1  11
BRANCH   2  14
ATOM     14  C   UNL     1     -11.320  13.857  66.275  0.00  0.00    +0.098 C 
ATOM     15  C   UNL     1     -11.833  13.505  65.050  0.00  0.00    +0.038 C 
ATOM     16  C   UNL     1     -10.496  12.578  65.195  0.00  0.00    +0.059 C 
ATOM     17  N   UNL     1     -11.233  11.454  64.447  0.00  0.00    -0.274 NA
ATOM     18  C   UNL     1     -10.115  11.670  65.411  0.00  0.00    +0.059 C 
ATOM     19  C   UNL     1     -10.241  10.138  65.972  0.00  0.00    +0.016 C 
ATOM     20  C   UNL     1      -9.806  10.892  67.153  0.00  0.00    +0.003 C 
ATOM     21  C   UNL     1     -11.225  12.257  63.285  0.00  0.00    +0.090 C 
ATOM     22  C   UNL     1     -10.796  11.867  66.706  0.00  0.00    +0.016 C 
ATOM     23  C   UNL     1     -11.199  12.405  66.512  0.00  0.00    +0.038 C 
ENDBRANCH   2  14
TORSDOF 2
ENDMDL
MODEL 2
REMARK VINA RESULT:      -7.1      3.269      4.871
REMARK  Name = 
REMARK  2 active torsions:
REMARK  status: ('A' for Active; 'I' for Inactive)
REMARK    1  A    between atoms: C_4  and  C_5
REMARK    2  A    between atoms: N_7  and  C_8
REMARK                            x       y       z     vdW  Elec       q    Type
REMARK                         _______ _______ _______ _____ _____    ______ ____
ROOT
ATOM      1  C   UNL     1     -10.912  15.169  68.780  0.00  0.00    +0.284 C 
ATOM      2  N   UNL     1      -9.611  15.774  68.718  0.00  0.00    -0.202 NA
ATOM      3  O   UNL     1     -11.659  15.194  67.765  0.00  0.00    -0.267 OA
ENDROOT
BRANCH   1  11
ATOM      4  C   UNL     1     -12.527  15.983  73.029  0.00  0.00    +0.154 C 
ATOM      5  N   UNL     1     -12.324  15.543  72.121  0.00  0.00    -0.249 N 
ATOM      6  C   UNL     1     -12.783  14.328  71.720  0.00  0.00    +0.080 A 
ATOM      7  C   UNL     1     -12.189  13.947  70.550  0.00  0.00    +0.041 A 
ATOM      8  C   UNL     1     -12.029  12.631  70.136  0.00  0.00    +0.003 A 
ATOM      9  C   UNL     1     -12.480  11.629  70.963  0.00  0.00    +0.000 A 
ATOM     10  C   UNL     1     -13.368  11.994  71.956  0.00  0.00    +0.002 A 
ATOM     11  C   UNL     1     -11.593  15.108  70.078  0.00  0.00    +0.157 A 
ATOM     12  C   UNL     1     -13.504  13.320  72.355  0.00  0.00    +0.019 A 
ATOM     13  N   UNL     1     -11.644  15.989  71.066  0.00  0.00    -0.165 NA
ENDBRANCH   1  11
BRANCH   2  14
ATOM     14  C   UNL     1      -9.241  16.459  67.612  0.00  0.00    +0.098 C 
ATOM     15  C   UNL     1      -7.927  16.681  67.280  0.00  0.00    +0.038 C 
ATOM     16  C   UNL     1      -8.732  17.870  66.503  0.00  0.00    +0.059 C 
ATOM     17  N   UNL     1      -7.538  18.805  66.763  0.00  0.00    -0.274 NA
ATOM     18  C   UNL     1      -9.004  18.841  66.492  0.00  0.00    +0.059 C 
ATOM     19  C   UNL     1      -9.142  20.319  67.182  0.00  0.00    +0.016 C 
ATOM     20  C   UNL     1     -10.432  19.688  67.483  0.00  0.00    +0.003 C 
ATOM     21  C   UNL     1      -6.758  18.007  65.896  0.00  0.00    +0.090 C 
ATOM     22  C   UNL     1      -9.615  18.521  67.798  0.00  0.00    +0.016 C 
ATOM     23  C   UNL     1      -9.292  17.907  67.896  0.00  0.00    +0.038 C 
ENDBRANCH   2  14
TORSDOF 2
ENDMDL
MODEL 3
REMARK VINA RESULT:      -7.0      2.490      5.556
REMARK  Name = 
REMARK  2 active torsions:
REMARK  status: ('A' for Active; 'I' for Inactive)
REMARK    1  A    between atoms: C_4  and  C_5
REMARK    2  A    between atoms: N_7  and  C_8
REMARK                            x       y       z     vdW  Elec       q    Type
REMARK                         _______ _______ _______ _____ _____    ______ ____
ROOT
ATOM      1  C   UNL     1     -10.986  11.634  67.479  0.00  0.00    +0.284 C 
ATOM      2  N   UNL     1     -10.259  12.739  68.038  0.00  0.00    -0.202 NA
ATOM      3  O   UNL     1     -12.097  11.838  66.921  0.00  0.00    -0.267 OA
ENDROOT
BRANCH   1  11
ATOM      4  C   UNL     1     -10.239   7.141  68.243  0.00  0.00    +0.154 C 
ATOM      5  N   UNL     1     -10.447   8.140  68.375  0.00  0.00    -0.249 N 
ATOM      6  C   UNL     1     -10.725   8.731  69.567  0.00  0.00    +0.080 A 
ATOM      7  C   UNL     1     -11.138  10.020  69.385  0.00  0.00    +0.041 A 
ATOM      8  C   UNL     1     -11.949  10.723  70.267  0.00  0.00    +0.003 A 
ATOM      9  C   UNL     1     -12.388  10.079  71.400  0.00  0.00    +0.000 A 
ATOM     10  C   UNL     1     -11.717   8.928  71.763  0.00  0.00    +0.002 A 
ATOM     11  C   UNL     1     -10.797  10.304  68.070  0.00  0.00    +0.157 A 
ATOM     12  C   UNL     1     -10.916   8.241  70.856  0.00  0.00    +0.019 A 
ATOM     13  N   UNL     1     -10.462   9.152  67.509  0.00  0.00    -0.165 NA
ENDBRANCH   1  11
BRANCH   2  14
ATOM     14  C   UNL     1     -10.820  13.969  68.058  0.00  0.00    +0.098 C 
ATOM     15  C   UNL     1     -10.077  15.125  68.084  0.00  0.00    +0.038 C 
ATOM     16  C   UNL     1     -11.521  15.575  68.701  0.00  0.00    +0.059 C 
ATOM     17  N   UNL     1     -10.782  16.541  69.642  0.00  0.00    -0.274 NA
ATOM     18  C   UNL     1     -12.060  15.783  69.526  0.00  0.00    +0.059 C 
ATOM     19  C   UNL     1     -12.281  15.817  71.147  0.00  0.00    +0.016 C 
ATOM     20  C   UNL     1     -12.885  14.539  70.755  0.00  0.00    +0.003 C 
ATOM     21  C   UNL     1     -10.399  17.304  68.516  0.00  0.00    +0.090 C 
ATOM     22  C   UNL     1     -11.695  14.408  69.920  0.00  0.00    +0.016 C 
ATOM     23  C   UNL     1     -11.188  14.313  69.446  0.00  0.00    +0.038 C 
ENDBRANCH   2  14
TORSDOF 2
ENDMDL
MODEL 4
REMARK VINA RESULT:      -6.9      2.732      4.241
REMARK  Name = 
REMARK  2 active torsions:
REMARK  status: ('A' for Active; 'I' for Inactive)
REMARK    1  A    between atoms: C_4  and  C_5
REMARK    2  A    between atoms: N_7  and  C_8
REMARK                            x       y       z     vdW  Elec       q    Type
REMARK                         _______ _______ _______ _____ _____    ______ ____
ROOT
ATOM      1  C   UNL     1     -10.457  11.459  68.730  0.00  0.00    +0.284 C 
ATOM      2  N   UNL     1     -11.514  12.025  67.940  0.00  0.00    -0.202 NA
ATOM      3  O   UNL     1      -9.261  11.778  68.492  0.00  0.00    -0.267 OA
ENDROOT
BRANCH   1  11
ATOM      4  C   UNL     1     -10.612   6.930  69.619  0.00  0.00    +0.154 C 
ATOM      5  N   UNL     1     -10.723   7.951  69.689  0.00  0.00    -0.249 N 
ATOM      6  C   UNL     1     -11.325   8.604  70.718  0.00  0.00    +0.080 A 
ATOM      7  C   UNL     1     -11.478   9.930  70.427  0.00  0.00    +0.041 A 
ATOM      8  C   UNL     1     -12.450  10.754  70.979  0.00  0.00    +0.003 A 
ATOM      9  C   UNL     1     -13.340  10.202  71.871  0.00  0.00    +0.000 A 
ATOM     10  C   UNL     1     -12.993   8.985  72.425  0.00  0.00    +0.002 A 
ATOM     11  C   UNL     1     -10.662  10.133  69.323  0.00  0.00    +0.157 A 
ATOM     12  C   UNL     1     -12.020   8.177  71.846  0.00  0.00    +0.019 A 
ATOM     13  N   UNL     1     -10.301   8.932  68.893  0.00  0.00    -0.165 NA
ENDBRANCH   1  11
BRANCH   2  14
ATOM     14  C   UNL     1     -11.213  12.809  66.880  0.00  0.00    +0.098 C 
ATOM     15  C   UNL     1     -12.104  13.704  66.340  0.00  0.00    +0.038 C 
ATOM     16  C   UNL     1     -11.061  13.407  65.119  0.00  0.00    +0.059 C 
ATOM     17  N   UNL     1     -12.232  13.532  64.130  0.00  0.00    -0.274 NA
ATOM     18  C   UNL     1     -10.882  12.912  64.260  0.00  0.00    +0.059 C 
ATOM     19  C   UNL     1     -11.243  11.780  63.134  0.00  0.00    +0.016 C 
ATOM     20  C   UNL     1     -10.332  11.071  64.040  0.00  0.00    +0.003 C 
ATOM     21  C   UNL     1     -12.327  14.903  64.455  0.00  0.00    +0.090 C 
ATOM     22  C   UNL     1     -11.121  11.712  65.087  0.00  0.00    +0.016 C 
ATOM     23  C   UNL     1     -11.409  12.040  65.635  0.00  0.00    +0.038 C 
ENDBRANCH   2  14
TORSDOF 2
ENDMDL
MODEL 5
REMARK VINA RESULT:      -6.8      4.856      6.911
REMARK  Name = 
REMARK  2 active torsions:
REMARK  status: ('A' for Active; 'I' for Inactive)
REMARK    1  A    between atoms: C_4  and  C_5
REMARK    2  A    between atoms: N_7  and  C_8
REMARK                            x       y       z     vdW  Elec       q    Type
REMARK                         _______ _______ _______ _____ _____    ______ ____
ROOT
ATOM      1  C   UNL     1      -9.735  18.155  67.836  0.00  0.00    +0.284 C 
ATOM      2  N   UNL     1      -9.535  16.749  68.050  0.00  0.00    -0.202 NA
ATOM      3  O   UNL     1     -10.902  18.601  67.672  0.00  0.00    -0.267 OA
ENDROOT
BRANCH   1  11
ATOM      4  C   UNL     1      -6.692  20.014  64.902  0.00  0.00    +0.154 C 
ATOM      5  N   UNL     1      -7.214  19.771  65.755  0.00  0.00    -0.249 N 
ATOM      6  C   UNL     1      -6.954  20.257  66.997  0.00  0.00    +0.080 A 
ATOM      7  C   UNL     1      -7.698  19.603  67.939  0.00  0.00    +0.041 A 
ATOM      8  C   UNL     1      -7.345  19.476  69.277  0.00  0.00    +0.003 A 
ATOM      9  C   UNL     1      -6.156  20.028  69.691  0.00  0.00    +0.000 A 
ATOM     10  C   UNL     1      -5.578  20.963  68.855  0.00  0.00    +0.002 A 
ATOM     11  C   UNL     1      -8.658  18.924  67.203  0.00  0.00    +0.157 A 
ATOM     12  C   UNL     1      -5.946  21.065  67.518  0.00  0.00    +0.019 A 
ATOM     13  N   UNL     1      -8.286  19.001  65.933  0.00  0.00    -0.165 NA
ENDBRANCH   1  11
BRANCH   2  14
ATOM     14  C   UNL     1     -10.586  15.902  67.966  0.00  0.00    +0.098 C 
ATOM     15  C   UNL     1     -10.583  14.654  68.540  0.00  0.00    +0.038 C 
ATOM     16  C   UNL     1     -11.703  14.537  67.357  0.00  0.00    +0.059 C 
ATOM     17  N   UNL     1     -11.266  13.079  67.132  0.00  0.00    -0.274 NA
ATOM     18  C   UNL     1     -11.920  14.218  66.426  0.00  0.00    +0.059 C 
ATOM     19  C   UNL     1     -11.502  13.613  64.964  0.00  0.00    +0.016 C 
ATOM     20  C   UNL     1     -11.472  15.063  64.746  0.00  0.00    +0.003 C 
ATOM     21  C   UNL     1     -11.775  12.756  68.409  0.00  0.00    +0.090 C 
ATOM     22  C   UNL     1     -10.793  15.089  66.037  0.00  0.00    +0.016 C 
ATOM     23  C   UNL     1     -10.528  15.182  66.679  0.00  0.00    +0.038 C 
ENDBRANCH   2  14
TORSDOF 2
ENDMDL
MODEL 6
REMARK VINA RESULT:      -6.8      2.330      6.338
REMARK  Name = 
REMARK  2 active torsions:
REMARK  status: ('A' for Active; 'I' for Inactive)
REMARK    1  A    between atoms: C_4  and  C_5
REMARK    2  A    between atoms: N_7  and  C_8
REMARK                            x       y       z     vdW  Elec       q    Type
REMARK                         _______ _______ _______ _____ _____    ______ ____
ROOT
ATOM      1  C   UNL     1     -10.894  13.802  64.691  0.00  0.00    +0.284 C 
ATOM      2  N   UNL     1     -10.038  14.674  65.444  0.00  0.00    -0.202 NA
ATOM      3  O   UNL     1     -12.145  13.938  64.767  0.00  0.00    -0.267 OA
ENDROOT
BRANCH   1  11
ATOM      4  C   UNL     1      -9.519   9.910  62.620  0.00  0.00    +0.154 C 
ATOM      5  N   UNL     1      -9.778  10.608  63.330  0.00  0.00    -0.249 N 
ATOM      6  C   UNL     1      -9.756  10.402  64.674  0.00  0.00    +0.080 A 
ATOM      7  C   UNL     1     -10.330  11.451  65.334  0.00  0.00    +0.041 A 
ATOM      8  C   UNL     1     -10.917  11.368  66.591  0.00  0.00    +0.003 A 
ATOM      9  C   UNL     1     -10.944  10.144  67.217  0.00  0.00    +0.000 A 
ATOM     10  C   UNL     1     -10.086   9.177  66.731  0.00  0.00    +0.002 A 
ATOM     11  C   UNL     1     -10.413  12.452  64.377  0.00  0.00    +0.157 A 
ATOM     12  C   UNL     1      -9.518   9.282  65.466  0.00  0.00    +0.019 A 
ATOM     13  N   UNL     1     -10.142  11.884  63.211  0.00  0.00    -0.165 NA
ENDBRANCH   1  11
BRANCH   2  14
ATOM     14  C   UNL     1     -10.578  15.561  66.311  0.00  0.00    +0.098 C 
ATOM     15  C   UNL     1      -9.856  16.585  66.874  0.00  0.00    +0.038 C 
ATOM     16  C   UNL     1     -11.097  16.366  67.912  0.00  0.00    +0.059 C 
ATOM     17  N   UNL     1     -10.146  16.708  69.071  0.00  0.00    -0.274 NA
ATOM     18  C   UNL     1     -11.411  15.972  68.784  0.00  0.00    +0.059 C 
ATOM     19  C   UNL     1     -11.214  15.026  70.105  0.00  0.00    +0.016 C 
ATOM     20  C   UNL     1     -11.895  14.138  69.156  0.00  0.00    +0.003 C 
ATOM     21  C   UNL     1     -10.063  18.030  68.579  0.00  0.00    +0.090 C 
ATOM     22  C   UNL     1     -10.955  14.699  68.192  0.00  0.00    +0.016 C 
ATOM     23  C   UNL     1     -10.584  14.976  67.666  0.00  0.00    +0.038 C 
ENDBRANCH   2  14
TORSDOF 2
ENDMDL
MODEL 7
REMARK VINA RESULT:      -6.7      3.937      6.160
REMARK  Name = 
REMARK  2 active torsions:
REMARK  status: ('A' for Active; 'I' for Inactive)
REMARK    1  A    between atoms: C_4  and  C_5
REMARK    2  A    between atoms: N_7  and  C_8
REMARK                            x       y       z     vdW  Elec       q    Type
REMARK                         _______ _______ _______ _____ _____    ______ ____
ROOT
ATOM      1  C   UNL     1      -9.502  15.229  65.911  0.00  0.00    +0.284 C 
ATOM      2  N   UNL     1      -8.393  15.947  66.475  0.00  0.00    -0.202 NA
ATOM      3  O   UNL     1     -10.215  15.777  65.028  0.00  0.00    -0.267 OA
ENDROOT
BRANCH   1  11
ATOM      4  C   UNL     1     -11.485  11.396  67.553  0.00  0.00    +0.154 C 
ATOM      5  N   UNL     1     -11.121  12.353  67.463  0.00  0.00    -0.249 N 
ATOM      6  C   UNL     1     -11.185  13.309  68.428  0.00  0.00    +0.080 A 
ATOM      7  C   UNL     1     -10.785  14.520  67.938  0.00  0.00    +0.041 A 
ATOM      8  C   UNL     1     -11.183  15.749  68.448  0.00  0.00    +0.003 A 
ATOM      9  C   UNL     1     -12.056  15.762  69.510  0.00  0.00    +0.000 A 
ATOM     10  C   UNL     1     -12.193  14.583  70.217  0.00  0.00    +0.002 A 
ATOM     11  C   UNL     1     -10.166  14.213  66.735  0.00  0.00    +0.157 A 
ATOM     12  C   UNL     1     -11.792  13.365  69.680  0.00  0.00    +0.019 A 
ATOM     13  N   UNL     1     -10.452  12.946  66.475  0.00  0.00    -0.165 NA
ENDBRANCH   1  11
BRANCH   2  14
ATOM     14  C   UNL     1      -8.189  17.241  66.134  0.00  0.00    +0.098 C 
ATOM     15  C   UNL     1      -7.097  17.957  66.559  0.00  0.00    +0.038 C 
ATOM     16  C   UNL     1      -8.206  19.105  66.210  0.00  0.00    +0.059 C 
ATOM     17  N   UNL     1      -7.662  19.941  67.381  0.00  0.00    -0.274 NA
ATOM     18  C   UNL     1      -8.894  19.751  66.562  0.00  0.00    +0.059 C 
ATOM     19  C   UNL     1      -9.835  20.366  67.751  0.00  0.00    +0.016 C 
ATOM     20  C   UNL     1     -10.708  19.375  67.112  0.00  0.00    +0.003 C 
ATOM     21  C   UNL     1      -6.453  20.105  66.669  0.00  0.00    +0.090 C 
ATOM     22  C   UNL     1      -9.514  18.537  67.129  0.00  0.00    +0.016 C 
ATOM     23  C   UNL     1      -8.966  18.110  67.040  0.00  0.00    +0.038 C 
ENDBRANCH   2  14
TORSDOF 2
ENDMDL
MODEL 8
REMARK VINA RESULT:      -6.7      3.497      5.517
REMARK  Name = 
REMARK  2 active torsions:
REMARK  status: ('A' for Active; 'I' for Inactive)
REMARK    1  A    between atoms: C_4  and  C_5
REMARK    2  A    between atoms: N_7  and  C_8
REMARK                            x       y       z     vdW  Elec       q    Type
REMARK                         _______ _______ _______ _____ _____    ______ ____
ROOT
ATOM      1  C   UNL     1     -10.785  15.265  68.502  0.00  0.00    +0.284 C 
ATOM      2  N   UNL     1     -10.107  16.316  69.207  0.00  0.00    -0.202 NA
ATOM      3  O   UNL     1     -11.365  15.518  67.412  0.00  0.00    -0.267 OA
ENDROOT
BRANCH   1  11
ATOM      4  C   UNL     1     -12.090  11.121  70.067  0.00  0.00    +0.154 C 
ATOM      5  N   UNL     1     -11.946  12.135  69.970  0.00  0.00    -0.249 N 
ATOM      6  C   UNL     1     -12.398  13.077  70.840  0.00  0.00    +0.080 A 
ATOM      7  C   UNL     1     -12.207  14.332  70.337  0.00  0.00    +0.041 A 
ATOM      8  C   UNL     1     -12.961  15.447  70.684  0.00  0.00    +0.003 A 
ATOM      9  C   UNL     1     -13.987  15.283  71.585  0.00  0.00    +0.000 A 
ATOM     10  C   UNL     1     -13.971  14.129  72.343  0.00  0.00    +0.002 A 
ATOM     11  C   UNL     1     -11.332  14.145  69.276  0.00  0.00    +0.157 A 
ATOM     12  C   UNL     1     -13.212  13.025  71.968  0.00  0.00    +0.019 A 
ATOM     13  N   UNL     1     -11.268  12.839  69.065  0.00  0.00    -0.165 NA
ENDBRANCH   1  11
BRANCH   2  14
ATOM     14  C   UNL     1     -10.189  17.589  68.754  0.00  0.00    +0.098 C 
ATOM     15  C   UNL     1     -10.545  17.897  67.463  0.00  0.00    +0.038 C 
ATOM     16  C   UNL     1      -9.713  19.210  67.963  0.00  0.00    +0.059 C 
ATOM     17  N   UNL     1      -9.158  19.362  66.536  0.00  0.00    -0.274 NA
ATOM     18  C   UNL     1      -8.841  19.714  67.950  0.00  0.00    +0.059 C 
ATOM     19  C   UNL     1      -7.246  19.850  67.606  0.00  0.00    +0.016 C 
ATOM     20  C   UNL     1      -7.250  19.366  68.991  0.00  0.00    +0.003 C 
ATOM     21  C   UNL     1     -10.463  19.670  66.090  0.00  0.00    +0.090 C 
ATOM     22  C   UNL     1      -8.292  18.464  68.513  0.00  0.00    +0.016 C 
ATOM     23  C   UNL     1      -8.842  18.055  68.370  0.00  0.00    +0.038 C 
ENDBRANCH   2  14
TORSDOF 2
ENDMDL
MODEL 9
REMARK VINA RESULT:      -6.6      3.088      6.801
REMARK  Name = 
REMARK  2 active torsions:
REMARK  status: ('A' for Active; 'I' for Inactive)
REMARK    1  A    between atoms: C_4  and  C_5
REMARK    2  A    between atoms: N_7  and  C_8
REMARK                            x       y       z     vdW  Elec       q    Type
REMARK                         _______ _______ _______ _____ _____    ______ ____
ROOT
ATOM      1  C   UNL     1      -9.479   9.967  67.372  0.00  0.00    +0.284 C 
ATOM      2  N   UNL     1     -10.395   9.063  68.008  0.00  0.00    -0.202 NA
ATOM      3  O   UNL     1      -8.683  10.645  68.076  0.00  0.00    -0.267 OA
ENDROOT
BRANCH   1  11
ATOM      4  C   UNL     1      -9.713  11.334  62.968  0.00  0.00    +0.154 C 
ATOM      5  N   UNL     1      -9.915  11.197  63.967  0.00  0.00    -0.249 N 
ATOM      6  C   UNL     1     -10.974  11.730  64.631  0.00  0.00    +0.080 A 
ATOM      7  C   UNL     1     -10.860  11.518  65.976  0.00  0.00    +0.041 A 
ATOM      8  C   UNL     1     -11.443  12.312  66.955  0.00  0.00    +0.003 A 
ATOM      9  C   UNL     1     -12.176  13.404  66.554  0.00  0.00    +0.000 A 
ATOM     10  C   UNL     1     -12.580  13.433  65.234  0.00  0.00    +0.002 A 
ATOM     11  C   UNL     1      -9.863  10.558  66.085  0.00  0.00    +0.157 A 
ATOM     12  C   UNL     1     -11.974  12.631  64.273  0.00  0.00    +0.019 A 
ATOM     13  N   UNL     1      -9.300  10.459  64.890  0.00  0.00    -0.165 NA
ENDBRANCH   1  11
BRANCH   2  14
ATOM     14  C   UNL     1     -10.472   9.025  69.359  0.00  0.00    +0.098 C 
ATOM     15  C   UNL     1     -11.030   7.972  70.042  0.00  0.00    +0.038 C 
ATOM     16  C   UNL     1     -11.138   9.220  71.091  0.00  0.00    +0.059 C 
ATOM     17  N   UNL     1     -12.476   8.646  71.586  0.00  0.00    -0.274 NA
ATOM     18  C   UNL     1     -11.722   9.929  71.503  0.00  0.00    +0.059 C 
ATOM     19  C   UNL     1     -13.104  10.801  71.596  0.00  0.00    +0.016 C 
ATOM     20  C   UNL     1     -12.241  11.631  70.748  0.00  0.00    +0.003 C 
ATOM     21  C   UNL     1     -11.775   7.539  72.115  0.00  0.00    +0.090 C 
ATOM     22  C   UNL     1     -11.912  10.364  70.105  0.00  0.00    +0.016 C 
ATOM     23  C   UNL     1     -11.656   9.788  69.800  0.00  0.00    +0.038 C 
ENDBRANCH   2  14
TORSDOF 2
ENDMDL
