MODEL 1
REMARK VINA RESULT:      -5.0      0.000      0.000
REMARK  Name = 
REMARK  4 active torsions:
REMARK  status: ('A' for Active; 'I' for Inactive)
REMARK    1  A    between atoms: C_2  and  O_3
REMARK    2  A    between atoms: C_2  and  C_7
REMARK    3  A    between atoms: O_3  and  C_4
REMARK    4  A    between atoms: C_4  and  C_5
REMARK                            x       y       z     vdW  Elec       q    Type
REMARK                         _______ _______ _______ _____ _____    ______ ____
ROOT
ATOM      1  C   UNL     1     -11.137  14.730  65.319  0.00  0.00    +0.114 A 
ATOM      2  C   UNL     1     -10.792  16.068  65.284  0.00  0.00    +0.202 A 
ATOM      3  O   UNL     1     -11.264  16.818  64.204  0.00  0.00    -0.286 OA
ATOM      4  C   UNL     1      -9.654  16.459  65.979  0.00  0.00    +0.042 A 
ATOM      5  C   UNL     1      -8.986  15.567  66.805  0.00  0.00    +0.003 A 
ATOM      6  C   UNL     1      -9.169  14.221  66.512  0.00  0.00    +0.000 A 
ATOM      7  C   UNL     1     -10.466  13.862  66.171  0.00  0.00    +0.010 A 
ENDROOT
BRANCH   1   9
ATOM      8  O   UNL     1     -13.347  13.976  65.349  0.00  0.00    -0.245 OA
ATOM      9  C   UNL     1     -12.322  14.195  64.644  0.00  0.00    +0.344 C 
BRANCH   9  10
ATOM     10  O   UNL     1     -12.231  13.435  63.474  0.00  0.00    -0.442 OA
BRANCH  10  11
ATOM     11  C   UNL     1     -12.458  12.027  63.492  0.00  0.00    +0.244 C 
BRANCH  11  12
ATOM     12  C   UNL     1     -11.126  11.312  63.619  0.00  0.00    +0.229 C 
ATOM     13  O   UNL     1     -10.070  12.047  63.114  0.00  0.00    -0.216 OA
ENDBRANCH  11  12
ENDBRANCH  10  11
ENDBRANCH   9  10
ENDBRANCH   1   9
TORSDOF 4
ENDMDL
MODEL 2
REMARK VINA RESULT:      -4.8      2.366      4.782
REMARK  Name = 
REMARK  4 active torsions:
REMARK  status: ('A' for Active; 'I' for Inactive)
REMARK    1  A    between atoms: C_2  and  O_3
REMARK    2  A    between atoms: C_2  and  C_7
REMARK    3  A    between atoms: O_3  and  C_4
REMARK    4  A    between atoms: C_4  and  C_5
REMARK                            x       y       z     vdW  Elec       q    Type
REMARK                         _______ _______ _______ _____ _____    ______ ____
ROOT
ATOM      1  C   UNL     1     -10.936  14.796  65.626  0.00  0.00    +0.114 A 
ATOM      2  C   UNL     1     -11.640  14.437  66.760  0.00  0.00    +0.202 A 
ATOM      3  O   UNL     1     -11.661  15.355  67.812  0.00  0.00    -0.286 OA
ATOM      4  C   UNL     1     -11.838  13.081  66.993  0.00  0.00    +0.042 A 
ATOM      5  C   UNL     1     -11.481  12.137  66.041  0.00  0.00    +0.003 A 
ATOM      6  C   UNL     1     -10.498  12.532  65.141  0.00  0.00    +0.000 A 
ATOM      7  C   UNL     1     -10.609  13.835  64.677  0.00  0.00    +0.010 A 
ENDROOT
BRANCH   1   9
ATOM      8  O   UNL     1     -11.306  16.660  64.268  0.00  0.00    -0.245 OA
ATOM      9  C   UNL     1     -10.677  16.190  65.258  0.00  0.00    +0.344 C 
BRANCH   9  10
ATOM     10  O   UNL     1      -9.462  16.821  65.544  0.00  0.00    -0.442 OA
BRANCH  10  11
ATOM     11  C   UNL     1      -9.313  17.638  66.703  0.00  0.00    +0.244 C 
BRANCH  11  12
ATOM     12  C   UNL     1     -10.104  18.919  66.512  0.00  0.00    +0.229 C 
ATOM     13  O   UNL     1     -11.078  19.098  67.477  0.00  0.00    -0.216 OA
ENDBRANCH  11  12
ENDBRANCH  10  11
ENDBRANCH   9  10
ENDBRANCH   1   9
TORSDOF 4
ENDMDL
MODEL 3
REMARK VINA RESULT:      -4.8      2.548      5.305
REMARK  Name = 
REMARK  4 active torsions:
REMARK  status: ('A' for Active; 'I' for Inactive)
REMARK    1  A    between atoms: C_2  and  O_3
REMARK    2  A    between atoms: C_2  and  C_7
REMARK    3  A    between atoms: O_3  and  C_4
REMARK    4  A    between atoms: C_4  and  C_5
REMARK                            x       y       z     vdW  Elec       q    Type
REMARK                         _______ _______ _______ _____ _____    ______ ____
ROOT
ATOM      1  C   UNL     1     -10.839  15.618  65.898  0.00  0.00    +0.114 A 
ATOM      2  C   UNL     1     -11.409  15.426  64.654  0.00  0.00    +0.202 A 
ATOM      3  O   UNL     1     -11.625  16.563  63.872  0.00  0.00    -0.286 OA
ATOM      4  C   UNL     1     -12.164  14.275  64.461  0.00  0.00    +0.042 A 
ATOM      5  C   UNL     1     -12.207  13.284  65.431  0.00  0.00    +0.003 A 
ATOM      6  C   UNL     1     -11.923  13.697  66.728  0.00  0.00    +0.000 A 
ATOM      7  C   UNL     1     -10.876  14.602  66.844  0.00  0.00    +0.010 A 
ENDROOT
BRANCH   1   9
ATOM      8  O   UNL     1      -8.807  16.768  65.825  0.00  0.00    -0.245 OA
ATOM      9  C   UNL     1     -10.006  16.779  66.222  0.00  0.00    +0.344 C 
BRANCH   9  10
ATOM     10  O   UNL     1     -10.255  17.584  67.337  0.00  0.00    -0.442 OA
BRANCH  10  11
ATOM     11  C   UNL     1     -10.589  18.963  67.189  0.00  0.00    +0.244 C 
BRANCH  11  12
ATOM     12  C   UNL     1      -9.894  19.762  68.275  0.00  0.00    +0.229 C 
ATOM     13  O   UNL     1      -8.642  19.268  68.588  0.00  0.00    -0.216 OA
ENDBRANCH  11  12
ENDBRANCH  10  11
ENDBRANCH   9  10
ENDBRANCH   1   9
TORSDOF 4
ENDMDL
MODEL 4
REMARK VINA RESULT:      -4.7      3.274      4.782
REMARK  Name = 
REMARK  4 active torsions:
REMARK  status: ('A' for Active; 'I' for Inactive)
REMARK    1  A    between atoms: C_2  and  O_3
REMARK    2  A    between atoms: C_2  and  C_7
REMARK    3  A    between atoms: O_3  and  C_4
REMARK    4  A    between atoms: C_4  and  C_5
REMARK                            x       y       z     vdW  Elec       q    Type
REMARK                         _______ _______ _______ _____ _____    ______ ____
ROOT
ATOM      1  C   UNL     1     -10.009  17.911  67.731  0.00  0.00    +0.114 A 
ATOM      2  C   UNL     1      -8.671  17.937  68.079  0.00  0.00    +0.202 A 
ATOM      3  O   UNL     1      -8.227  16.954  68.966  0.00  0.00    -0.286 OA
ATOM      4  C   UNL     1      -7.998  19.147  67.961  0.00  0.00    +0.042 A 
ATOM      5  C   UNL     1      -8.606  20.242  67.364  0.00  0.00    +0.003 A 
ATOM      6  C   UNL     1      -9.996  20.241  67.377  0.00  0.00    +0.000 A 
ATOM      7  C   UNL     1     -10.588  19.014  67.115  0.00  0.00    +0.010 A 
ENDROOT
BRANCH   1   9
ATOM      8  O   UNL     1     -11.561  16.537  68.807  0.00  0.00    -0.245 OA
ATOM      9  C   UNL     1     -10.824  16.696  67.793  0.00  0.00    +0.344 C 
BRANCH   9  10
ATOM     10  O   UNL     1     -10.454  15.518  67.136  0.00  0.00    -0.442 OA
BRANCH  10  11
ATOM     11  C   UNL     1      -9.971  15.545  65.794  0.00  0.00    +0.244 C 
BRANCH  11  12
ATOM     12  C   UNL     1     -11.150  15.629  64.843  0.00  0.00    +0.229 C 
ATOM     13  O   UNL     1     -11.273  16.869  64.247  0.00  0.00    -0.216 OA
ENDBRANCH  11  12
ENDBRANCH  10  11
ENDBRANCH   9  10
ENDBRANCH   1   9
TORSDOF 4
ENDMDL
MODEL 5
REMARK VINA RESULT:      -4.7      1.635      4.164
REMARK  Name = 
REMARK  4 active torsions:
REMARK  status: ('A' for Active; 'I' for Inactive)
REMARK    1  A    between atoms: C_2  and  O_3
REMARK    2  A    between atoms: C_2  and  C_7
REMARK    3  A    between atoms: O_3  and  C_4
REMARK    4  A    between atoms: C_4  and  C_5
REMARK                            x       y       z     vdW  Elec       q    Type
REMARK                         _______ _______ _______ _____ _____    ______ ____
ROOT
ATOM      1  C   UNL     1     -11.295  13.038  65.792  0.00  0.00    +0.114 A 
ATOM      2  C   UNL     1     -12.176  13.317  64.765  0.00  0.00    +0.202 A 
ATOM      3  O   UNL     1     -13.341  14.012  65.099  0.00  0.00    -0.286 OA
ATOM      4  C   UNL     1     -12.128  12.507  63.636  0.00  0.00    +0.042 A 
ATOM      5  C   UNL     1     -11.126  11.560  63.485  0.00  0.00    +0.003 A 
ATOM      6  C   UNL     1     -10.535  11.115  64.661  0.00  0.00    +0.000 A 
ATOM      7  C   UNL     1     -10.286  12.100  65.607  0.00  0.00    +0.010 A 
ENDROOT
BRANCH   1   9
ATOM      8  O   UNL     1     -11.896  13.416  68.017  0.00  0.00    -0.245 OA
ATOM      9  C   UNL     1     -11.232  13.827  67.024  0.00  0.00    +0.344 C 
BRANCH   9  10
ATOM     10  O   UNL     1     -10.967  15.200  67.015  0.00  0.00    -0.442 OA
BRANCH  10  11
ATOM     11  C   UNL     1     -10.020  15.760  66.107  0.00  0.00    +0.244 C 
BRANCH  11  12
ATOM     12  C   UNL     1     -10.601  17.023  65.499  0.00  0.00    +0.229 C 
ATOM     13  O   UNL     1     -11.249  16.794  64.301  0.00  0.00    -0.216 OA
ENDBRANCH  11  12
ENDBRANCH  10  11
ENDBRANCH   9  10
ENDBRANCH   1   9
TORSDOF 4
ENDMDL
MODEL 6
REMARK VINA RESULT:      -4.7      4.711      5.725
REMARK  Name = 
REMARK  4 active torsions:
REMARK  status: ('A' for Active; 'I' for Inactive)
REMARK    1  A    between atoms: C_2  and  O_3
REMARK    2  A    between atoms: C_2  and  C_7
REMARK    3  A    between atoms: O_3  and  C_4
REMARK    4  A    between atoms: C_4  and  C_5
REMARK                            x       y       z     vdW  Elec       q    Type
REMARK                         _______ _______ _______ _____ _____    ______ ____
ROOT
ATOM      1  C   UNL     1     -12.310  14.116  70.184  0.00  0.00    +0.114 A 
ATOM      2  C   UNL     1     -12.492  12.964  70.926  0.00  0.00    +0.202 A 
ATOM      3  O   UNL     1     -12.287  11.747  70.270  0.00  0.00    -0.286 OA
ATOM      4  C   UNL     1     -13.313  13.040  72.045  0.00  0.00    +0.042 A 
ATOM      5  C   UNL     1     -13.797  14.263  72.487  0.00  0.00    +0.003 A 
ATOM      6  C   UNL     1     -13.868  15.266  71.527  0.00  0.00    +0.000 A 
ATOM      7  C   UNL     1     -12.787  15.331  70.660  0.00  0.00    +0.010 A 
ENDROOT
BRANCH   1   9
ATOM      8  O   UNL     1     -10.295  14.649  69.132  0.00  0.00    -0.245 OA
ATOM      9  C   UNL     1     -11.456  14.171  68.996  0.00  0.00    +0.344 C 
BRANCH   9  10
ATOM     10  O   UNL     1     -11.985  14.253  67.703  0.00  0.00    -0.442 OA
BRANCH  10  11
ATOM     11  C   UNL     1     -11.896  13.151  66.801  0.00  0.00    +0.244 C 
BRANCH  11  12
ATOM     12  C   UNL     1     -12.406  13.583  65.439  0.00  0.00    +0.229 C 
ATOM     13  O   UNL     1     -13.148  12.603  64.808  0.00  0.00    -0.216 OA
ENDBRANCH  11  12
ENDBRANCH  10  11
ENDBRANCH   9  10
ENDBRANCH   1   9
TORSDOF 4
ENDMDL
MODEL 7
REMARK VINA RESULT:      -4.6      2.216      4.379
REMARK  Name = 
REMARK  4 active torsions:
REMARK  status: ('A' for Active; 'I' for Inactive)
REMARK    1  A    between atoms: C_2  and  O_3
REMARK    2  A    between atoms: C_2  and  C_7
REMARK    3  A    between atoms: O_3  and  C_4
REMARK    4  A    between atoms: C_4  and  C_5
REMARK                            x       y       z     vdW  Elec       q    Type
REMARK                         _______ _______ _______ _____ _____    ______ ____
ROOT
ATOM      1  C   UNL     1     -11.233  11.688  65.519  0.00  0.00    +0.114 A 
ATOM      2  C   UNL     1     -11.256  11.272  66.837  0.00  0.00    +0.202 A 
ATOM      3  O   UNL     1     -11.600  12.226  67.798  0.00  0.00    -0.286 OA
ATOM      4  C   UNL     1     -10.492  10.162  67.176  0.00  0.00    +0.042 A 
ATOM      5  C   UNL     1      -9.860   9.409  66.197  0.00  0.00    +0.003 A 
ATOM      6  C   UNL     1      -9.597  10.072  65.004  0.00  0.00    +0.000 A 
ATOM      7  C   UNL     1     -10.612  10.905  64.554  0.00  0.00    +0.010 A 
ENDROOT
BRANCH   1   9
ATOM      8  O   UNL     1     -13.224  12.635  64.748  0.00  0.00    -0.245 OA
ATOM      9  C   UNL     1     -12.008  12.831  65.031  0.00  0.00    +0.344 C 
BRANCH   9  10
ATOM     10  O   UNL     1     -11.410  13.906  64.366  0.00  0.00    -0.442 OA
BRANCH  10  11
ATOM     11  C   UNL     1     -10.413  14.702  65.005  0.00  0.00    +0.244 C 
BRANCH  11  12
ATOM     12  C   UNL     1     -10.907  16.133  65.101  0.00  0.00    +0.229 C 
ATOM     13  O   UNL     1     -11.550  16.559  63.954  0.00  0.00    -0.216 OA
ENDBRANCH  11  12
ENDBRANCH  10  11
ENDBRANCH   9  10
ENDBRANCH   1   9
TORSDOF 4
ENDMDL
MODEL 8
REMARK VINA RESULT:      -4.6      2.257      3.658
REMARK  Name = 
REMARK  4 active torsions:
REMARK  status: ('A' for Active; 'I' for Inactive)
REMARK    1  A    between atoms: C_2  and  O_3
REMARK    2  A    between atoms: C_2  and  C_7
REMARK    3  A    between atoms: O_3  and  C_4
REMARK    4  A    between atoms: C_4  and  C_5
REMARK                            x       y       z     vdW  Elec       q    Type
REMARK                         _______ _______ _______ _____ _____    ______ ____
ROOT
ATOM      1  C   UNL     1      -9.880  17.535  66.165  0.00  0.00    +0.114 A 
ATOM      2  C   UNL     1      -8.528  17.490  66.446  0.00  0.00    +0.202 A 
ATOM      3  O   UNL     1      -7.907  16.240  66.379  0.00  0.00    -0.286 OA
ATOM      4  C   UNL     1      -7.998  18.507  67.230  0.00  0.00    +0.042 A 
ATOM      5  C   UNL     1      -8.767  19.608  67.579  0.00  0.00    +0.003 A 
ATOM      6  C   UNL     1     -10.142  19.410  67.569  0.00  0.00    +0.000 A 
ATOM      7  C   UNL     1     -10.624  18.658  66.506  0.00  0.00    +0.010 A 
ENDROOT
BRANCH   1   9
ATOM      8  O   UNL     1     -11.220  16.948  64.344  0.00  0.00    -0.245 OA
ATOM      9  C   UNL     1     -10.555  16.534  65.336  0.00  0.00    +0.344 C 
BRANCH   9  10
ATOM     10  O   UNL     1     -10.957  15.295  65.845  0.00  0.00    -0.442 OA
BRANCH  10  11
ATOM     11  C   UNL     1     -10.821  14.104  65.073  0.00  0.00    +0.244 C 
BRANCH  11  12
ATOM     12  C   UNL     1     -12.200  13.566  64.742  0.00  0.00    +0.229 C 
ATOM     13  O   UNL     1     -12.628  13.922  63.478  0.00  0.00    -0.216 OA
ENDBRANCH  11  12
ENDBRANCH  10  11
ENDBRANCH   9  10
ENDBRANCH   1   9
TORSDOF 4
ENDMDL
MODEL 9
REMARK VINA RESULT:      -4.6      2.524      3.823
REMARK  Name = 
REMARK  4 active torsions:
REMARK  status: ('A' for Active; 'I' for Inactive)
REMARK    1  A    between atoms: C_2  and  O_3
REMARK    2  A    between atoms: C_2  and  C_7
REMARK    3  A    between atoms: O_3  and  C_4
REMARK    4  A    between atoms: C_4  and  C_5
REMARK                            x       y       z     vdW  Elec       q    Type
REMARK                         _______ _______ _______ _____ _____    ______ ____
ROOT
ATOM      1  C   UNL     1     -10.319  17.208  67.376  0.00  0.00    +0.114 A 
ATOM      2  C   UNL     1     -10.604  17.850  66.185  0.00  0.00    +0.202 A 
ATOM      3  O   UNL     1     -10.559  17.080  65.022  0.00  0.00    -0.286 OA
ATOM      4  C   UNL     1     -10.421  19.227  66.136  0.00  0.00    +0.042 A 
ATOM      5  C   UNL     1     -10.119  19.944  67.284  0.00  0.00    +0.003 A 
ATOM      6  C   UNL     1      -9.519  19.219  68.308  0.00  0.00    +0.000 A 
ATOM      7  C   UNL     1     -10.041  17.950  68.517  0.00  0.00    +0.010 A 
ENDROOT
BRANCH   1   9
ATOM      8  O   UNL     1      -9.490  15.025  67.335  0.00  0.00    -0.245 OA
ATOM      9  C   UNL     1     -10.488  15.765  67.563  0.00  0.00    +0.344 C 
BRANCH   9  10
ATOM     10  O   UNL     1     -11.733  15.140  67.437  0.00  0.00    -0.442 OA
BRANCH  10  11
ATOM     11  C   UNL     1     -11.852  13.853  66.834  0.00  0.00    +0.244 C 
BRANCH  11  12
ATOM     12  C   UNL     1     -12.379  14.014  65.420  0.00  0.00    +0.229 C 
ATOM     13  O   UNL     1     -13.162  12.950  65.014  0.00  0.00    -0.216 OA
ENDBRANCH  11  12
ENDBRANCH  10  11
ENDBRANCH   9  10
ENDBRANCH   1   9
TORSDOF 4
ENDMDL
