MODEL 1
REMARK VINA RESULT:      -8.1      0.000      0.000
REMARK  Name = 
REMARK  3 active torsions:
REMARK  status: ('A' for Active; 'I' for Inactive)
REMARK    1  A    between atoms: O_2  and  C_3
REMARK    2  A    between atoms: C_12  and  C_14
REMARK    3  A    between atoms: C_31  and  O_32
REMARK                            x       y       z     vdW  Elec       q    Type
REMARK                         _______ _______ _______ _____ _____    ______ ____
ROOT
ATOM      1  C   UNL     1     -10.826   6.406  73.262  0.00  0.00    +0.174 A 
ATOM      2  C   UNL     1      -9.609   6.877  73.739  0.00  0.00    +0.173 A 
ATOM      3  C   UNL     1      -9.015   7.949  73.108  0.00  0.00    +0.044 A 
ATOM      4  C   UNL     1      -9.568   8.524  71.995  0.00  0.00    +0.056 A 
ATOM      5  C   UNL     1     -10.875   8.188  71.669  0.00  0.00    +0.090 A 
ATOM      6  N   UNL     1     -11.523   8.922  70.731  0.00  0.00    -0.213 NA
ATOM      7  C   UNL     1     -10.807   9.728  69.916  0.00  0.00    +0.221 A 
ATOM      8  N   UNL     1      -9.464   9.548  69.916  0.00  0.00    -0.195 NA
ATOM      9  N   UNL     1     -11.412  10.858  69.269  0.00  0.00    -0.275 N 
ATOM     10  C   UNL     1     -12.078  11.799  70.112  0.00  0.00    +0.115 C 
ATOM     11  C   UNL     1     -11.908  13.230  69.769  0.00  0.00    +0.115 C 
ATOM     12  N   UNL     1     -10.835  13.544  68.873  0.00  0.00    -0.273 N 
ATOM     13  C   UNL     1     -11.171  14.303  67.697  0.00  0.00    +0.270 C 
ATOM     14  O   UNL     1     -11.485  13.574  66.704  0.00  0.00    -0.271 OA
ATOM     15  C   UNL     1      -9.839  12.497  68.644  0.00  0.00    +0.115 C 
ATOM     16  C   UNL     1     -10.669  11.336  68.104  0.00  0.00    +0.115 C 
ATOM     17  C   UNL     1      -8.806   9.111  71.014  0.00  0.00    +0.174 A 
ATOM     18  N   UNL     1      -7.406   9.293  71.189  0.00  0.00    -0.107 NA
ATOM     19  C   UNL     1     -11.519   7.144  72.321  0.00  0.00    +0.059 A 
ENDROOT
BRANCH  13  20
ATOM     20  C   UNL     1      -9.861  15.243  67.330  0.00  0.00    +0.284 C 
ATOM     21  O   UNL     1     -10.786  16.440  66.897  0.00  0.00    -0.463 OA
ATOM     22  C   UNL     1     -10.069  17.638  66.792  0.00  0.00    +0.173 A 
ATOM     23  C   UNL     1      -9.362  18.040  67.921  0.00  0.00    +0.172 A 
ATOM     24  C   UNL     1      -9.341  19.366  68.337  0.00  0.00    +0.040 A 
ATOM     25  C   UNL     1      -9.775  20.343  67.482  0.00  0.00    +0.003 A 
ATOM     26  C   UNL     1     -10.319  19.959  66.266  0.00  0.00    +0.003 A 
ATOM     27  O   UNL     1      -8.991  16.991  68.769  0.00  0.00    -0.468 OA
ATOM     28  C   UNL     1     -10.484  18.622  65.937  0.00  0.00    +0.040 A 
ATOM     29  C   UNL     1      -9.784  15.821  68.908  0.00  0.00    +0.258 C 
ENDBRANCH  13  20
BRANCH   1  31
ATOM     30  C   UNL     1     -11.466   4.459  73.249  0.00  0.00    +0.253 C 
ATOM     31  O   UNL     1     -11.108   5.041  73.382  0.00  0.00    -0.468 OA
ENDBRANCH   1  31
BRANCH   2  32
ATOM     32  O   UNL     1      -8.893   6.036  74.594  0.00  0.00    -0.468 OA
ATOM     33  C   UNL     1      -9.053   6.191  75.994  0.00  0.00    +0.253 C 
ENDBRANCH   2  32
TORSDOF 3
ENDMDL
MODEL 2
REMARK VINA RESULT:      -8.0      2.249      3.125
REMARK  Name = 
REMARK  3 active torsions:
REMARK  status: ('A' for Active; 'I' for Inactive)
REMARK    1  A    between atoms: O_2  and  C_3
REMARK    2  A    between atoms: C_12  and  C_14
REMARK    3  A    between atoms: C_31  and  O_32
REMARK                            x       y       z     vdW  Elec       q    Type
REMARK                         _______ _______ _______ _____ _____    ______ ____
ROOT
ATOM      1  C   UNL     1     -13.061   8.535  71.901  0.00  0.00    +0.174 A 
ATOM      2  C   UNL     1     -11.740   8.145  72.079  0.00  0.00    +0.173 A 
ATOM      3  C   UNL     1     -10.739   8.878  71.477  0.00  0.00    +0.044 A 
ATOM      4  C   UNL     1     -11.020   9.946  70.668  0.00  0.00    +0.056 A 
ATOM      5  C   UNL     1     -12.314  10.450  70.678  0.00  0.00    +0.090 A 
ATOM      6  N   UNL     1     -12.554  11.645  70.086  0.00  0.00    -0.213 NA
ATOM      7  C   UNL     1     -11.637  12.154  69.233  0.00  0.00    +0.221 A 
ATOM      8  N   UNL     1     -10.658  11.309  68.826  0.00  0.00    -0.195 NA
ATOM      9  N   UNL     1     -11.572  13.562  68.965  0.00  0.00    -0.275 N 
ATOM     10  C   UNL     1     -11.443  14.426  70.095  0.00  0.00    +0.115 C 
ATOM     11  C   UNL     1     -10.536  15.586  69.939  0.00  0.00    +0.115 C 
ATOM     12  N   UNL     1      -9.625  15.536  68.835  0.00  0.00    -0.273 N 
ATOM     13  C   UNL     1      -9.634  16.657  67.933  0.00  0.00    +0.270 C 
ATOM     14  O   UNL     1     -10.453  16.518  66.970  0.00  0.00    -0.271 OA
ATOM     15  C   UNL     1      -9.457  14.240  68.177  0.00  0.00    +0.115 C 
ATOM     16  C   UNL     1     -10.873  13.892  67.724  0.00  0.00    +0.115 C 
ATOM     17  C   UNL     1     -10.216  10.302  69.612  0.00  0.00    +0.174 A 
ATOM     18  N   UNL     1      -8.958   9.670  69.409  0.00  0.00    -0.107 NA
ATOM     19  C   UNL     1     -13.335   9.759  71.319  0.00  0.00    +0.059 A 
ENDROOT
BRANCH  13  20
ATOM     20  C   UNL     1      -8.095  16.837  67.357  0.00  0.00    +0.284 C 
ATOM     21  O   UNL     1      -8.292  18.389  67.188  0.00  0.00    -0.463 OA
ATOM     22  C   UNL     1      -7.070  19.049  67.005  0.00  0.00    +0.173 A 
ATOM     23  C   UNL     1      -6.104  18.852  67.985  0.00  0.00    +0.172 A 
ATOM     24  C   UNL     1      -5.319  19.897  68.460  0.00  0.00    +0.040 A 
ATOM     25  C   UNL     1      -5.285  21.077  67.767  0.00  0.00    +0.003 A 
ATOM     26  C   UNL     1      -6.119  21.219  66.668  0.00  0.00    +0.003 A 
ATOM     27  O   UNL     1      -6.230  17.645  68.682  0.00  0.00    -0.468 OA
ATOM     28  C   UNL     1      -7.017  20.225  66.307  0.00  0.00    +0.040 A 
ATOM     29  C   UNL     1      -7.495  17.042  68.915  0.00  0.00    +0.258 C 
ENDBRANCH  13  20
BRANCH   1  31
ATOM     30  C   UNL     1     -14.678   7.288  71.723  0.00  0.00    +0.253 C 
ATOM     31  O   UNL     1     -14.053   7.550  71.887  0.00  0.00    -0.468 OA
ENDBRANCH   1  31
BRANCH   2  32
ATOM     32  O   UNL     1     -11.518   6.852  72.559  0.00  0.00    -0.468 OA
ATOM     33  C   UNL     1     -10.579   6.663  73.604  0.00  0.00    +0.253 C 
ENDBRANCH   2  32
TORSDOF 3
ENDMDL
MODEL 3
REMARK VINA RESULT:      -7.6      5.856     12.433
REMARK  Name = 
REMARK  3 active torsions:
REMARK  status: ('A' for Active; 'I' for Inactive)
REMARK    1  A    between atoms: O_2  and  C_3
REMARK    2  A    between atoms: C_12  and  C_14
REMARK    3  A    between atoms: C_31  and  O_32
REMARK                            x       y       z     vdW  Elec       q    Type
REMARK                         _______ _______ _______ _____ _____    ______ ____
ROOT
ATOM      1  C   UNL     1      -4.659  21.133  61.875  0.00  0.00    +0.174 A 
ATOM      2  C   UNL     1      -4.146  19.852  61.722  0.00  0.00    +0.173 A 
ATOM      3  C   UNL     1      -4.493  18.880  62.637  0.00  0.00    +0.044 A 
ATOM      4  C   UNL     1      -5.285  19.162  63.717  0.00  0.00    +0.056 A 
ATOM      5  C   UNL     1      -5.959  20.375  63.733  0.00  0.00    +0.090 A 
ATOM      6  N   UNL     1      -6.932  20.570  64.656  0.00  0.00    -0.213 NA
ATOM      7  C   UNL     1      -7.003  19.743  65.722  0.00  0.00    +0.221 A 
ATOM      8  N   UNL     1      -5.934  18.936  65.933  0.00  0.00    -0.195 NA
ATOM      9  N   UNL     1      -8.230  19.565  66.445  0.00  0.00    -0.275 N 
ATOM     10  C   UNL     1      -9.373  19.172  65.684  0.00  0.00    +0.115 C 
ATOM     11  C   UNL     1     -10.274  18.177  66.310  0.00  0.00    +0.115 C 
ATOM     12  N   UNL     1      -9.743  17.455  67.428  0.00  0.00    -0.273 N 
ATOM     13  C   UNL     1     -10.514  17.479  68.643  0.00  0.00    +0.270 C 
ATOM     14  O   UNL     1     -10.210  18.446  69.411  0.00  0.00    -0.271 OA
ATOM     15  C   UNL     1      -8.297  17.534  67.637  0.00  0.00    +0.115 C 
ATOM     16  C   UNL     1      -8.046  19.031  67.794  0.00  0.00    +0.115 C 
ATOM     17  C   UNL     1      -5.167  18.493  64.911  0.00  0.00    +0.174 A 
ATOM     18  N   UNL     1      -4.318  17.358  65.030  0.00  0.00    -0.107 NA
ATOM     19  C   UNL     1      -5.668  21.357  62.793  0.00  0.00    +0.059 A 
ENDROOT
BRANCH  13  20
ATOM     20  C   UNL     1     -10.268  16.035  69.409  0.00  0.00    +0.284 C 
ATOM     21  O   UNL     1     -11.219  16.450  70.591  0.00  0.00    -0.463 OA
ATOM     22  C   UNL     1     -11.580  15.348  71.377  0.00  0.00    +0.173 A 
ATOM     23  C   UNL     1     -12.174  14.280  70.714  0.00  0.00    +0.172 A 
ATOM     24  C   UNL     1     -13.263  13.600  71.249  0.00  0.00    +0.040 A 
ATOM     25  C   UNL     1     -13.585  13.785  72.567  0.00  0.00    +0.003 A 
ATOM     26  C   UNL     1     -12.872  14.726  73.294  0.00  0.00    +0.003 A 
ATOM     27  O   UNL     1     -11.833  14.182  69.361  0.00  0.00    -0.468 OA
ATOM     28  C   UNL     1     -11.897  15.513  72.698  0.00  0.00    +0.040 A 
ATOM     29  C   UNL     1     -11.547  15.330  68.575  0.00  0.00    +0.258 C 
ENDBRANCH  13  20
BRANCH   1  31
ATOM     30  C   UNL     1      -3.707  22.892  61.424  0.00  0.00    +0.253 C 
ATOM     31  O   UNL     1      -3.882  22.218  61.455  0.00  0.00    -0.468 OA
ENDBRANCH   1  31
BRANCH   2  32
ATOM     32  O   UNL     1      -3.049  19.703  60.871  0.00  0.00    -0.468 OA
ATOM     33  C   UNL     1      -3.279  19.383  59.508  0.00  0.00    +0.253 C 
ENDBRANCH   2  32
TORSDOF 3
ENDMDL
MODEL 4
REMARK VINA RESULT:      -7.5      2.718      3.726
REMARK  Name = 
REMARK  3 active torsions:
REMARK  status: ('A' for Active; 'I' for Inactive)
REMARK    1  A    between atoms: O_2  and  C_3
REMARK    2  A    between atoms: C_12  and  C_14
REMARK    3  A    between atoms: C_31  and  O_32
REMARK                            x       y       z     vdW  Elec       q    Type
REMARK                         _______ _______ _______ _____ _____    ______ ____
ROOT
ATOM      1  C   UNL     1     -10.872   6.297  67.706  0.00  0.00    +0.174 A 
ATOM      2  C   UNL     1     -10.830   6.478  69.082  0.00  0.00    +0.173 A 
ATOM      3  C   UNL     1     -10.562   7.735  69.583  0.00  0.00    +0.044 A 
ATOM      4  C   UNL     1     -10.287   8.793  68.759  0.00  0.00    +0.056 A 
ATOM      5  C   UNL     1     -10.548   8.647  67.403  0.00  0.00    +0.090 A 
ATOM      6  N   UNL     1     -10.522   9.747  66.611  0.00  0.00    -0.213 NA
ATOM      7  C   UNL     1      -9.936  10.875  67.070  0.00  0.00    +0.221 A 
ATOM      8  N   UNL     1      -9.181  10.750  68.189  0.00  0.00    -0.195 NA
ATOM      9  N   UNL     1     -10.283  12.162  66.540  0.00  0.00    -0.275 N 
ATOM     10  C   UNL     1     -11.668  12.513  66.562  0.00  0.00    +0.115 C 
ATOM     11  C   UNL     1     -11.988  13.917  66.909  0.00  0.00    +0.115 C 
ATOM     12  N   UNL     1     -10.939  14.675  67.523  0.00  0.00    -0.273 N 
ATOM     13  C   UNL     1     -10.593  15.927  66.903  0.00  0.00    +0.270 C 
ATOM     14  O   UNL     1      -9.687  15.815  66.019  0.00  0.00    -0.271 OA
ATOM     15  C   UNL     1      -9.791  13.922  68.029  0.00  0.00    +0.115 C 
ATOM     16  C   UNL     1      -9.277  13.193  66.790  0.00  0.00    +0.115 C 
ATOM     17  C   UNL     1      -9.456   9.821  69.132  0.00  0.00    +0.174 A 
ATOM     18  N   UNL     1      -8.967   9.916  70.465  0.00  0.00    -0.107 NA
ATOM     19  C   UNL     1     -10.869   7.403  66.875  0.00  0.00    +0.059 A 
ENDROOT
BRANCH  13  20
ATOM     20  C   UNL     1     -10.100  16.949  68.106  0.00  0.00    +0.284 C 
ATOM     21  O   UNL     1      -8.642  17.010  67.516  0.00  0.00    -0.463 OA
ATOM     22  C   UNL     1      -7.905  18.066  68.067  0.00  0.00    +0.173 A 
ATOM     23  C   UNL     1      -8.458  19.337  67.952  0.00  0.00    +0.172 A 
ATOM     24  C   UNL     1      -7.685  20.446  67.625  0.00  0.00    +0.040 A 
ATOM     25  C   UNL     1      -6.321  20.354  67.696  0.00  0.00    +0.003 A 
ATOM     26  C   UNL     1      -5.758  19.122  67.993  0.00  0.00    +0.003 A 
ATOM     27  O   UNL     1      -9.853  19.348  67.839  0.00  0.00    -0.468 OA
ATOM     28  C   UNL     1      -6.541  17.988  68.153  0.00  0.00    +0.040 A 
ATOM     29  C   UNL     1     -10.562  18.293  67.206  0.00  0.00    +0.258 C 
ENDBRANCH  13  20
BRANCH   1  31
ATOM     30  C   UNL     1     -10.187   4.647  66.703  0.00  0.00    +0.253 C 
ATOM     31  O   UNL     1     -10.474   5.064  67.181  0.00  0.00    -0.468 OA
ENDBRANCH   1  31
BRANCH   2  32
ATOM     32  O   UNL     1     -10.712   5.331  69.871  0.00  0.00    -0.468 OA
ATOM     33  C   UNL     1     -10.529   5.480  71.269  0.00  0.00    +0.253 C 
ENDBRANCH   2  32
TORSDOF 3
ENDMDL
MODEL 5
REMARK VINA RESULT:      -7.4      1.563     10.782
REMARK  Name = 
REMARK  3 active torsions:
REMARK  status: ('A' for Active; 'I' for Inactive)
REMARK    1  A    between atoms: O_2  and  C_3
REMARK    2  A    between atoms: C_12  and  C_14
REMARK    3  A    between atoms: C_31  and  O_32
REMARK                            x       y       z     vdW  Elec       q    Type
REMARK                         _______ _______ _______ _____ _____    ______ ____
ROOT
ATOM      1  C   UNL     1     -10.142  16.553  67.193  0.00  0.00    +0.174 A 
ATOM      2  C   UNL     1     -10.350  17.034  68.479  0.00  0.00    +0.173 A 
ATOM      3  C   UNL     1     -10.691  16.147  69.478  0.00  0.00    +0.044 A 
ATOM      4  C   UNL     1     -10.881  14.815  69.220  0.00  0.00    +0.056 A 
ATOM      5  C   UNL     1     -10.459  14.322  67.993  0.00  0.00    +0.090 A 
ATOM      6  N   UNL     1     -10.405  12.980  67.812  0.00  0.00    -0.213 NA
ATOM      7  C   UNL     1     -11.056  12.172  68.678  0.00  0.00    +0.221 A 
ATOM      8  N   UNL     1     -11.937  12.772  69.517  0.00  0.00    -0.195 NA
ATOM      9  N   UNL     1     -10.665  10.803  68.856  0.00  0.00    -0.275 N 
ATOM     10  C   UNL     1      -9.298  10.565  69.194  0.00  0.00    +0.115 C 
ATOM     11  C   UNL     1      -9.039   9.501  70.192  0.00  0.00    +0.115 C 
ATOM     12  N   UNL     1     -10.164   9.072  70.968  0.00  0.00    -0.273 N 
ATOM     13  C   UNL     1     -10.450   7.662  70.974  0.00  0.00    +0.270 C 
ATOM     14  O   UNL     1     -11.243   7.308  70.046  0.00  0.00    -0.271 OA
ATOM     15  C   UNL     1     -11.354   9.923  70.931  0.00  0.00    +0.115 C 
ATOM     16  C   UNL     1     -11.708   9.965  69.447  0.00  0.00    +0.115 C 
ATOM     17  C   UNL     1     -11.764  14.045  69.938  0.00  0.00    +0.174 A 
ATOM     18  N   UNL     1     -12.408  14.562  71.095  0.00  0.00    -0.107 NA
ATOM     19  C   UNL     1     -10.061  15.189  66.983  0.00  0.00    +0.059 A 
ENDROOT
BRANCH  13  20
ATOM     20  C   UNL     1     -11.096   7.298  72.452  0.00  0.00    +0.284 C 
ATOM     21  O   UNL     1     -10.781   5.768  72.263  0.00  0.00    -0.463 OA
ATOM     22  C   UNL     1     -10.881   5.066  73.470  0.00  0.00    +0.173 A 
ATOM     23  C   UNL     1     -10.102   5.528  74.525  0.00  0.00    +0.172 A 
ATOM     24  C   UNL     1      -9.420   4.657  75.368  0.00  0.00    +0.040 A 
ATOM     25  C   UNL     1      -9.736   3.326  75.352  0.00  0.00    +0.003 A 
ATOM     26  C   UNL     1     -10.657   2.879  74.416  0.00  0.00    +0.003 A 
ATOM     27  O   UNL     1      -9.782   6.888  74.450  0.00  0.00    -0.468 OA
ATOM     28  C   UNL     1     -11.204   3.736  73.473  0.00  0.00    +0.040 A 
ATOM     29  C   UNL     1      -9.613   7.551  73.205  0.00  0.00    +0.258 C 
ENDBRANCH  13  20
BRANCH   1  31
ATOM     30  C   UNL     1     -10.586  17.516  65.440  0.00  0.00    +0.253 C 
ATOM     31  O   UNL     1     -10.458  17.380  66.111  0.00  0.00    -0.468 OA
ENDBRANCH   1  31
BRANCH   2  32
ATOM     32  O   UNL     1     -10.545  18.410  68.619  0.00  0.00    -0.468 OA
ATOM     33  C   UNL     1      -9.412  19.246  68.791  0.00  0.00    +0.253 C 
ENDBRANCH   2  32
TORSDOF 3
ENDMDL
MODEL 6
REMARK VINA RESULT:      -7.0      2.245      2.556
REMARK  Name = 
REMARK  3 active torsions:
REMARK  status: ('A' for Active; 'I' for Inactive)
REMARK    1  A    between atoms: O_2  and  C_3
REMARK    2  A    between atoms: C_12  and  C_14
REMARK    3  A    between atoms: C_31  and  O_32
REMARK                            x       y       z     vdW  Elec       q    Type
REMARK                         _______ _______ _______ _____ _____    ______ ____
ROOT
ATOM      1  C   UNL     1      -9.896   4.704  69.681  0.00  0.00    +0.174 A 
ATOM      2  C   UNL     1      -9.755   5.138  70.993  0.00  0.00    +0.173 A 
ATOM      3  C   UNL     1      -9.525   6.477  71.233  0.00  0.00    +0.044 A 
ATOM      4  C   UNL     1      -9.380   7.374  70.209  0.00  0.00    +0.056 A 
ATOM      5  C   UNL     1      -9.738   6.969  68.931  0.00  0.00    +0.090 A 
ATOM      6  N   UNL     1      -9.840   7.903  67.954  0.00  0.00    -0.213 NA
ATOM      7  C   UNL     1      -9.288   9.121  68.148  0.00  0.00    +0.221 A 
ATOM      8  N   UNL     1      -8.441   9.240  69.199  0.00  0.00    -0.195 NA
ATOM      9  N   UNL     1      -9.753  10.272  67.427  0.00  0.00    -0.275 N 
ATOM     10  C   UNL     1     -11.150  10.559  67.508  0.00  0.00    +0.115 C 
ATOM     11  C   UNL     1     -11.526  11.987  67.622  0.00  0.00    +0.115 C 
ATOM     12  N   UNL     1     -10.478  12.891  67.993  0.00  0.00    -0.273 N 
ATOM     13  C   UNL     1     -10.258  14.021  67.129  0.00  0.00    +0.270 C 
ATOM     14  O   UNL     1      -9.420  13.787  66.202  0.00  0.00    -0.271 OA
ATOM     15  C   UNL     1      -9.251  12.296  68.523  0.00  0.00    +0.115 C 
ATOM     16  C   UNL     1      -8.793  11.374  67.396  0.00  0.00    +0.115 C 
ATOM     17  C   UNL     1      -8.584   8.490  70.316  0.00  0.00    +0.174 A 
ATOM     18  N   UNL     1      -7.998   8.851  71.560  0.00  0.00    -0.107 NA
ATOM     19  C   UNL     1     -10.025   5.635  68.667  0.00  0.00    +0.059 A 
ENDROOT
BRANCH  13  20
ATOM     20  C   UNL     1      -9.733  15.269  68.078  0.00  0.00    +0.284 C 
ATOM     21  O   UNL     1      -9.400  16.147  66.815  0.00  0.00    -0.463 OA
ATOM     22  C   UNL     1      -9.202  17.491  67.156  0.00  0.00    +0.173 A 
ATOM     23  C   UNL     1     -10.238  18.117  67.841  0.00  0.00    +0.172 A 
ATOM     24  C   UNL     1     -10.638  19.414  67.538  0.00  0.00    +0.040 A 
ATOM     25  C   UNL     1      -9.830  20.198  66.760  0.00  0.00    +0.003 A 
ATOM     26  C   UNL     1      -8.688  19.630  66.215  0.00  0.00    +0.003 A 
ATOM     27  O   UNL     1     -11.047  17.246  68.579  0.00  0.00    -0.468 OA
ATOM     28  C   UNL     1      -8.392  18.287  66.393  0.00  0.00    +0.040 A 
ATOM     29  C   UNL     1     -11.287  15.910  68.161  0.00  0.00    +0.258 C 
ENDBRANCH  13  20
BRANCH   1  31
ATOM     30  C   UNL     1      -9.452   2.835  68.967  0.00  0.00    +0.253 C 
ATOM     31  O   UNL     1      -9.468   3.413  69.356  0.00  0.00    -0.468 OA
ENDBRANCH   1  31
BRANCH   2  32
ATOM     32  O   UNL     1      -9.508   4.164  71.963  0.00  0.00    -0.468 OA
ATOM     33  C   UNL     1     -10.491   3.922  72.955  0.00  0.00    +0.253 C 
ENDBRANCH   2  32
TORSDOF 3
ENDMDL
MODEL 7
REMARK VINA RESULT:      -6.9      4.346      5.233
REMARK  Name = 
REMARK  3 active torsions:
REMARK  status: ('A' for Active; 'I' for Inactive)
REMARK    1  A    between atoms: O_2  and  C_3
REMARK    2  A    between atoms: C_12  and  C_14
REMARK    3  A    between atoms: C_31  and  O_32
REMARK                            x       y       z     vdW  Elec       q    Type
REMARK                         _______ _______ _______ _____ _____    ______ ____
ROOT
ATOM      1  C   UNL     1      -8.468   5.315  66.261  0.00  0.00    +0.174 A 
ATOM      2  C   UNL     1      -7.449   5.703  65.400  0.00  0.00    +0.173 A 
ATOM      3  C   UNL     1      -7.418   7.005  64.945  0.00  0.00    +0.044 A 
ATOM      4  C   UNL     1      -8.395   7.905  65.279  0.00  0.00    +0.056 A 
ATOM      5  C   UNL     1      -9.271   7.567  66.302  0.00  0.00    +0.090 A 
ATOM      6  N   UNL     1     -10.077   8.529  66.815  0.00  0.00    -0.213 NA
ATOM      7  C   UNL     1     -10.251   9.678  66.126  0.00  0.00    +0.221 A 
ATOM      8  N   UNL     1      -9.817   9.684  64.842  0.00  0.00    -0.195 NA
ATOM      9  N   UNL     1     -10.656  10.886  66.786  0.00  0.00    -0.275 N 
ATOM     10  C   UNL     1      -9.855  11.316  67.888  0.00  0.00    +0.115 C 
ATOM     11  C   UNL     1      -9.611  12.772  68.000  0.00  0.00    +0.115 C 
ATOM     12  N   UNL     1      -9.888  13.554  66.831  0.00  0.00    -0.273 N 
ATOM     13  C   UNL     1     -10.778  14.673  66.994  0.00  0.00    +0.270 C 
ATOM     14  O   UNL     1     -11.999  14.374  66.807  0.00  0.00    -0.271 OA
ATOM     15  C   UNL     1     -10.071  12.823  65.577  0.00  0.00    +0.115 C 
ATOM     16  C   UNL     1     -11.234  11.883  65.886  0.00  0.00    +0.115 C 
ATOM     17  C   UNL     1      -8.769   8.928  64.442  0.00  0.00    +0.174 A 
ATOM     18  N   UNL     1      -8.042   9.199  63.251  0.00  0.00    -0.107 NA
ATOM     19  C   UNL     1      -9.292   6.277  66.816  0.00  0.00    +0.059 A 
ENDROOT
BRANCH  13  20
ATOM     20  C   UNL     1     -10.301  15.839  65.923  0.00  0.00    +0.284 C 
ATOM     21  O   UNL     1     -10.623  16.982  66.955  0.00  0.00    -0.463 OA
ATOM     22  C   UNL     1     -10.051  18.202  66.572  0.00  0.00    +0.173 A 
ATOM     23  C   UNL     1      -8.677  18.204  66.358  0.00  0.00    +0.172 A 
ATOM     24  C   UNL     1      -7.868  19.244  66.803  0.00  0.00    +0.040 A 
ATOM     25  C   UNL     1      -8.447  20.418  67.202  0.00  0.00    +0.003 A 
ATOM     26  C   UNL     1      -9.832  20.488  67.246  0.00  0.00    +0.003 A 
ATOM     27  O   UNL     1      -8.150  16.959  65.997  0.00  0.00    -0.468 OA
ATOM     28  C   UNL     1     -10.621  19.385  66.956  0.00  0.00    +0.040 A 
ATOM     29  C   UNL     1      -8.711  15.742  66.466  0.00  0.00    +0.258 C 
ENDBRANCH  13  20
BRANCH   1  31
ATOM     30  C   UNL     1      -9.412   3.498  66.178  0.00  0.00    +0.253 C 
ATOM     31  O   UNL     1      -8.924   3.995  66.204  0.00  0.00    -0.468 OA
ENDBRANCH   1  31
BRANCH   2  32
ATOM     32  O   UNL     1      -6.725   4.687  64.773  0.00  0.00    -0.468 OA
ATOM     33  C   UNL     1      -5.540   4.212  65.390  0.00  0.00    +0.253 C 
ENDBRANCH   2  32
TORSDOF 3
ENDMDL
MODEL 8
REMARK VINA RESULT:      -6.8      2.623     11.560
REMARK  Name = 
REMARK  3 active torsions:
REMARK  status: ('A' for Active; 'I' for Inactive)
REMARK    1  A    between atoms: O_2  and  C_3
REMARK    2  A    between atoms: C_12  and  C_14
REMARK    3  A    between atoms: C_31  and  O_32
REMARK                            x       y       z     vdW  Elec       q    Type
REMARK                         _______ _______ _______ _____ _____    ______ ____
ROOT
ATOM      1  C   UNL     1     -11.563  12.764  66.649  0.00  0.00    +0.174 A 
ATOM      2  C   UNL     1     -11.075  11.814  65.761  0.00  0.00    +0.173 A 
ATOM      3  C   UNL     1     -10.562  10.635  66.260  0.00  0.00    +0.044 A 
ATOM      4  C   UNL     1     -10.474  10.404  67.607  0.00  0.00    +0.056 A 
ATOM      5  C   UNL     1     -11.159  11.258  68.461  0.00  0.00    +0.090 A 
ATOM      6  N   UNL     1     -11.293  10.909  69.764  0.00  0.00    -0.213 NA
ATOM      7  C   UNL     1     -10.502   9.937  70.270  0.00  0.00    +0.221 A 
ATOM      8  N   UNL     1      -9.447   9.560  69.508  0.00  0.00    -0.195 NA
ATOM      9  N   UNL     1     -10.892   9.191  71.432  0.00  0.00    -0.275 N 
ATOM     10  C   UNL     1     -12.166   8.546  71.383  0.00  0.00    +0.115 C 
ATOM     11  C   UNL     1     -12.244   7.193  71.981  0.00  0.00    +0.115 C 
ATOM     12  N   UNL     1     -10.997   6.531  72.220  0.00  0.00    -0.273 N 
ATOM     13  C   UNL     1     -10.762   6.048  73.555  0.00  0.00    +0.270 C 
ATOM     14  O   UNL     1     -10.193   6.903  74.303  0.00  0.00    -0.271 OA
ATOM     15  C   UNL     1      -9.814   7.100  71.573  0.00  0.00    +0.115 C 
ATOM     16  C   UNL     1      -9.777   8.529  72.108  0.00  0.00    +0.115 C 
ATOM     17  C   UNL     1      -9.486   9.624  68.157  0.00  0.00    +0.174 A 
ATOM     18  N   UNL     1      -8.597   8.883  67.331  0.00  0.00    -0.107 NA
ATOM     19  C   UNL     1     -11.731  12.429  67.979  0.00  0.00    +0.059 A 
ENDROOT
BRANCH  13  20
ATOM     20  C   UNL     1      -9.834   4.686  73.428  0.00  0.00    +0.284 C 
ATOM     21  O   UNL     1     -10.143   4.283  74.917  0.00  0.00    -0.463 OA
ATOM     22  C   UNL     1      -9.794   2.952  75.177  0.00  0.00    +0.173 A 
ATOM     23  C   UNL     1     -10.365   1.988  74.354  0.00  0.00    +0.172 A 
ATOM     24  C   UNL     1     -10.850   0.786  74.860  0.00  0.00    +0.040 A 
ATOM     25  C   UNL     1     -10.511   0.411  76.132  0.00  0.00    +0.003 A 
ATOM     26  C   UNL     1      -9.779   1.298  76.907  0.00  0.00    +0.003 A 
ATOM     27  O   UNL     1     -10.726   2.456  73.086  0.00  0.00    -0.468 OA
ATOM     28  C   UNL     1      -9.446   2.561  76.442  0.00  0.00    +0.040 A 
ATOM     29  C   UNL     1     -11.148   3.795  72.873  0.00  0.00    +0.258 C 
ENDBRANCH  13  20
BRANCH   1  31
ATOM     30  C   UNL     1     -11.314  14.787  66.432  0.00  0.00    +0.253 C 
ATOM     31  O   UNL     1     -11.453  14.116  66.307  0.00  0.00    -0.468 OA
ENDBRANCH   1  31
BRANCH   2  32
ATOM     32  O   UNL     1     -10.810  12.238  64.457  0.00  0.00    -0.468 OA
ATOM     33  C   UNL     1     -11.857  12.200  63.501  0.00  0.00    +0.253 C 
ENDBRANCH   2  32
TORSDOF 3
ENDMDL
MODEL 9
REMARK VINA RESULT:      -6.7      3.138     10.819
REMARK  Name = 
REMARK  3 active torsions:
REMARK  status: ('A' for Active; 'I' for Inactive)
REMARK    1  A    between atoms: O_2  and  C_3
REMARK    2  A    between atoms: C_12  and  C_14
REMARK    3  A    between atoms: C_31  and  O_32
REMARK                            x       y       z     vdW  Elec       q    Type
REMARK                         _______ _______ _______ _____ _____    ______ ____
ROOT
ATOM      1  C   UNL     1      -9.065  18.936  66.479  0.00  0.00    +0.174 A 
ATOM      2  C   UNL     1      -7.783  18.605  66.059  0.00  0.00    +0.173 A 
ATOM      3  C   UNL     1      -7.356  17.300  66.182  0.00  0.00    +0.044 A 
ATOM      4  C   UNL     1      -8.145  16.338  66.754  0.00  0.00    +0.056 A 
ATOM      5  C   UNL     1      -9.485  16.632  66.962  0.00  0.00    +0.090 A 
ATOM      6  N   UNL     1     -10.332  15.625  67.289  0.00  0.00    -0.213 NA
ATOM      7  C   UNL     1      -9.822  14.451  67.721  0.00  0.00    +0.221 A 
ATOM      8  N   UNL     1      -8.507  14.448  68.049  0.00  0.00    -0.195 NA
ATOM      9  N   UNL     1     -10.570  13.231  67.615  0.00  0.00    -0.275 N 
ATOM     10  C   UNL     1     -11.056  12.887  66.316  0.00  0.00    +0.115 C 
ATOM     11  C   UNL     1     -10.988  11.456  65.943  0.00  0.00    +0.115 C 
ATOM     12  N   UNL     1     -10.138  10.630  66.747  0.00  0.00    -0.273 N 
ATOM     13  C   UNL     1     -10.731   9.451  67.322  0.00  0.00    +0.270 C 
ATOM     14  O   UNL     1     -11.239   9.655  68.469  0.00  0.00    -0.271 OA
ATOM     15  C   UNL     1      -9.196  11.317  67.631  0.00  0.00    +0.115 C 
ATOM     16  C   UNL     1     -10.103  12.174  68.511  0.00  0.00    +0.115 C 
ATOM     17  C   UNL     1      -7.621  15.270  67.442  0.00  0.00    +0.174 A 
ATOM     18  N   UNL     1      -6.220  15.027  67.455  0.00  0.00    -0.107 NA
ATOM     19  C   UNL     1      -9.957  17.929  66.798  0.00  0.00    +0.059 A 
ENDROOT
BRANCH  13  20
ATOM     20  C   UNL     1      -9.547   8.301  67.412  0.00  0.00    +0.284 C 
ATOM     21  O   UNL     1      -9.856   8.039  68.933  0.00  0.00    -0.463 OA
ATOM     22  C   UNL     1      -9.267   6.851  69.384  0.00  0.00    +0.173 A 
ATOM     23  C   UNL     1      -9.589   5.694  68.685  0.00  0.00    +0.172 A 
ATOM     24  C   UNL     1      -9.856   4.494  69.337  0.00  0.00    +0.040 A 
ATOM     25  C   UNL     1      -9.523   4.363  70.659  0.00  0.00    +0.003 A 
ATOM     26  C   UNL     1      -9.025   5.473  71.326  0.00  0.00    +0.003 A 
ATOM     27  O   UNL     1      -9.962   5.911  67.354  0.00  0.00    -0.468 OA
ATOM     28  C   UNL     1      -8.921   6.706  70.701  0.00  0.00    +0.040 A 
ATOM     29  C   UNL     1     -10.627   7.098  66.946  0.00  0.00    +0.258 C 
ENDBRANCH  13  20
BRANCH   1  31
ATOM     30  C   UNL     1      -9.584  20.681  67.421  0.00  0.00    +0.253 C 
ATOM     31  O   UNL     1      -9.291  20.218  66.990  0.00  0.00    -0.468 OA
ENDBRANCH   1  31
BRANCH   2  32
ATOM     32  O   UNL     1      -6.886  19.658  65.866  0.00  0.00    -0.468 OA
ATOM     33  C   UNL     1      -6.313  19.840  64.582  0.00  0.00    +0.253 C 
ENDBRANCH   2  32
TORSDOF 3
ENDMDL
