MODEL 1
REMARK VINA RESULT:      -6.7      0.000      0.000
REMARK  Name = 
REMARK  7 active torsions:
REMARK  status: ('A' for Active; 'I' for Inactive)
REMARK    1  A    between atoms: C_2  and  N_3
REMARK    2  A    between atoms: N_3  and  C_4
REMARK    3  A    between atoms: N_3  and  C_6
REMARK    4  A    between atoms: C_6  and  C_7
REMARK    5  A    between atoms: C_7  and  S_8
REMARK    6  A    between atoms: S_8  and  C_11
REMARK    7  A    between atoms: C_41  and  C_42
REMARK                            x       y       z     vdW  Elec       q    Type
REMARK                         _______ _______ _______ _____ _____    ______ ____
ROOT
ATOM      1  C   UNL     1     -11.441  13.255  69.957  0.00  0.00    +0.160 C 
ATOM      2  C   UNL     1      -9.979  13.729  69.247  0.00  0.00    +0.197 C 
ATOM      3  N   UNL     1     -10.414  13.430  67.780  0.00  0.00    -0.265 N 
ATOM      4  C   UNL     1      -9.561  12.387  67.262  0.00  0.00    +0.270 C 
ATOM      5  C   UNL     1      -8.160  12.221  67.670  0.00  0.00    +0.175 A 
ATOM      6  N   UNL     1      -7.823  12.665  68.900  0.00  0.00    -0.207 NA
ATOM      7  C   UNL     1      -6.580  13.183  68.903  0.00  0.00    +0.213 A 
ATOM      8  C   UNL     1      -6.192  13.878  70.141  0.00  0.00    +0.150 C 
ATOM      9  C   UNL     1      -4.862  14.532  70.069  0.00  0.00    +0.163 C 
ATOM     10  C   UNL     1      -4.812  16.008  70.340  0.00  0.00    +0.102 C 
ATOM     11  C   UNL     1      -3.535  16.492  69.385  0.00  0.00    +0.181 C 
ATOM     12  C   UNL     1      -4.419  16.812  68.063  0.00  0.00    +0.002 C 
ATOM     13  C   UNL     1      -3.702  17.719  67.392  0.00  0.00    -0.024 C 
ATOM     14  C   UNL     1      -4.091  18.967  68.077  0.00  0.00    -0.007 C 
ATOM     15  C   UNL     1      -5.164  18.672  68.834  0.00  0.00    -0.003 C 
ATOM     16  C   UNL     1      -6.382  18.435  68.060  0.00  0.00    +0.142 C 
ATOM     17  N   UNL     1      -7.500  19.209  68.619  0.00  0.00    -0.197 NA
ATOM     18  C   UNL     1      -8.050  20.143  67.675  0.00  0.00    +0.265 C 
ATOM     19  C   UNL     1      -8.397  19.470  66.410  0.00  0.00    +0.055 C 
ATOM     20  C   UNL     1      -8.505  18.139  66.538  0.00  0.00    -0.018 C 
ATOM     21  C   UNL     1      -9.472  17.865  67.774  0.00  0.00    +0.062 C 
ATOM     22  C   UNL     1      -9.947  16.245  67.430  0.00  0.00    +0.173 C 
ATOM     23  O   UNL     1      -9.232  15.813  68.712  0.00  0.00    -0.451 OA
ATOM     24  C   UNL     1     -10.769  18.412  66.969  0.00  0.00    +0.008 C 
ATOM     25  O   UNL     1      -7.992  21.391  67.788  0.00  0.00    -0.268 OA
ATOM     26  C   UNL     1      -3.067  17.598  66.088  0.00  0.00    +0.031 C 
ATOM     27  O   UNL     1      -3.388  17.839  70.064  0.00  0.00    -0.218 OA
ATOM     28  O   UNL     1      -3.938  13.868  70.535  0.00  0.00    -0.295 OA
ATOM     29  O   UNL     1      -6.018  12.707  67.819  0.00  0.00    -0.435 OA
ATOM     30  C   UNL     1      -6.934  12.190  67.014  0.00  0.00    +0.205 A 
ATOM     31  O   UNL     1      -9.756  12.181  66.023  0.00  0.00    -0.268 OA
ATOM     32  C   UNL     1     -11.774  13.652  67.603  0.00  0.00    +0.096 C 
ATOM     33  C   UNL     1     -10.385  15.288  69.347  0.00  0.00    +0.337 C 
ATOM     34  O   UNL     1     -10.595  15.591  70.569  0.00  0.00    -0.248 OA
ATOM     35  C   UNL     1     -12.383  13.944  68.892  0.00  0.00    +0.047 C 
ENDROOT
BRANCH   1  36
ATOM     36  S   UNL     1     -11.600  11.499  69.429  0.00  0.00    -0.008 S 
ATOM     37  O   UNL     1     -10.359  10.746  69.589  0.00  0.00    -0.173 OA
ATOM     38  O   UNL     1     -12.414  11.277  68.256  0.00  0.00    -0.173 OA
BRANCH  36  39
ATOM     39  C   UNL     1     -12.610  10.830  70.768  0.00  0.00    +0.168 C 
BRANCH  39  40
ATOM     40  C   UNL     1     -12.313   9.355  70.970  0.00  0.00    +0.098 C 
BRANCH  40  41
ATOM     41  N   UNL     1     -12.933   8.824  72.169  0.00  0.00    -0.271 NA
BRANCH  41  43
ATOM     42  C   UNL     1     -14.733   7.851  71.792  0.00  0.00    +0.019 C 
ATOM     43  C   UNL     1     -14.241   8.278  71.919  0.00  0.00    +0.072 C 
ENDBRANCH  41  43
BRANCH  41  44
ATOM     44  C   UNL     1     -12.079   7.703  72.563  0.00  0.00    +0.072 C 
ATOM     45  C   UNL     1     -10.623   8.076  72.553  0.00  0.00    +0.019 C 
ENDBRANCH  41  44
ENDBRANCH  40  41
ENDBRANCH  39  40
ENDBRANCH  36  39
ENDBRANCH   1  36
BRANCH  22  46
ATOM     46  C   UNL     1      -8.789  15.900  66.370  0.00  0.00    +0.041 C 
ATOM     47  C   UNL     1      -9.444  15.571  65.112  0.00  0.00    +0.004 C 
ATOM     48  C   UNL     1      -7.484  15.845  66.573  0.00  0.00    +0.004 C 
ENDBRANCH  22  46
TORSDOF 7
ENDMDL
MODEL 2
REMARK VINA RESULT:      -6.3      4.827     10.840
REMARK  Name = 
REMARK  7 active torsions:
REMARK  status: ('A' for Active; 'I' for Inactive)
REMARK    1  A    between atoms: C_2  and  N_3
REMARK    2  A    between atoms: N_3  and  C_4
REMARK    3  A    between atoms: N_3  and  C_6
REMARK    4  A    between atoms: C_6  and  C_7
REMARK    5  A    between atoms: C_7  and  S_8
REMARK    6  A    between atoms: S_8  and  C_11
REMARK    7  A    between atoms: C_41  and  C_42
REMARK                            x       y       z     vdW  Elec       q    Type
REMARK                         _______ _______ _______ _____ _____    ______ ____
ROOT
ATOM      1  C   UNL     1      -8.181  10.950  68.124  0.00  0.00    +0.160 C 
ATOM      2  C   UNL     1      -8.608   9.395  68.638  0.00  0.00    +0.197 C 
ATOM      3  N   UNL     1      -8.021   8.654  67.397  0.00  0.00    -0.265 N 
ATOM      4  C   UNL     1      -9.108   8.004  66.705  0.00  0.00    +0.270 C 
ATOM      5  C   UNL     1     -10.295   7.477  67.392  0.00  0.00    +0.175 A 
ATOM      6  N   UNL     1     -10.640   8.065  68.557  0.00  0.00    -0.207 NA
ATOM      7  C   UNL     1     -11.132   7.163  69.427  0.00  0.00    +0.213 A 
ATOM      8  C   UNL     1     -11.349   7.662  70.795  0.00  0.00    +0.150 C 
ATOM      9  C   UNL     1     -11.783   6.616  71.753  0.00  0.00    +0.163 C 
ATOM     10  C   UNL     1     -10.931   6.411  72.972  0.00  0.00    +0.102 C 
ATOM     11  C   UNL     1     -11.145   4.786  73.275  0.00  0.00    +0.181 C 
ATOM     12  C   UNL     1      -9.897   4.276  72.374  0.00  0.00    +0.002 C 
ATOM     13  C   UNL     1      -9.552   3.103  72.915  0.00  0.00    -0.024 C 
ATOM     14  C   UNL     1      -8.696   3.536  74.036  0.00  0.00    -0.007 C 
ATOM     15  C   UNL     1      -8.426   4.839  73.835  0.00  0.00    -0.003 C 
ATOM     16  C   UNL     1      -7.506   5.083  72.724  0.00  0.00    +0.142 C 
ATOM     17  N   UNL     1      -6.433   5.997  73.143  0.00  0.00    -0.197 NA
ATOM     18  C   UNL     1      -5.130   5.403  73.031  0.00  0.00    +0.265 C 
ATOM     19  C   UNL     1      -4.916   4.852  71.680  0.00  0.00    +0.055 C 
ATOM     20  C   UNL     1      -5.767   5.352  70.771  0.00  0.00    -0.018 C 
ATOM     21  C   UNL     1      -5.716   6.939  70.906  0.00  0.00    +0.062 C 
ATOM     22  C   UNL     1      -6.354   7.390  69.370  0.00  0.00    +0.173 C 
ATOM     23  O   UNL     1      -7.550   8.005  70.100  0.00  0.00    -0.451 OA
ATOM     24  C   UNL     1      -4.214   7.011  70.299  0.00  0.00    +0.008 C 
ATOM     25  O   UNL     1      -4.381   5.134  74.001  0.00  0.00    -0.268 OA
ATOM     26  C   UNL     1      -9.618   1.772  72.328  0.00  0.00    +0.031 C 
ATOM     27  O   UNL     1     -10.582   4.856  74.681  0.00  0.00    -0.218 OA
ATOM     28  O   UNL     1     -12.999   6.554  71.929  0.00  0.00    -0.295 OA
ATOM     29  O   UNL     1     -11.459   6.131  68.689  0.00  0.00    -0.435 OA
ATOM     30  C   UNL     1     -10.916   6.236  67.485  0.00  0.00    +0.205 A 
ATOM     31  O   UNL     1      -8.697   7.260  65.760  0.00  0.00    -0.268 OA
ATOM     32  C   UNL     1      -6.903   9.312  66.901  0.00  0.00    +0.096 C 
ATOM     33  C   UNL     1      -7.338   9.325  69.632  0.00  0.00    +0.337 C 
ATOM     34  O   UNL     1      -7.408  10.284  70.471  0.00  0.00    -0.248 OA
ATOM     35  C   UNL     1      -6.735  10.572  67.611  0.00  0.00    +0.047 C 
ENDROOT
BRANCH   1  36
ATOM     36  S   UNL     1      -9.058  11.103  66.514  0.00  0.00    -0.008 S 
ATOM     37  O   UNL     1     -10.426  10.594  66.565  0.00  0.00    -0.173 OA
ATOM     38  O   UNL     1      -8.251  10.845  65.343  0.00  0.00    -0.173 OA
BRANCH  36  39
ATOM     39  C   UNL     1      -9.333  12.886  66.442  0.00  0.00    +0.168 C 
BRANCH  39  40
ATOM     40  C   UNL     1     -10.761  13.187  66.025  0.00  0.00    +0.098 C 
BRANCH  40  41
ATOM     41  N   UNL     1     -10.867  13.529  64.619  0.00  0.00    -0.271 NA
BRANCH  41  43
ATOM     42  C   UNL     1     -12.024  12.229  63.478  0.00  0.00    +0.019 C 
ATOM     43  C   UNL     1     -11.570  12.530  63.858  0.00  0.00    +0.072 C 
ENDBRANCH  41  43
BRANCH  41  44
ATOM     44  C   UNL     1     -11.694  14.735  64.593  0.00  0.00    +0.072 C 
ATOM     45  C   UNL     1     -10.910  15.962  64.964  0.00  0.00    +0.019 C 
ENDBRANCH  41  44
ENDBRANCH  40  41
ENDBRANCH  39  40
ENDBRANCH  36  39
ENDBRANCH   1  36
BRANCH  22  46
ATOM     46  C   UNL     1      -7.001   5.972  68.978  0.00  0.00    +0.041 C 
ATOM     47  C   UNL     1      -6.253   5.460  67.840  0.00  0.00    +0.004 C 
ATOM     48  C   UNL     1      -8.054   5.378  69.514  0.00  0.00    +0.004 C 
ENDBRANCH  22  46
TORSDOF 7
ENDMDL
MODEL 3
REMARK VINA RESULT:      -6.3      2.662      9.038
REMARK  Name = 
REMARK  7 active torsions:
REMARK  status: ('A' for Active; 'I' for Inactive)
REMARK    1  A    between atoms: C_2  and  N_3
REMARK    2  A    between atoms: N_3  and  C_4
REMARK    3  A    between atoms: N_3  and  C_6
REMARK    4  A    between atoms: C_6  and  C_7
REMARK    5  A    between atoms: C_7  and  S_8
REMARK    6  A    between atoms: S_8  and  C_11
REMARK    7  A    between atoms: C_41  and  C_42
REMARK                            x       y       z     vdW  Elec       q    Type
REMARK                         _______ _______ _______ _____ _____    ______ ____
ROOT
ATOM      1  C   UNL     1      -8.422  15.964  68.656  0.00  0.00    +0.160 C 
ATOM      2  C   UNL     1      -8.991  14.388  68.417  0.00  0.00    +0.197 C 
ATOM      3  N   UNL     1      -8.750  14.368  66.876  0.00  0.00    -0.265 N 
ATOM      4  C   UNL     1     -10.028  14.218  66.224  0.00  0.00    +0.270 C 
ATOM      5  C   UNL     1     -11.145  13.466  66.811  0.00  0.00    +0.175 A 
ATOM      6  N   UNL     1     -11.188  13.384  68.158  0.00  0.00    -0.207 NA
ATOM      7  C   UNL     1     -11.656  12.185  68.554  0.00  0.00    +0.213 A 
ATOM      8  C   UNL     1     -11.551  11.916  69.998  0.00  0.00    +0.150 C 
ATOM      9  C   UNL     1     -11.970  10.547  70.385  0.00  0.00    +0.163 C 
ATOM     10  C   UNL     1     -10.963   9.704  71.111  0.00  0.00    +0.102 C 
ATOM     11  C   UNL     1     -11.372   8.168  70.612  0.00  0.00    +0.181 C 
ATOM     12  C   UNL     1     -10.393   8.140  69.319  0.00  0.00    +0.002 C 
ATOM     13  C   UNL     1     -10.147   6.842  69.115  0.00  0.00    -0.024 C 
ATOM     14  C   UNL     1      -9.052   6.596  70.073  0.00  0.00    -0.007 C 
ATOM     15  C   UNL     1      -8.622   7.802  70.486  0.00  0.00    -0.003 C 
ATOM     16  C   UNL     1      -7.882   8.542  69.464  0.00  0.00    +0.142 C 
ATOM     17  N   UNL     1      -6.624   9.060  70.022  0.00  0.00    -0.197 NA
ATOM     18  C   UNL     1      -5.468   8.551  69.336  0.00  0.00    +0.265 C 
ATOM     19  C   UNL     1      -5.581   8.767  67.882  0.00  0.00    +0.055 C 
ATOM     20  C   UNL     1      -6.488   9.701  67.561  0.00  0.00    -0.018 C 
ATOM     21  C   UNL     1      -6.168  10.987  68.445  0.00  0.00    +0.062 C 
ATOM     22  C   UNL     1      -6.984  12.194  67.525  0.00  0.00    +0.173 C 
ATOM     23  O   UNL     1      -7.925  12.397  68.715  0.00  0.00    -0.451 OA
ATOM     24  C   UNL     1      -4.801  11.294  67.628  0.00  0.00    +0.008 C 
ATOM     25  O   UNL     1      -4.613   7.786  69.845  0.00  0.00    -0.268 OA
ATOM     26  C   UNL     1     -10.520   6.009  67.980  0.00  0.00    +0.031 C 
ATOM     27  O   UNL     1     -10.569   7.477  71.697  0.00  0.00    -0.218 OA
ATOM     28  O   UNL     1     -13.132  10.458  70.780  0.00  0.00    -0.295 OA
ATOM     29  O   UNL     1     -12.262  11.699  67.501  0.00  0.00    -0.435 OA
ATOM     30  C   UNL     1     -11.927  12.384  66.418  0.00  0.00    +0.205 A 
ATOM     31  O   UNL     1      -9.909  14.050  64.969  0.00  0.00    -0.268 OA
ATOM     32  C   UNL     1      -7.647  15.137  66.529  0.00  0.00    +0.096 C 
ATOM     33  C   UNL     1      -7.594  13.759  68.926  0.00  0.00    +0.337 C 
ATOM     34  O   UNL     1      -7.367  14.150  70.120  0.00  0.00    -0.248 OA
ATOM     35  C   UNL     1      -7.164  15.841  67.709  0.00  0.00    +0.047 C 
ENDROOT
BRANCH   1  36
ATOM     36  S   UNL     1      -9.530  16.966  67.582  0.00  0.00    -0.008 S 
ATOM     37  O   UNL     1     -10.945  16.673  67.800  0.00  0.00    -0.173 OA
ATOM     38  O   UNL     1      -9.054  17.184  66.235  0.00  0.00    -0.173 OA
BRANCH  36  39
ATOM     39  C   UNL     1      -9.370  18.593  68.347  0.00  0.00    +0.168 C 
BRANCH  39  40
ATOM     40  C   UNL     1      -8.590  19.530  67.443  0.00  0.00    +0.098 C 
BRANCH  40  41
ATOM     41  N   UNL     1      -7.172  19.544  67.751  0.00  0.00    -0.271 NA
BRANCH  41  43
ATOM     42  C   UNL     1      -6.243  21.226  66.953  0.00  0.00    +0.019 C 
ATOM     43  C   UNL     1      -6.527  20.761  67.332  0.00  0.00    +0.072 C 
ENDBRANCH  41  43
BRANCH  41  44
ATOM     44  C   UNL     1      -7.111  19.518  69.212  0.00  0.00    +0.072 C 
ATOM     45  C   UNL     1      -5.922  18.747  69.711  0.00  0.00    +0.019 C 
ENDBRANCH  41  44
ENDBRANCH  40  41
ENDBRANCH  39  40
ENDBRANCH  36  39
ENDBRANCH   1  36
BRANCH  22  46
ATOM     46  C   UNL     1      -7.902  11.212  66.645  0.00  0.00    +0.041 C 
ATOM     47  C   UNL     1      -7.343  11.194  65.301  0.00  0.00    +0.004 C 
ATOM     48  C   UNL     1      -9.002  10.576  67.009  0.00  0.00    +0.004 C 
ENDBRANCH  22  46
TORSDOF 7
ENDMDL
MODEL 4
REMARK VINA RESULT:      -6.1      5.404      9.011
REMARK  Name = 
REMARK  7 active torsions:
REMARK  status: ('A' for Active; 'I' for Inactive)
REMARK    1  A    between atoms: C_2  and  N_3
REMARK    2  A    between atoms: N_3  and  C_4
REMARK    3  A    between atoms: N_3  and  C_6
REMARK    4  A    between atoms: C_6  and  C_7
REMARK    5  A    between atoms: C_7  and  S_8
REMARK    6  A    between atoms: S_8  and  C_11
REMARK    7  A    between atoms: C_41  and  C_42
REMARK                            x       y       z     vdW  Elec       q    Type
REMARK                         _______ _______ _______ _____ _____    ______ ____
ROOT
ATOM      1  C   UNL     1     -10.178   6.798  70.408  0.00  0.00    +0.160 C 
ATOM      2  C   UNL     1      -9.353   7.637  69.191  0.00  0.00    +0.197 C 
ATOM      3  N   UNL     1      -7.932   7.445  69.805  0.00  0.00    -0.265 N 
ATOM      4  C   UNL     1      -7.408   8.748  70.138  0.00  0.00    +0.270 C 
ATOM      5  C   UNL     1      -7.730   9.962  69.375  0.00  0.00    +0.175 A 
ATOM      6  N   UNL     1      -8.913   9.980  68.725  0.00  0.00    -0.207 NA
ATOM      7  C   UNL     1      -8.811  10.637  67.554  0.00  0.00    +0.213 A 
ATOM      8  C   UNL     1      -9.987  10.541  66.675  0.00  0.00    +0.150 C 
ATOM      9  C   UNL     1      -9.799  11.179  65.349  0.00  0.00    +0.163 C 
ATOM     10  C   UNL     1      -9.998  10.312  64.139  0.00  0.00    +0.102 C 
ATOM     11  C   UNL     1      -8.940  10.994  63.047  0.00  0.00    +0.181 C 
ATOM     12  C   UNL     1      -7.666  10.071  63.441  0.00  0.00    +0.002 C 
ATOM     13  C   UNL     1      -6.909  10.058  62.339  0.00  0.00    -0.024 C 
ATOM     14  C   UNL     1      -7.560   8.996  61.548  0.00  0.00    -0.007 C 
ATOM     15  C   UNL     1      -8.399   8.353  62.381  0.00  0.00    -0.003 C 
ATOM     16  C   UNL     1      -7.717   7.525  63.375  0.00  0.00    +0.142 C 
ATOM     17  N   UNL     1      -8.313   6.181  63.414  0.00  0.00    -0.197 NA
ATOM     18  C   UNL     1      -7.365   5.150  63.091  0.00  0.00    +0.265 C 
ATOM     19  C   UNL     1      -6.158   5.264  63.930  0.00  0.00    +0.055 C 
ATOM     20  C   UNL     1      -6.353   6.005  65.031  0.00  0.00    -0.018 C 
ATOM     21  C   UNL     1      -7.662   5.443  65.746  0.00  0.00    +0.062 C 
ATOM     22  C   UNL     1      -7.424   6.063  67.335  0.00  0.00    +0.173 C 
ATOM     23  O   UNL     1      -8.675   6.923  67.137  0.00  0.00    -0.451 OA
ATOM     24  C   UNL     1      -6.920   4.067  66.176  0.00  0.00    +0.008 C 
ATOM     25  O   UNL     1      -7.417   4.426  62.068  0.00  0.00    -0.268 OA
ATOM     26  C   UNL     1      -5.572  10.600  62.144  0.00  0.00    +0.031 C 
ATOM     27  O   UNL     1      -9.546  10.292  61.848  0.00  0.00    -0.218 OA
ATOM     28  O   UNL     1     -10.233  12.327  65.266  0.00  0.00    -0.295 OA
ATOM     29  O   UNL     1      -7.716  11.347  67.664  0.00  0.00    -0.435 OA
ATOM     30  C   UNL     1      -6.997  10.929  68.695  0.00  0.00    +0.205 A 
ATOM     31  O   UNL     1      -6.195   8.694  70.515  0.00  0.00    -0.268 OA
ATOM     32  C   UNL     1      -7.835   6.236  70.481  0.00  0.00    +0.096 C 
ATOM     33  C   UNL     1      -9.407   6.356  68.209  0.00  0.00    +0.337 C 
ATOM     34  O   UNL     1     -10.625   6.032  68.007  0.00  0.00    -0.248 OA
ATOM     35  C   UNL     1      -9.147   5.607  70.527  0.00  0.00    +0.047 C 
ENDROOT
BRANCH   1  36
ATOM     36  S   UNL     1      -9.742   7.746  71.923  0.00  0.00    -0.008 S 
ATOM     37  O   UNL     1      -9.684   9.187  71.691  0.00  0.00    -0.173 OA
ATOM     38  O   UNL     1      -8.754   7.128  72.778  0.00  0.00    -0.173 OA
BRANCH  36  39
ATOM     39  C   UNL     1     -11.269   7.589  72.875  0.00  0.00    +0.168 C 
BRANCH  39  40
ATOM     40  C   UNL     1     -12.476   7.804  71.980  0.00  0.00    +0.098 C 
BRANCH  40  41
ATOM     41  N   UNL     1     -13.332   8.876  72.451  0.00  0.00    -0.271 NA
BRANCH  41  43
ATOM     42  C   UNL     1     -12.831  10.584  71.374  0.00  0.00    +0.019 C 
ATOM     43  C   UNL     1     -13.114  10.109  71.741  0.00  0.00    +0.072 C 
ENDBRANCH  41  43
BRANCH  41  44
ATOM     44  C   UNL     1     -14.689   8.438  72.125  0.00  0.00    +0.072 C 
ATOM     45  C   UNL     1     -14.735   6.984  71.750  0.00  0.00    +0.019 C 
ENDBRANCH  41  44
ENDBRANCH  40  41
ENDBRANCH  39  40
ENDBRANCH  36  39
ENDBRANCH   1  36
BRANCH  22  46
ATOM     46  C   UNL     1      -6.307   7.162  66.975  0.00  0.00    +0.041 C 
ATOM     47  C   UNL     1      -5.070   6.741  67.617  0.00  0.00    +0.004 C 
ATOM     48  C   UNL     1      -6.453   8.282  66.289  0.00  0.00    +0.004 C 
ENDBRANCH  22  46
TORSDOF 7
ENDMDL
MODEL 5
REMARK VINA RESULT:      -6.0      4.164      7.621
REMARK  Name = 
REMARK  7 active torsions:
REMARK  status: ('A' for Active; 'I' for Inactive)
REMARK    1  A    between atoms: C_2  and  N_3
REMARK    2  A    between atoms: N_3  and  C_4
REMARK    3  A    between atoms: N_3  and  C_6
REMARK    4  A    between atoms: C_6  and  C_7
REMARK    5  A    between atoms: C_7  and  S_8
REMARK    6  A    between atoms: S_8  and  C_11
REMARK    7  A    between atoms: C_41  and  C_42
REMARK                            x       y       z     vdW  Elec       q    Type
REMARK                         _______ _______ _______ _____ _____    ______ ____
ROOT
ATOM      1  C   UNL     1      -6.404   8.355  64.603  0.00  0.00    +0.160 C 
ATOM      2  C   UNL     1      -7.348   9.475  65.451  0.00  0.00    +0.197 C 
ATOM      3  N   UNL     1      -7.278   8.732  66.821  0.00  0.00    -0.265 N 
ATOM      4  C   UNL     1      -8.615   8.330  67.183  0.00  0.00    +0.270 C 
ATOM      5  C   UNL     1      -9.812   9.099  66.816  0.00  0.00    +0.175 A 
ATOM      6  N   UNL     1      -9.734   9.858  65.701  0.00  0.00    -0.207 NA
ATOM      7  C   UNL     1     -10.428  11.003  65.847  0.00  0.00    +0.213 A 
ATOM      8  C   UNL     1     -10.242  11.991  64.772  0.00  0.00    +0.150 C 
ATOM      9  C   UNL     1     -10.929  13.282  65.019  0.00  0.00    +0.163 C 
ATOM     10  C   UNL     1     -10.078  14.519  65.017  0.00  0.00    +0.102 C 
ATOM     11  C   UNL     1     -10.885  15.495  66.100  0.00  0.00    +0.181 C 
ATOM     12  C   UNL     1     -10.078  14.998  67.416  0.00  0.00    +0.002 C 
ATOM     13  C   UNL     1     -10.165  16.024  68.269  0.00  0.00    -0.024 C 
ATOM     14  C   UNL     1      -9.067  16.891  67.800  0.00  0.00    -0.007 C 
ATOM     15  C   UNL     1      -8.326  16.151  66.955  0.00  0.00    -0.003 C 
ATOM     16  C   UNL     1      -7.541  15.111  67.619  0.00  0.00    +0.142 C 
ATOM     17  N   UNL     1      -6.147  15.151  67.156  0.00  0.00    -0.197 NA
ATOM     18  C   UNL     1      -5.219  15.400  68.225  0.00  0.00    +0.265 C 
ATOM     19  C   UNL     1      -5.426  14.449  69.333  0.00  0.00    +0.055 C 
ATOM     20  C   UNL     1      -6.117  13.360  68.966  0.00  0.00    -0.018 C 
ATOM     21  C   UNL     1      -5.415  12.781  67.658  0.00  0.00    +0.062 C 
ATOM     22  C   UNL     1      -6.014  11.165  67.687  0.00  0.00    +0.173 C 
ATOM     23  O   UNL     1      -6.755  11.467  66.382  0.00  0.00    -0.451 OA
ATOM     24  C   UNL     1      -4.105  12.305  68.487  0.00  0.00    +0.008 C 
ATOM     25  O   UNL     1      -4.520  16.435  68.339  0.00  0.00    -0.268 OA
ATOM     26  C   UNL     1     -10.838  16.084  69.559  0.00  0.00    +0.031 C 
ATOM     27  O   UNL     1     -10.160  16.758  65.678  0.00  0.00    -0.218 OA
ATOM     28  O   UNL     1     -12.032  13.387  64.485  0.00  0.00    -0.295 OA
ATOM     29  O   UNL     1     -11.236  10.778  66.853  0.00  0.00    -0.435 OA
ATOM     30  C   UNL     1     -10.861   9.691  67.511  0.00  0.00    +0.205 A 
ATOM     31  O   UNL     1      -8.668   7.841  68.355  0.00  0.00    -0.268 OA
ATOM     32  C   UNL     1      -6.066   8.070  66.972  0.00  0.00    +0.096 C 
ATOM     33  C   UNL     1      -6.094  10.478  65.612  0.00  0.00    +0.337 C 
ATOM     34  O   UNL     1      -5.661  10.799  64.455  0.00  0.00    -0.248 OA
ATOM     35  C   UNL     1      -5.314   8.158  65.729  0.00  0.00    +0.047 C 
ENDROOT
BRANCH   1  36
ATOM     36  S   UNL     1      -7.350   6.789  64.802  0.00  0.00    -0.008 S 
ATOM     37  O   UNL     1      -8.791   7.009  64.909  0.00  0.00    -0.173 OA
ATOM     38  O   UNL     1      -6.725   5.790  65.638  0.00  0.00    -0.173 OA
BRANCH  36  39
ATOM     39  C   UNL     1      -7.209   6.091  63.143  0.00  0.00    +0.168 C 
BRANCH  39  40
ATOM     40  C   UNL     1      -7.322   7.183  62.095  0.00  0.00    +0.098 C 
BRANCH  40  41
ATOM     41  N   UNL     1      -8.700   7.498  61.770  0.00  0.00    -0.271 NA
BRANCH  41  43
ATOM     42  C   UNL     1      -9.021   9.530  62.082  0.00  0.00    +0.019 C 
ATOM     43  C   UNL     1      -8.981   8.907  61.856  0.00  0.00    +0.072 C 
ENDBRANCH  41  43
BRANCH  41  44
ATOM     44  C   UNL     1      -8.842   7.127  60.362  0.00  0.00    +0.072 C 
ATOM     45  C   UNL     1     -10.216   6.605  60.054  0.00  0.00    +0.019 C 
ENDBRANCH  41  44
ENDBRANCH  40  41
ENDBRANCH  39  40
ENDBRANCH  36  39
ENDBRANCH   1  36
BRANCH  22  46
ATOM     46  C   UNL     1      -7.223  11.401  68.719  0.00  0.00    +0.041 C 
ATOM     47  C   UNL     1      -6.903  10.655  69.929  0.00  0.00    +0.004 C 
ATOM     48  C   UNL     1      -8.343  12.076  68.528  0.00  0.00    +0.004 C 
ENDBRANCH  22  46
TORSDOF 7
ENDMDL
MODEL 6
REMARK VINA RESULT:      -5.9      4.232      9.550
REMARK  Name = 
REMARK  7 active torsions:
REMARK  status: ('A' for Active; 'I' for Inactive)
REMARK    1  A    between atoms: C_2  and  N_3
REMARK    2  A    between atoms: N_3  and  C_4
REMARK    3  A    between atoms: N_3  and  C_6
REMARK    4  A    between atoms: C_6  and  C_7
REMARK    5  A    between atoms: C_7  and  S_8
REMARK    6  A    between atoms: S_8  and  C_11
REMARK    7  A    between atoms: C_41  and  C_42
REMARK                            x       y       z     vdW  Elec       q    Type
REMARK                         _______ _______ _______ _____ _____    ______ ____
ROOT
ATOM      1  C   UNL     1      -8.761  11.620  67.412  0.00  0.00    +0.160 C 
ATOM      2  C   UNL     1      -8.799  10.161  68.270  0.00  0.00    +0.197 C 
ATOM      3  N   UNL     1      -8.556   9.246  67.031  0.00  0.00    -0.265 N 
ATOM      4  C   UNL     1      -9.718   8.407  66.858  0.00  0.00    +0.270 C 
ATOM      5  C   UNL     1     -10.541   7.936  67.980  0.00  0.00    +0.175 A 
ATOM      6  N   UNL     1     -10.563   8.705  69.089  0.00  0.00    -0.207 NA
ATOM      7  C   UNL     1     -10.628   7.948  70.201  0.00  0.00    +0.213 A 
ATOM      8  C   UNL     1     -10.451   8.675  71.468  0.00  0.00    +0.150 C 
ATOM      9  C   UNL     1     -10.416   7.798  72.663  0.00  0.00    +0.163 C 
ATOM     10  C   UNL     1      -9.196   7.880  73.536  0.00  0.00    +0.102 C 
ATOM     11  C   UNL     1      -9.094   6.329  74.136  0.00  0.00    +0.181 C 
ATOM     12  C   UNL     1      -8.151   5.747  72.952  0.00  0.00    +0.002 C 
ATOM     13  C   UNL     1      -7.504   4.721  73.514  0.00  0.00    -0.024 C 
ATOM     14  C   UNL     1      -6.393   5.411  74.196  0.00  0.00    -0.007 C 
ATOM     15  C   UNL     1      -6.370   6.670  73.720  0.00  0.00    -0.003 C 
ATOM     16  C   UNL     1      -5.898   6.766  72.339  0.00  0.00    +0.142 C 
ATOM     17  N   UNL     1      -4.872   7.812  72.223  0.00  0.00    -0.197 NA
ATOM     18  C   UNL     1      -3.610   7.298  71.765  0.00  0.00    +0.265 C 
ATOM     19  C   UNL     1      -3.779   6.522  70.522  0.00  0.00    +0.055 C 
ATOM     20  C   UNL     1      -4.934   6.786  69.893  0.00  0.00    -0.018 C 
ATOM     21  C   UNL     1      -5.043   8.370  69.760  0.00  0.00    +0.062 C 
ATOM     22  C   UNL     1      -6.195   8.485  68.484  0.00  0.00    +0.173 C 
ATOM     23  O   UNL     1      -7.158   9.141  69.476  0.00  0.00    -0.451 OA
ATOM     24  C   UNL     1      -3.840   8.431  68.674  0.00  0.00    +0.008 C 
ATOM     25  O   UNL     1      -2.560   7.264  72.450  0.00  0.00    -0.268 OA
ATOM     26  C   UNL     1      -7.589   3.303  73.193  0.00  0.00    +0.031 C 
ATOM     27  O   UNL     1      -8.119   6.697  75.237  0.00  0.00    -0.218 OA
ATOM     28  O   UNL     1     -11.491   7.687  73.250  0.00  0.00    -0.295 OA
ATOM     29  O   UNL     1     -11.043   6.778  69.783  0.00  0.00    -0.435 OA
ATOM     30  C   UNL     1     -10.938   6.694  68.466  0.00  0.00    +0.205 A 
ATOM     31  O   UNL     1      -9.545   7.530  65.954  0.00  0.00    -0.268 OA
ATOM     32  C   UNL     1      -7.752   9.875  66.090  0.00  0.00    +0.096 C 
ATOM     33  C   UNL     1      -7.277  10.364  68.770  0.00  0.00    +0.337 C 
ATOM     34  O   UNL     1      -7.192  11.454  69.427  0.00  0.00    -0.248 OA
ATOM     35  C   UNL     1      -7.524  11.253  66.500  0.00  0.00    +0.047 C 
ENDROOT
BRANCH   1  36
ATOM     36  S   UNL     1     -10.124  11.413  66.194  0.00  0.00    -0.008 S 
ATOM     37  O   UNL     1     -11.365  10.947  66.808  0.00  0.00    -0.173 OA
ATOM     38  O   UNL     1      -9.730  10.882  64.908  0.00  0.00    -0.173 OA
BRANCH  36  39
ATOM     39  C   UNL     1     -10.520  13.135  65.827  0.00  0.00    +0.168 C 
BRANCH  39  40
ATOM     40  C   UNL     1     -11.877  13.502  66.402  0.00  0.00    +0.098 C 
BRANCH  40  41
ATOM     41  N   UNL     1     -11.783  14.493  67.457  0.00  0.00    -0.271 NA
BRANCH  41  43
ATOM     42  C   UNL     1     -11.789  13.505  69.288  0.00  0.00    +0.019 C 
ATOM     43  C   UNL     1     -11.686  13.902  68.765  0.00  0.00    +0.072 C 
ENDBRANCH  41  43
BRANCH  41  44
ATOM     44  C   UNL     1     -10.514  15.177  67.209  0.00  0.00    +0.072 C 
ATOM     45  C   UNL     1     -10.562  16.619  67.628  0.00  0.00    +0.019 C 
ENDBRANCH  41  44
ENDBRANCH  40  41
ENDBRANCH  39  40
ENDBRANCH  36  39
ENDBRANCH   1  36
BRANCH  22  46
ATOM     46  C   UNL     1      -6.750   6.978  68.557  0.00  0.00    +0.041 C 
ATOM     47  C   UNL     1      -6.355   6.317  67.322  0.00  0.00    +0.004 C 
ATOM     48  C   UNL     1      -7.487   6.423  69.503  0.00  0.00    +0.004 C 
ENDBRANCH  22  46
TORSDOF 7
ENDMDL
MODEL 7
REMARK VINA RESULT:      -5.9      4.796      8.449
REMARK  Name = 
REMARK  7 active torsions:
REMARK  status: ('A' for Active; 'I' for Inactive)
REMARK    1  A    between atoms: C_2  and  N_3
REMARK    2  A    between atoms: N_3  and  C_4
REMARK    3  A    between atoms: N_3  and  C_6
REMARK    4  A    between atoms: C_6  and  C_7
REMARK    5  A    between atoms: C_7  and  S_8
REMARK    6  A    between atoms: S_8  and  C_11
REMARK    7  A    between atoms: C_41  and  C_42
REMARK                            x       y       z     vdW  Elec       q    Type
REMARK                         _______ _______ _______ _____ _____    ______ ____
ROOT
ATOM      1  C   UNL     1      -9.233   4.206  68.691  0.00  0.00    +0.160 C 
ATOM      2  C   UNL     1      -8.987   5.881  68.704  0.00  0.00    +0.197 C 
ATOM      3  N   UNL     1      -7.429   5.810  68.730  0.00  0.00    -0.265 N 
ATOM      4  C   UNL     1      -6.973   6.402  69.964  0.00  0.00    +0.270 C 
ATOM      5  C   UNL     1      -7.677   7.504  70.634  0.00  0.00    +0.175 A 
ATOM      6  N   UNL     1      -9.007   7.600  70.421  0.00  0.00    -0.207 NA
ATOM      7  C   UNL     1      -9.397   8.888  70.367  0.00  0.00    +0.213 A 
ATOM      8  C   UNL     1     -10.788   9.106  69.938  0.00  0.00    +0.150 C 
ATOM      9  C   UNL     1     -11.149  10.536  69.781  0.00  0.00    +0.163 C 
ATOM     10  C   UNL     1     -11.659  10.968  68.437  0.00  0.00    +0.102 C 
ATOM     11  C   UNL     1     -11.135  12.548  68.359  0.00  0.00    +0.181 C 
ATOM     12  C   UNL     1      -9.708  12.223  67.661  0.00  0.00    +0.002 C 
ATOM     13  C   UNL     1      -9.388  13.348  67.013  0.00  0.00    -0.024 C 
ATOM     14  C   UNL     1     -10.150  13.192  65.759  0.00  0.00    -0.007 C 
ATOM     15  C   UNL     1     -10.565  11.913  65.717  0.00  0.00    -0.003 C 
ATOM     16  C   UNL     1      -9.490  10.955  65.462  0.00  0.00    +0.142 C 
ATOM     17  N   UNL     1      -9.878  10.026  64.391  0.00  0.00    -0.197 NA
ATOM     18  C   UNL     1      -8.993  10.089  63.261  0.00  0.00    +0.265 C 
ATOM     19  C   UNL     1      -7.589   9.922  63.681  0.00  0.00    +0.055 C 
ATOM     20  C   UNL     1      -7.469   9.370  64.898  0.00  0.00    -0.018 C 
ATOM     21  C   UNL     1      -8.372   8.058  64.906  0.00  0.00    +0.062 C 
ATOM     22  C   UNL     1      -7.664   7.216  66.233  0.00  0.00    +0.173 C 
ATOM     23  O   UNL     1      -8.995   7.364  66.975  0.00  0.00    -0.451 OA
ATOM     24  C   UNL     1      -7.375   7.282  63.889  0.00  0.00    +0.008 C 
ATOM     25  O   UNL     1      -9.316  10.501  62.121  0.00  0.00    -0.268 OA
ATOM     26  C   UNL     1      -8.275  14.256  67.254  0.00  0.00    +0.031 C 
ATOM     27  O   UNL     1     -12.039  12.912  67.197  0.00  0.00    -0.218 OA
ATOM     28  O   UNL     1     -11.712  11.033  70.756  0.00  0.00    -0.295 OA
ATOM     29  O   UNL     1      -8.420   9.555  70.931  0.00  0.00    -0.435 OA
ATOM     30  C   UNL     1      -7.343   8.791  71.041  0.00  0.00    +0.205 A 
ATOM     31  O   UNL     1      -5.708   6.513  70.003  0.00  0.00    -0.268 OA
ATOM     32  C   UNL     1      -6.965   4.698  68.039  0.00  0.00    +0.096 C 
ATOM     33  C   UNL     1      -9.236   5.975  67.112  0.00  0.00    +0.337 C 
ATOM     34  O   UNL     1     -10.402   5.532  66.841  0.00  0.00    -0.248 OA
ATOM     35  C   UNL     1      -8.098   3.872  67.645  0.00  0.00    +0.047 C 
ENDROOT
BRANCH   1  36
ATOM     36  S   UNL     1      -8.405   3.661  70.242  0.00  0.00    -0.008 S 
ATOM     37  O   UNL     1      -8.640   4.573  71.359  0.00  0.00    -0.173 OA
ATOM     38  O   UNL     1      -7.095   3.076  70.071  0.00  0.00    -0.173 OA
BRANCH  36  39
ATOM     39  C   UNL     1      -9.433   2.249  70.700  0.00  0.00    +0.168 C 
BRANCH  39  40
ATOM     40  C   UNL     1      -9.537   2.136  72.210  0.00  0.00    +0.098 C 
BRANCH  40  41
ATOM     41  N   UNL     1     -10.902   2.262  72.683  0.00  0.00    -0.271 NA
BRANCH  41  43
ATOM     42  C   UNL     1     -11.822   0.540  73.404  0.00  0.00    +0.019 C 
ATOM     43  C   UNL     1     -11.411   1.034  73.235  0.00  0.00    +0.072 C 
ENDBRANCH  41  43
BRANCH  41  44
ATOM     44  C   UNL     1     -10.825   3.219  73.786  0.00  0.00    +0.072 C 
ATOM     45  C   UNL     1     -11.330   4.577  73.389  0.00  0.00    +0.019 C 
ENDBRANCH  41  44
ENDBRANCH  40  41
ENDBRANCH  39  40
ENDBRANCH  36  39
ENDBRANCH   1  36
BRANCH  22  46
ATOM     46  C   UNL     1      -6.877   8.458  66.882  0.00  0.00    +0.041 C 
ATOM     47  C   UNL     1      -5.454   8.186  66.734  0.00  0.00    +0.004 C 
ATOM     48  C   UNL     1      -7.380   9.511  67.502  0.00  0.00    +0.004 C 
ENDBRANCH  22  46
TORSDOF 7
ENDMDL
MODEL 8
REMARK VINA RESULT:      -5.8      5.777     12.256
REMARK  Name = 
REMARK  7 active torsions:
REMARK  status: ('A' for Active; 'I' for Inactive)
REMARK    1  A    between atoms: C_2  and  N_3
REMARK    2  A    between atoms: N_3  and  C_4
REMARK    3  A    between atoms: N_3  and  C_6
REMARK    4  A    between atoms: C_6  and  C_7
REMARK    5  A    between atoms: C_7  and  S_8
REMARK    6  A    between atoms: S_8  and  C_11
REMARK    7  A    between atoms: C_41  and  C_42
REMARK                            x       y       z     vdW  Elec       q    Type
REMARK                         _______ _______ _______ _____ _____    ______ ____
ROOT
ATOM      1  C   UNL     1     -11.031   8.635  69.348  0.00  0.00    +0.160 C 
ATOM      2  C   UNL     1     -10.009   7.288  69.427  0.00  0.00    +0.197 C 
ATOM      3  N   UNL     1      -8.835   8.025  70.143  0.00  0.00    -0.265 N 
ATOM      4  C   UNL     1      -7.692   8.009  69.263  0.00  0.00    +0.270 C 
ATOM      5  C   UNL     1      -7.417   6.914  68.323  0.00  0.00    +0.175 A 
ATOM      6  N   UNL     1      -8.479   6.208  67.879  0.00  0.00    -0.207 NA
ATOM      7  C   UNL     1      -8.163   4.908  67.722  0.00  0.00    +0.213 A 
ATOM      8  C   UNL     1      -9.299   4.016  67.438  0.00  0.00    +0.150 C 
ATOM      9  C   UNL     1      -8.934   2.580  67.383  0.00  0.00    +0.163 C 
ATOM     10  C   UNL     1      -9.657   1.654  68.319  0.00  0.00    +0.102 C 
ATOM     11  C   UNL     1      -8.504   0.487  68.611  0.00  0.00    +0.181 C 
ATOM     12  C   UNL     1      -7.850   1.211  69.906  0.00  0.00    +0.002 C 
ATOM     13  C   UNL     1      -7.310   0.211  70.611  0.00  0.00    -0.024 C 
ATOM     14  C   UNL     1      -8.480  -0.289  71.356  0.00  0.00    -0.007 C 
ATOM     15  C   UNL     1      -9.450   0.634  71.217  0.00  0.00    -0.003 C 
ATOM     16  C   UNL     1      -9.199   1.865  71.965  0.00  0.00    +0.142 C 
ATOM     17  N   UNL     1     -10.390   2.243  72.739  0.00  0.00    -0.197 NA
ATOM     18  C   UNL     1     -10.136   2.290  74.153  0.00  0.00    +0.265 C 
ATOM     19  C   UNL     1      -8.968   3.140  74.450  0.00  0.00    +0.055 C 
ATOM     20  C   UNL     1      -8.657   3.970  73.444  0.00  0.00    -0.018 C 
ATOM     21  C   UNL     1      -9.997   4.726  73.029  0.00  0.00    +0.062 C 
ATOM     22  C   UNL     1      -9.331   6.087  72.209  0.00  0.00    +0.173 C 
ATOM     23  O   UNL     1      -9.981   5.570  70.923  0.00  0.00    -0.451 OA
ATOM     24  C   UNL     1     -10.025   5.578  74.409  0.00  0.00    +0.008 C 
ATOM     25  O   UNL     1     -10.643   1.512  74.997  0.00  0.00    -0.268 OA
ATOM     26  C   UNL     1      -5.907  -0.041  70.911  0.00  0.00    +0.031 C 
ATOM     27  O   UNL     1      -9.490  -0.502  69.200  0.00  0.00    -0.218 OA
ATOM     28  O   UNL     1      -8.726   2.146  66.250  0.00  0.00    -0.295 OA
ATOM     29  O   UNL     1      -6.855   4.886  67.678  0.00  0.00    -0.435 OA
ATOM     30  C   UNL     1      -6.359   6.039  68.102  0.00  0.00    +0.205 A 
ATOM     31  O   UNL     1      -6.648   8.466  69.826  0.00  0.00    -0.268 OA
ATOM     32  C   UNL     1      -9.307   9.020  70.989  0.00  0.00    +0.096 C 
ATOM     33  C   UNL     1     -10.798   6.708  70.710  0.00  0.00    +0.337 C 
ATOM     34  O   UNL     1     -12.023   6.526  70.403  0.00  0.00    -0.248 OA
ATOM     35  C   UNL     1     -10.746   9.155  70.812  0.00  0.00    +0.047 C 
ENDROOT
BRANCH   1  36
ATOM     36  S   UNL     1     -10.036   9.845  68.383  0.00  0.00    -0.008 S 
ATOM     37  O   UNL     1      -9.523   9.288  67.134  0.00  0.00    -0.173 OA
ATOM     38  O   UNL     1      -9.190  10.716  69.167  0.00  0.00    -0.173 OA
BRANCH  36  39
ATOM     39  C   UNL     1     -11.331  10.953  67.786  0.00  0.00    +0.168 C 
BRANCH  39  40
ATOM     40  C   UNL     1     -11.001  11.451  66.390  0.00  0.00    +0.098 C 
BRANCH  40  41
ATOM     41  N   UNL     1     -12.094  12.195  65.794  0.00  0.00    -0.271 NA
BRANCH  41  43
ATOM     42  C   UNL     1     -12.157  14.237  66.189  0.00  0.00    +0.019 C 
ATOM     43  C   UNL     1     -12.112  13.574  66.204  0.00  0.00    +0.072 C 
ENDBRANCH  41  43
BRANCH  41  44
ATOM     44  C   UNL     1     -11.808  12.187  64.359  0.00  0.00    +0.072 C 
ATOM     45  C   UNL     1     -10.649  11.293  64.022  0.00  0.00    +0.019 C 
ENDBRANCH  41  44
ENDBRANCH  40  41
ENDBRANCH  39  40
ENDBRANCH  36  39
ENDBRANCH   1  36
BRANCH  22  46
ATOM     46  C   UNL     1      -7.849   5.506  71.991  0.00  0.00    +0.041 C 
ATOM     47  C   UNL     1      -6.949   6.317  72.798  0.00  0.00    +0.004 C 
ATOM     48  C   UNL     1      -7.464   4.527  71.190  0.00  0.00    +0.004 C 
ENDBRANCH  22  46
TORSDOF 7
ENDMDL
MODEL 9
REMARK VINA RESULT:      -5.8      2.828      4.346
REMARK  Name = 
REMARK  7 active torsions:
REMARK  status: ('A' for Active; 'I' for Inactive)
REMARK    1  A    between atoms: C_2  and  N_3
REMARK    2  A    between atoms: N_3  and  C_4
REMARK    3  A    between atoms: N_3  and  C_6
REMARK    4  A    between atoms: C_6  and  C_7
REMARK    5  A    between atoms: C_7  and  S_8
REMARK    6  A    between atoms: S_8  and  C_11
REMARK    7  A    between atoms: C_41  and  C_42
REMARK                            x       y       z     vdW  Elec       q    Type
REMARK                         _______ _______ _______ _____ _____    ______ ____
ROOT
ATOM      1  C   UNL     1      -9.791   7.822  69.637  0.00  0.00    +0.160 C 
ATOM      2  C   UNL     1      -8.831   9.106  69.093  0.00  0.00    +0.197 C 
ATOM      3  N   UNL     1      -8.995   8.790  67.575  0.00  0.00    -0.265 N 
ATOM      4  C   UNL     1      -7.695   8.464  67.041  0.00  0.00    +0.270 C 
ATOM      5  C   UNL     1      -6.448   9.055  67.546  0.00  0.00    +0.175 A 
ATOM      6  N   UNL     1      -6.442   9.465  68.833  0.00  0.00    -0.207 NA
ATOM      7  C   UNL     1      -5.702  10.580  68.982  0.00  0.00    +0.213 A 
ATOM      8  C   UNL     1      -5.795  11.224  70.302  0.00  0.00    +0.150 C 
ATOM      9  C   UNL     1      -5.059  12.508  70.396  0.00  0.00    +0.163 C 
ATOM     10  C   UNL     1      -5.849  13.721  70.795  0.00  0.00    +0.102 C 
ATOM     11  C   UNL     1      -5.043  14.938  69.993  0.00  0.00    +0.181 C 
ATOM     12  C   UNL     1      -5.928  14.866  68.635  0.00  0.00    +0.002 C 
ATOM     13  C   UNL     1      -5.828  16.090  68.106  0.00  0.00    -0.024 C 
ATOM     14  C   UNL     1      -6.863  16.822  68.861  0.00  0.00    -0.007 C 
ATOM     15  C   UNL     1      -7.602  15.897  69.500  0.00  0.00    -0.003 C 
ATOM     16  C   UNL     1      -8.462  15.117  68.611  0.00  0.00    +0.142 C 
ATOM     17  N   UNL     1      -9.833  15.070  69.141  0.00  0.00    -0.197 NA
ATOM     18  C   UNL     1     -10.792  15.645  68.239  0.00  0.00    +0.265 C 
ATOM     19  C   UNL     1     -10.678  15.046  66.896  0.00  0.00    +0.055 C 
ATOM     20  C   UNL     1     -10.025  13.874  66.901  0.00  0.00    -0.018 C 
ATOM     21  C   UNL     1     -10.697  12.968  68.026  0.00  0.00    +0.062 C 
ATOM     22  C   UNL     1     -10.177  11.410  67.506  0.00  0.00    +0.173 C 
ATOM     23  O   UNL     1      -9.368  11.300  68.801  0.00  0.00    -0.451 OA
ATOM     24  C   UNL     1     -12.062  12.794  67.168  0.00  0.00    +0.008 C 
ATOM     25  O   UNL     1     -11.445  16.693  68.462  0.00  0.00    -0.268 OA
ATOM     26  C   UNL     1      -5.208  16.495  66.852  0.00  0.00    +0.031 C 
ATOM     27  O   UNL     1      -5.688  16.051  70.795  0.00  0.00    -0.218 OA
ATOM     28  O   UNL     1      -3.930  12.418  70.877  0.00  0.00    -0.295 OA
ATOM     29  O   UNL     1      -4.949  10.626  67.911  0.00  0.00    -0.435 OA
ATOM     30  C   UNL     1      -5.402   9.786  66.992  0.00  0.00    +0.205 A 
ATOM     31  O   UNL     1      -7.715   8.330  65.777  0.00  0.00    -0.268 OA
ATOM     32  C   UNL     1     -10.242   8.240  67.306  0.00  0.00    +0.096 C 
ATOM     33  C   UNL     1     -10.042  10.155  69.292  0.00  0.00    +0.337 C 
ATOM     34  O   UNL     1     -10.410  10.145  70.514  0.00  0.00    -0.248 OA
ATOM     35  C   UNL     1     -10.936   7.993  68.563  0.00  0.00    +0.047 C 
ENDROOT
BRANCH   1  36
ATOM     36  S   UNL     1      -8.929   6.349  68.950  0.00  0.00    -0.008 S 
ATOM     37  O   UNL     1      -7.481   6.403  69.135  0.00  0.00    -0.173 OA
ATOM     38  O   UNL     1      -9.464   5.844  67.706  0.00  0.00    -0.173 OA
BRANCH  36  39
ATOM     39  C   UNL     1      -9.405   5.085  70.148  0.00  0.00    +0.168 C 
BRANCH  39  40
ATOM     40  C   UNL     1      -9.753   5.722  71.482  0.00  0.00    +0.098 C 
BRANCH  40  41
ATOM     41  N   UNL     1     -11.103   5.406  71.911  0.00  0.00    -0.271 NA
BRANCH  41  43
ATOM     42  C   UNL     1     -10.936   4.240  73.625  0.00  0.00    +0.019 C 
ATOM     43  C   UNL     1     -11.129   4.584  73.091  0.00  0.00    +0.072 C 
ENDBRANCH  41  43
BRANCH  41  44
ATOM     44  C   UNL     1     -11.683   6.696  72.284  0.00  0.00    +0.072 C 
ATOM     45  C   UNL     1     -12.956   6.976  71.537  0.00  0.00    +0.019 C 
ENDBRANCH  41  44
ENDBRANCH  40  41
ENDBRANCH  39  40
ENDBRANCH  36  39
ENDBRANCH   1  36
BRANCH  22  46
ATOM     46  C   UNL     1      -9.003  11.891  66.519  0.00  0.00    +0.041 C 
ATOM     47  C   UNL     1      -9.417  11.549  65.165  0.00  0.00    +0.004 C 
ATOM     48  C   UNL     1      -7.840  12.434  66.835  0.00  0.00    +0.004 C 
ENDBRANCH  22  46
TORSDOF 7
ENDMDL
