MODEL 1
REMARK VINA RESULT:      -5.0      0.000      0.000
REMARK  Name = 
REMARK  10 active torsions:
REMARK  status: ('A' for Active; 'I' for Inactive)
REMARK    1  A    between atoms: C_2  and  C_3
REMARK    2  A    between atoms: C_3  and  C_4
REMARK    3  A    between atoms: C_4  and  C_5
REMARK    4  A    between atoms: C_5  and  C_6
REMARK    5  A    between atoms: C_5  and  C_8
REMARK    6  A    between atoms: C_8  and  O_9
REMARK    7  A    between atoms: O_9  and  C_10
REMARK    8  A    between atoms: C_10  and  C_12
REMARK    9  A    between atoms: C_13  and  C_14
REMARK   10  A    between atoms: C_17  and  O_18
REMARK                            x       y       z     vdW  Elec       q    Type
REMARK                         _______ _______ _______ _____ _____    ______ ____
ROOT
ATOM      1  C   UNL     1     -11.590  15.949  69.071  0.00  0.00    +0.341 C 
ATOM      2  O   UNL     1     -12.161  16.125  70.191  0.00  0.00    -0.245 OA
ENDROOT
BRANCH   1   3
ATOM      3  C   UNL     1     -10.373  15.139  68.919  0.00  0.00    +0.082 C 
ATOM      4  C   UNL     1     -10.542  14.011  68.286  0.00  0.00    +0.007 C 
BRANCH   4   5
ATOM      5  C   UNL     1     -11.021  14.154  66.905  0.00  0.00    +0.000 A 
ATOM      6  C   UNL     1     -12.147  13.383  66.630  0.00  0.00    +0.003 A 
ATOM      7  C   UNL     1     -12.249  12.602  65.486  0.00  0.00    +0.037 A 
ATOM      8  C   UNL     1     -11.303  12.731  64.485  0.00  0.00    +0.139 A 
ATOM      9  C   UNL     1     -10.513  13.862  64.554  0.00  0.00    +0.037 A 
ATOM     10  C   UNL     1     -10.184  14.336  65.819  0.00  0.00    +0.003 A 
BRANCH   8  11
ATOM     11  O   UNL     1     -11.072  11.704  63.564  0.00  0.00    -0.471 OA
ATOM     12  C   UNL     1     -10.042  10.749  63.717  0.00  0.00    +0.252 C 
ENDBRANCH   8  11
ENDBRANCH   4   5
ENDBRANCH   1   3
BRANCH   1  13
ATOM     13  O   UNL     1     -11.443  17.156  68.377  0.00  0.00    -0.445 OA
BRANCH  13  14
ATOM     14  C   UNL     1     -10.314  17.849  68.102  0.00  0.00    +0.209 C 
BRANCH  14  15
ATOM     15  C   UNL     1     -10.069  17.931  66.473  0.00  0.00    +0.044 C 
BRANCH  15  16
ATOM     16  C   UNL     1     -10.446  19.535  66.343  0.00  0.00    +0.004 C 
ATOM     17  C   UNL     1      -9.686  20.083  67.529  0.00  0.00    +0.000 C 
ENDBRANCH  15  16
BRANCH  15  18
ATOM     18  C   UNL     1      -8.459  18.257  66.660  0.00  0.00    +0.004 C 
BRANCH  18  19
ATOM     19  C   UNL     1      -7.723  17.065  66.142  0.00  0.00    +0.000 C 
BRANCH  19  21
ATOM     20  C   UNL     1      -6.945  15.436  67.386  0.00  0.00    +0.000 C 
ATOM     21  C   UNL     1      -7.234  16.121  67.203  0.00  0.00    +0.000 C 
ENDBRANCH  19  21
ENDBRANCH  18  19
ENDBRANCH  15  18
ENDBRANCH  14  15
ENDBRANCH  13  14
ENDBRANCH   1  13
TORSDOF 10
ENDMDL
MODEL 2
REMARK VINA RESULT:      -5.0      2.077      4.381
REMARK  Name = 
REMARK  10 active torsions:
REMARK  status: ('A' for Active; 'I' for Inactive)
REMARK    1  A    between atoms: C_2  and  C_3
REMARK    2  A    between atoms: C_3  and  C_4
REMARK    3  A    between atoms: C_4  and  C_5
REMARK    4  A    between atoms: C_5  and  C_6
REMARK    5  A    between atoms: C_5  and  C_8
REMARK    6  A    between atoms: C_8  and  O_9
REMARK    7  A    between atoms: O_9  and  C_10
REMARK    8  A    between atoms: C_10  and  C_12
REMARK    9  A    between atoms: C_13  and  C_14
REMARK   10  A    between atoms: C_17  and  O_18
REMARK                            x       y       z     vdW  Elec       q    Type
REMARK                         _______ _______ _______ _____ _____    ______ ____
ROOT
ATOM      1  C   UNL     1     -10.145  16.514  68.424  0.00  0.00    +0.341 C 
ATOM      2  O   UNL     1      -9.133  17.047  68.975  0.00  0.00    -0.245 OA
ENDROOT
BRANCH   1   3
ATOM      3  C   UNL     1     -10.504  16.756  67.020  0.00  0.00    +0.082 C 
ATOM      4  C   UNL     1     -10.095  15.841  66.185  0.00  0.00    +0.007 C 
BRANCH   4   5
ATOM      5  C   UNL     1     -10.635  14.500  66.439  0.00  0.00    +0.000 A 
ATOM      6  C   UNL     1      -9.651  13.521  66.552  0.00  0.00    +0.003 A 
ATOM      7  C   UNL     1      -9.740  12.301  65.894  0.00  0.00    +0.037 A 
ATOM      8  C   UNL     1     -10.919  11.950  65.263  0.00  0.00    +0.139 A 
ATOM      9  C   UNL     1     -12.028  12.696  65.615  0.00  0.00    +0.037 A 
ATOM     10  C   UNL     1     -11.827  14.040  65.909  0.00  0.00    +0.003 A 
BRANCH   8  11
ATOM     11  O   UNL     1     -10.941  11.007  64.231  0.00  0.00    -0.471 OA
ATOM     12  C   UNL     1     -10.043  11.036  63.141  0.00  0.00    +0.252 C 
ENDBRANCH   8  11
ENDBRANCH   4   5
ENDBRANCH   1   3
BRANCH   1  13
ATOM     13  O   UNL     1     -11.285  16.629  69.228  0.00  0.00    -0.445 OA
BRANCH  13  14
ATOM     14  C   UNL     1     -12.130  15.662  69.653  0.00  0.00    +0.209 C 
BRANCH  14  15
ATOM     15  C   UNL     1     -11.676  15.111  71.140  0.00  0.00    +0.044 C 
BRANCH  15  16
ATOM     16  C   UNL     1     -13.030  15.647  71.921  0.00  0.00    +0.004 C 
ATOM     17  C   UNL     1     -12.806  15.039  73.287  0.00  0.00    +0.000 C 
ENDBRANCH  15  16
BRANCH  15  18
ATOM     18  C   UNL     1     -12.342  13.622  70.869  0.00  0.00    +0.004 C 
BRANCH  18  19
ATOM     19  C   UNL     1     -11.850  13.175  69.531  0.00  0.00    +0.000 C 
BRANCH  19  21
ATOM     20  C   UNL     1     -11.514  11.075  69.001  0.00  0.00    +0.000 C 
ATOM     21  C   UNL     1     -11.829  11.686  69.337  0.00  0.00    +0.000 C 
ENDBRANCH  19  21
ENDBRANCH  18  19
ENDBRANCH  15  18
ENDBRANCH  14  15
ENDBRANCH  13  14
ENDBRANCH   1  13
TORSDOF 10
ENDMDL
MODEL 3
REMARK VINA RESULT:      -4.9      2.280      4.782
REMARK  Name = 
REMARK  10 active torsions:
REMARK  status: ('A' for Active; 'I' for Inactive)
REMARK    1  A    between atoms: C_2  and  C_3
REMARK    2  A    between atoms: C_3  and  C_4
REMARK    3  A    between atoms: C_4  and  C_5
REMARK    4  A    between atoms: C_5  and  C_6
REMARK    5  A    between atoms: C_5  and  C_8
REMARK    6  A    between atoms: C_8  and  O_9
REMARK    7  A    between atoms: O_9  and  C_10
REMARK    8  A    between atoms: C_10  and  C_12
REMARK    9  A    between atoms: C_13  and  C_14
REMARK   10  A    between atoms: C_17  and  O_18
REMARK                            x       y       z     vdW  Elec       q    Type
REMARK                         _______ _______ _______ _____ _____    ______ ____
ROOT
ATOM      1  C   UNL     1     -10.231  17.180  68.254  0.00  0.00    +0.341 C 
ATOM      2  O   UNL     1      -9.674  18.136  68.875  0.00  0.00    -0.245 OA
ENDROOT
BRANCH   1   3
ATOM      3  C   UNL     1     -10.490  17.215  66.808  0.00  0.00    +0.082 C 
ATOM      4  C   UNL     1     -10.003  16.205  66.141  0.00  0.00    +0.007 C 
BRANCH   4   5
ATOM      5  C   UNL     1     -10.537  14.897  66.541  0.00  0.00    +0.000 A 
ATOM      6  C   UNL     1      -9.552  13.927  66.708  0.00  0.00    +0.003 A 
ATOM      7  C   UNL     1      -9.670  12.651  66.171  0.00  0.00    +0.037 A 
ATOM      8  C   UNL     1     -10.874  12.250  65.623  0.00  0.00    +0.139 A 
ATOM      9  C   UNL     1     -11.966  13.032  65.945  0.00  0.00    +0.037 A 
ATOM     10  C   UNL     1     -11.750  14.397  66.103  0.00  0.00    +0.003 A 
BRANCH   8  11
ATOM     11  O   UNL     1     -10.939  11.214  64.686  0.00  0.00    -0.471 OA
ATOM     12  C   UNL     1     -11.064  11.438  63.297  0.00  0.00    +0.252 C 
ENDBRANCH   8  11
ENDBRANCH   4   5
ENDBRANCH   1   3
BRANCH   1  13
ATOM     13  O   UNL     1     -11.375  16.731  68.926  0.00  0.00    -0.445 OA
BRANCH  13  14
ATOM     14  C   UNL     1     -11.466  15.964  70.036  0.00  0.00    +0.209 C 
BRANCH  14  15
ATOM     15  C   UNL     1     -12.780  14.972  69.946  0.00  0.00    +0.044 C 
BRANCH  15  16
ATOM     16  C   UNL     1     -12.064  13.699  70.720  0.00  0.00    +0.004 C 
ATOM     17  C   UNL     1     -11.794  12.790  69.543  0.00  0.00    +0.000 C 
ENDBRANCH  15  16
BRANCH  15  18
ATOM     18  C   UNL     1     -13.410  15.561  71.357  0.00  0.00    +0.004 C 
BRANCH  18  19
ATOM     19  C   UNL     1     -12.247  15.854  72.249  0.00  0.00    +0.000 C 
BRANCH  19  21
ATOM     20  C   UNL     1     -12.437  15.562  74.413  0.00  0.00    +0.000 C 
ATOM     21  C   UNL     1     -12.568  15.851  73.716  0.00  0.00    +0.000 C 
ENDBRANCH  19  21
ENDBRANCH  18  19
ENDBRANCH  15  18
ENDBRANCH  14  15
ENDBRANCH  13  14
ENDBRANCH   1  13
TORSDOF 10
ENDMDL
MODEL 4
REMARK VINA RESULT:      -4.9      4.223      6.349
REMARK  Name = 
REMARK  10 active torsions:
REMARK  status: ('A' for Active; 'I' for Inactive)
REMARK    1  A    between atoms: C_2  and  C_3
REMARK    2  A    between atoms: C_3  and  C_4
REMARK    3  A    between atoms: C_4  and  C_5
REMARK    4  A    between atoms: C_5  and  C_6
REMARK    5  A    between atoms: C_5  and  C_8
REMARK    6  A    between atoms: C_8  and  O_9
REMARK    7  A    between atoms: O_9  and  C_10
REMARK    8  A    between atoms: C_10  and  C_12
REMARK    9  A    between atoms: C_13  and  C_14
REMARK   10  A    between atoms: C_17  and  O_18
REMARK                            x       y       z     vdW  Elec       q    Type
REMARK                         _______ _______ _______ _____ _____    ______ ____
ROOT
ATOM      1  C   UNL     1     -10.728  12.574  67.535  0.00  0.00    +0.341 C 
ATOM      2  O   UNL     1      -9.686  12.942  66.912  0.00  0.00    -0.245 OA
ENDROOT
BRANCH   1   3
ATOM      3  C   UNL     1     -11.343  11.253  67.345  0.00  0.00    +0.082 C 
ATOM      4  C   UNL     1     -10.938  10.336  68.181  0.00  0.00    +0.007 C 
BRANCH   4   5
ATOM      5  C   UNL     1     -11.217  10.632  69.591  0.00  0.00    +0.000 A 
ATOM      6  C   UNL     1     -10.614   9.738  70.472  0.00  0.00    +0.003 A 
ATOM      7  C   UNL     1     -11.303   9.162  71.532  0.00  0.00    +0.037 A 
ATOM      8  C   UNL     1     -12.565   9.625  71.856  0.00  0.00    +0.139 A 
ATOM      9  C   UNL     1     -12.911  10.846  71.311  0.00  0.00    +0.037 A 
ATOM     10  C   UNL     1     -12.421  11.142  70.044  0.00  0.00    +0.003 A 
BRANCH   8  11
ATOM     11  O   UNL     1     -13.473   8.830  72.563  0.00  0.00    -0.471 OA
ATOM     12  C   UNL     1     -14.577   8.193  71.952  0.00  0.00    +0.252 C 
ENDBRANCH   8  11
ENDBRANCH   4   5
ENDBRANCH   1   3
BRANCH   1  13
ATOM     13  O   UNL     1     -11.719  13.563  67.504  0.00  0.00    -0.445 OA
BRANCH  13  14
ATOM     14  C   UNL     1     -11.800  14.712  68.214  0.00  0.00    +0.209 C 
BRANCH  14  15
ATOM     15  C   UNL     1     -11.391  14.446  69.790  0.00  0.00    +0.044 C 
BRANCH  15  16
ATOM     16  C   UNL     1     -10.133  15.518  69.804  0.00  0.00    +0.004 C 
ATOM     17  C   UNL     1     -10.744  16.654  69.015  0.00  0.00    +0.000 C 
ENDBRANCH  15  16
BRANCH  15  18
ATOM     18  C   UNL     1     -12.456  15.588  70.332  0.00  0.00    +0.004 C 
BRANCH  18  19
ATOM     19  C   UNL     1     -13.173  14.980  71.494  0.00  0.00    +0.000 C 
BRANCH  19  21
ATOM     20  C   UNL     1     -12.563  15.187  73.589  0.00  0.00    +0.000 C 
ATOM     21  C   UNL     1     -12.591  15.321  72.836  0.00  0.00    +0.000 C 
ENDBRANCH  19  21
ENDBRANCH  18  19
ENDBRANCH  15  18
ENDBRANCH  14  15
ENDBRANCH  13  14
ENDBRANCH   1  13
TORSDOF 10
ENDMDL
MODEL 5
REMARK VINA RESULT:      -4.8      2.976      6.671
REMARK  Name = 
REMARK  10 active torsions:
REMARK  status: ('A' for Active; 'I' for Inactive)
REMARK    1  A    between atoms: C_2  and  C_3
REMARK    2  A    between atoms: C_3  and  C_4
REMARK    3  A    between atoms: C_4  and  C_5
REMARK    4  A    between atoms: C_5  and  C_6
REMARK    5  A    between atoms: C_5  and  C_8
REMARK    6  A    between atoms: C_8  and  O_9
REMARK    7  A    between atoms: O_9  and  C_10
REMARK    8  A    between atoms: C_10  and  C_12
REMARK    9  A    between atoms: C_13  and  C_14
REMARK   10  A    between atoms: C_17  and  O_18
REMARK                            x       y       z     vdW  Elec       q    Type
REMARK                         _______ _______ _______ _____ _____    ______ ____
ROOT
ATOM      1  C   UNL     1     -11.621  14.560  67.594  0.00  0.00    +0.341 C 
ATOM      2  O   UNL     1     -12.094  14.304  66.445  0.00  0.00    -0.245 OA
ENDROOT
BRANCH   1   3
ATOM      3  C   UNL     1     -10.179  14.680  67.851  0.00  0.00    +0.082 C 
ATOM      4  C   UNL     1      -9.585  15.638  67.196  0.00  0.00    +0.007 C 
BRANCH   4   5
ATOM      5  C   UNL     1     -10.089  16.984  67.496  0.00  0.00    +0.000 A 
ATOM      6  C   UNL     1     -10.266  17.772  66.362  0.00  0.00    +0.003 A 
ATOM      7  C   UNL     1      -9.813  19.084  66.293  0.00  0.00    +0.037 A 
ATOM      8  C   UNL     1      -9.348  19.707  67.437  0.00  0.00    +0.139 A 
ATOM      9  C   UNL     1      -9.675  19.087  68.628  0.00  0.00    +0.037 A 
ATOM     10  C   UNL     1      -9.741  17.698  68.629  0.00  0.00    +0.003 A 
BRANCH   8  11
ATOM     11  O   UNL     1      -8.480  20.801  67.370  0.00  0.00    -0.471 OA
ATOM     12  C   UNL     1      -7.077  20.679  67.485  0.00  0.00    +0.252 C 
ENDBRANCH   8  11
ENDBRANCH   4   5
ENDBRANCH   1   3
BRANCH   1  13
ATOM     13  O   UNL     1     -12.209  13.757  68.579  0.00  0.00    -0.445 OA
BRANCH  13  14
ATOM     14  C   UNL     1     -11.993  13.750  69.915  0.00  0.00    +0.209 C 
BRANCH  14  15
ATOM     15  C   UNL     1     -12.724  15.046  70.625  0.00  0.00    +0.044 C 
BRANCH  15  16
ATOM     16  C   UNL     1     -13.765  14.149  71.545  0.00  0.00    +0.004 C 
ATOM     17  C   UNL     1     -14.990  15.034  71.498  0.00  0.00    +0.000 C 
ENDBRANCH  15  16
BRANCH  15  18
ATOM     18  C   UNL     1     -11.601  15.105  71.837  0.00  0.00    +0.004 C 
BRANCH  18  19
ATOM     19  C   UNL     1     -12.020  16.212  72.749  0.00  0.00    +0.000 C 
BRANCH  19  21
ATOM     20  C   UNL     1     -12.552  15.970  74.861  0.00  0.00    +0.000 C 
ATOM     21  C   UNL     1     -12.303  15.787  74.161  0.00  0.00    +0.000 C 
ENDBRANCH  19  21
ENDBRANCH  18  19
ENDBRANCH  15  18
ENDBRANCH  14  15
ENDBRANCH  13  14
ENDBRANCH   1  13
TORSDOF 10
ENDMDL
MODEL 6
REMARK VINA RESULT:      -4.8      2.344      6.200
REMARK  Name = 
REMARK  10 active torsions:
REMARK  status: ('A' for Active; 'I' for Inactive)
REMARK    1  A    between atoms: C_2  and  C_3
REMARK    2  A    between atoms: C_3  and  C_4
REMARK    3  A    between atoms: C_4  and  C_5
REMARK    4  A    between atoms: C_5  and  C_6
REMARK    5  A    between atoms: C_5  and  C_8
REMARK    6  A    between atoms: C_8  and  O_9
REMARK    7  A    between atoms: O_9  and  C_10
REMARK    8  A    between atoms: C_10  and  C_12
REMARK    9  A    between atoms: C_13  and  C_14
REMARK   10  A    between atoms: C_17  and  O_18
REMARK                            x       y       z     vdW  Elec       q    Type
REMARK                         _______ _______ _______ _____ _____    ______ ____
ROOT
ATOM      1  C   UNL     1     -12.134  13.738  65.695  0.00  0.00    +0.341 C 
ATOM      2  O   UNL     1     -13.266  14.003  65.185  0.00  0.00    -0.245 OA
ENDROOT
BRANCH   1   3
ATOM      3  C   UNL     1     -10.866  14.075  65.033  0.00  0.00    +0.082 C 
ATOM      4  C   UNL     1     -10.403  15.262  65.311  0.00  0.00    +0.007 C 
BRANCH   4   5
ATOM      5  C   UNL     1     -10.105  15.482  66.731  0.00  0.00    +0.000 A 
ATOM      6  C   UNL     1     -10.531  16.723  67.198  0.00  0.00    +0.003 A 
ATOM      7  C   UNL     1      -9.717  17.545  67.968  0.00  0.00    +0.037 A 
ATOM      8  C   UNL     1      -8.521  17.053  68.460  0.00  0.00    +0.139 A 
ATOM      9  C   UNL     1      -8.381  15.679  68.424  0.00  0.00    +0.037 A 
ATOM     10  C   UNL     1      -8.968  15.005  67.359  0.00  0.00    +0.003 A 
BRANCH   8  11
ATOM     11  O   UNL     1      -7.476  17.909  68.822  0.00  0.00    -0.471 OA
ATOM     12  C   UNL     1      -7.599  19.317  68.827  0.00  0.00    +0.252 C 
ENDBRANCH   8  11
ENDBRANCH   4   5
ENDBRANCH   1   3
BRANCH   1  13
ATOM     13  O   UNL     1     -12.083  12.421  66.167  0.00  0.00    -0.445 OA
BRANCH  13  14
ATOM     14  C   UNL     1     -11.224  11.866  67.053  0.00  0.00    +0.209 C 
BRANCH  14  15
ATOM     15  C   UNL     1     -11.944  11.695  68.527  0.00  0.00    +0.044 C 
BRANCH  15  16
ATOM     16  C   UNL     1     -10.866  10.578  69.095  0.00  0.00    +0.004 C 
ATOM     17  C   UNL     1      -9.580  11.142  68.536  0.00  0.00    +0.000 C 
ENDBRANCH  15  16
BRANCH  15  18
ATOM     18  C   UNL     1     -11.083  12.951  69.172  0.00  0.00    +0.004 C 
BRANCH  18  19
ATOM     19  C   UNL     1     -12.079  14.000  69.544  0.00  0.00    +0.000 C 
BRANCH  19  21
ATOM     20  C   UNL     1     -11.555  15.780  70.710  0.00  0.00    +0.000 C 
ATOM     21  C   UNL     1     -11.561  15.048  70.487  0.00  0.00    +0.000 C 
ENDBRANCH  19  21
ENDBRANCH  18  19
ENDBRANCH  15  18
ENDBRANCH  14  15
ENDBRANCH  13  14
ENDBRANCH   1  13
TORSDOF 10
ENDMDL
MODEL 7
REMARK VINA RESULT:      -4.8      2.287      6.063
REMARK  Name = 
REMARK  10 active torsions:
REMARK  status: ('A' for Active; 'I' for Inactive)
REMARK    1  A    between atoms: C_2  and  C_3
REMARK    2  A    between atoms: C_3  and  C_4
REMARK    3  A    between atoms: C_4  and  C_5
REMARK    4  A    between atoms: C_5  and  C_6
REMARK    5  A    between atoms: C_5  and  C_8
REMARK    6  A    between atoms: C_8  and  O_9
REMARK    7  A    between atoms: O_9  and  C_10
REMARK    8  A    between atoms: C_10  and  C_12
REMARK    9  A    between atoms: C_13  and  C_14
REMARK   10  A    between atoms: C_17  and  O_18
REMARK                            x       y       z     vdW  Elec       q    Type
REMARK                         _______ _______ _______ _____ _____    ______ ____
ROOT
ATOM      1  C   UNL     1      -9.301  15.995  66.292  0.00  0.00    +0.341 C 
ATOM      2  O   UNL     1      -8.647  16.990  65.853  0.00  0.00    -0.245 OA
ENDROOT
BRANCH   1   3
ATOM      3  C   UNL     1      -8.729  15.021  67.232  0.00  0.00    +0.082 C 
ATOM      4  C   UNL     1      -9.003  15.246  68.487  0.00  0.00    +0.007 C 
BRANCH   4   5
ATOM      5  C   UNL     1     -10.435  15.220  68.812  0.00  0.00    +0.000 A 
ATOM      6  C   UNL     1     -10.838  16.284  69.614  0.00  0.00    +0.003 A 
ATOM      7  C   UNL     1     -11.640  16.106  70.735  0.00  0.00    +0.037 A 
ATOM      8  C   UNL     1     -12.226  14.875  70.965  0.00  0.00    +0.139 A 
ATOM      9  C   UNL     1     -12.237  14.009  69.889  0.00  0.00    +0.037 A 
ATOM     10  C   UNL     1     -11.152  14.056  69.020  0.00  0.00    +0.003 A 
BRANCH   8  11
ATOM     11  O   UNL     1     -12.637  14.492  72.245  0.00  0.00    -0.471 OA
ATOM     12  C   UNL     1     -13.697  13.586  72.476  0.00  0.00    +0.252 C 
ENDBRANCH   8  11
ENDBRANCH   4   5
ENDBRANCH   1   3
BRANCH   1  13
ATOM     13  O   UNL     1      -9.961  15.320  65.258  0.00  0.00    -0.445 OA
BRANCH  13  14
ATOM     14  C   UNL     1     -10.157  13.992  65.096  0.00  0.00    +0.209 C 
BRANCH  14  15
ATOM     15  C   UNL     1     -11.679  13.697  64.533  0.00  0.00    +0.044 C 
BRANCH  15  16
ATOM     16  C   UNL     1     -11.263  12.358  63.658  0.00  0.00    +0.004 C 
ATOM     17  C   UNL     1     -12.634  11.875  63.243  0.00  0.00    +0.000 C 
ENDBRANCH  15  16
BRANCH  15  18
ATOM     18  C   UNL     1     -12.070  12.790  65.859  0.00  0.00    +0.004 C 
BRANCH  18  19
ATOM     19  C   UNL     1     -10.865  11.967  66.178  0.00  0.00    +0.000 C 
BRANCH  19  21
ATOM     20  C   UNL     1     -10.886  10.510  67.816  0.00  0.00    +0.000 C 
ATOM     21  C   UNL     1     -11.103  10.870  67.176  0.00  0.00    +0.000 C 
ENDBRANCH  19  21
ENDBRANCH  18  19
ENDBRANCH  15  18
ENDBRANCH  14  15
ENDBRANCH  13  14
ENDBRANCH   1  13
TORSDOF 10
ENDMDL
MODEL 8
REMARK VINA RESULT:      -4.7      2.099      3.616
REMARK  Name = 
REMARK  10 active torsions:
REMARK  status: ('A' for Active; 'I' for Inactive)
REMARK    1  A    between atoms: C_2  and  C_3
REMARK    2  A    between atoms: C_3  and  C_4
REMARK    3  A    between atoms: C_4  and  C_5
REMARK    4  A    between atoms: C_5  and  C_6
REMARK    5  A    between atoms: C_5  and  C_8
REMARK    6  A    between atoms: C_8  and  O_9
REMARK    7  A    between atoms: O_9  and  C_10
REMARK    8  A    between atoms: C_10  and  C_12
REMARK    9  A    between atoms: C_13  and  C_14
REMARK   10  A    between atoms: C_17  and  O_18
REMARK                            x       y       z     vdW  Elec       q    Type
REMARK                         _______ _______ _______ _____ _____    ______ ____
ROOT
ATOM      1  C   UNL     1     -11.140  15.687  64.591  0.00  0.00    +0.341 C 
ATOM      2  O   UNL     1     -11.636  16.547  63.801  0.00  0.00    -0.245 OA
ENDROOT
BRANCH   1   3
ATOM      3  C   UNL     1     -11.966  14.756  65.372  0.00  0.00    +0.082 C 
ATOM      4  C   UNL     1     -12.038  13.548  64.884  0.00  0.00    +0.007 C 
BRANCH   4   5
ATOM      5  C   UNL     1     -10.749  12.851  64.792  0.00  0.00    +0.000 A 
ATOM      6  C   UNL     1     -10.687  11.944  63.738  0.00  0.00    +0.003 A 
ATOM      7  C   UNL     1     -10.196  10.654  63.898  0.00  0.00    +0.037 A 
ATOM      8  C   UNL     1      -9.566  10.305  65.078  0.00  0.00    +0.139 A 
ATOM      9  C   UNL     1      -9.179  11.360  65.882  0.00  0.00    +0.037 A 
ATOM     10  C   UNL     1      -9.994  12.487  65.893  0.00  0.00    +0.003 A 
BRANCH   8  11
ATOM     11  O   UNL     1      -9.471   8.972  65.487  0.00  0.00    -0.471 OA
ATOM     12  C   UNL     1     -10.195   8.447  66.582  0.00  0.00    +0.252 C 
ENDBRANCH   8  11
ENDBRANCH   4   5
ENDBRANCH   1   3
BRANCH   1  13
ATOM     13  O   UNL     1     -10.163  16.256  65.418  0.00  0.00    -0.445 OA
BRANCH  13  14
ATOM     14  C   UNL     1     -10.305  17.188  66.388  0.00  0.00    +0.209 C 
BRANCH  14  15
ATOM     15  C   UNL     1      -9.012  17.156  67.412  0.00  0.00    +0.044 C 
BRANCH  15  16
ATOM     16  C   UNL     1      -9.829  17.778  68.708  0.00  0.00    +0.004 C 
ATOM     17  C   UNL     1      -9.869  19.239  68.320  0.00  0.00    +0.000 C 
ENDBRANCH  15  16
BRANCH  15  18
ATOM     18  C   UNL     1      -9.329  15.601  67.876  0.00  0.00    +0.004 C 
BRANCH  18  19
ATOM     19  C   UNL     1     -10.552  15.656  68.733  0.00  0.00    +0.000 C 
BRANCH  19  21
ATOM     20  C   UNL     1     -11.822  13.891  69.006  0.00  0.00    +0.000 C 
ATOM     21  C   UNL     1     -11.190  14.323  68.999  0.00  0.00    +0.000 C 
ENDBRANCH  19  21
ENDBRANCH  18  19
ENDBRANCH  15  18
ENDBRANCH  14  15
ENDBRANCH  13  14
ENDBRANCH   1  13
TORSDOF 10
ENDMDL
MODEL 9
REMARK VINA RESULT:      -4.7      2.165      4.734
REMARK  Name = 
REMARK  10 active torsions:
REMARK  status: ('A' for Active; 'I' for Inactive)
REMARK    1  A    between atoms: C_2  and  C_3
REMARK    2  A    between atoms: C_3  and  C_4
REMARK    3  A    between atoms: C_4  and  C_5
REMARK    4  A    between atoms: C_5  and  C_6
REMARK    5  A    between atoms: C_5  and  C_8
REMARK    6  A    between atoms: C_8  and  O_9
REMARK    7  A    between atoms: O_9  and  C_10
REMARK    8  A    between atoms: C_10  and  C_12
REMARK    9  A    between atoms: C_13  and  C_14
REMARK   10  A    between atoms: C_17  and  O_18
REMARK                            x       y       z     vdW  Elec       q    Type
REMARK                         _______ _______ _______ _____ _____    ______ ____
ROOT
ATOM      1  C   UNL     1     -10.642  14.125  64.998  0.00  0.00    +0.341 C 
ATOM      2  O   UNL     1     -10.126  13.412  64.083  0.00  0.00    -0.245 OA
ENDROOT
BRANCH   1   3
ATOM      3  C   UNL     1     -12.064  14.049  65.358  0.00  0.00    +0.082 C 
ATOM      4  C   UNL     1     -12.376  13.057  66.146  0.00  0.00    +0.007 C 
BRANCH   4   5
ATOM      5  C   UNL     1     -11.705  13.083  67.452  0.00  0.00    +0.000 A 
ATOM      6  C   UNL     1     -11.468  11.815  67.975  0.00  0.00    +0.003 A 
ATOM      7  C   UNL     1     -11.761  11.490  69.294  0.00  0.00    +0.037 A 
ATOM      8  C   UNL     1     -12.113  12.491  70.180  0.00  0.00    +0.139 A 
ATOM      9  C   UNL     1     -11.828  13.779  69.770  0.00  0.00    +0.037 A 
ATOM     10  C   UNL     1     -11.931  14.054  68.411  0.00  0.00    +0.003 A 
BRANCH   8  11
ATOM     11  O   UNL     1     -12.844  12.214  71.339  0.00  0.00    -0.471 OA
ATOM     12  C   UNL     1     -13.491  13.214  72.100  0.00  0.00    +0.252 C 
ENDBRANCH   8  11
ENDBRANCH   4   5
ENDBRANCH   1   3
BRANCH   1  13
ATOM     13  O   UNL     1     -10.258  15.467  64.878  0.00  0.00    -0.445 OA
BRANCH  13  14
ATOM     14  C   UNL     1     -10.187  16.422  65.833  0.00  0.00    +0.209 C 
BRANCH  14  15
ATOM     15  C   UNL     1      -9.061  16.019  66.969  0.00  0.00    +0.044 C 
BRANCH  15  16
ATOM     16  C   UNL     1      -7.827  16.867  66.268  0.00  0.00    +0.004 C 
ATOM     17  C   UNL     1      -6.785  16.769  67.359  0.00  0.00    +0.000 C 
ENDBRANCH  15  16
BRANCH  15  18
ATOM     18  C   UNL     1      -9.477  17.296  67.935  0.00  0.00    +0.004 C 
BRANCH  18  19
ATOM     19  C   UNL     1     -10.301  18.214  67.092  0.00  0.00    +0.000 C 
BRANCH  19  21
ATOM     20  C   UNL     1      -9.891  20.352  67.349  0.00  0.00    +0.000 C 
ATOM     21  C   UNL     1     -10.206  19.664  67.469  0.00  0.00    +0.000 C 
ENDBRANCH  19  21
ENDBRANCH  18  19
ENDBRANCH  15  18
ENDBRANCH  14  15
ENDBRANCH  13  14
ENDBRANCH   1  13
TORSDOF 10
ENDMDL
