MODEL 1
REMARK VINA RESULT:      -5.6      0.000      0.000
REMARK  Name = 
REMARK  7 active torsions:
REMARK  status: ('A' for Active; 'I' for Inactive)
REMARK    1  A    between atoms: C_2  and  N_3
REMARK    2  A    between atoms: N_3  and  C_4
REMARK    3  A    between atoms: N_3  and  C_6
REMARK    4  A    between atoms: C_6  and  C_7
REMARK    5  A    between atoms: C_7  and  N_8
REMARK    6  A    between atoms: C_9  and  C_11
REMARK    7  A    between atoms: C_18  and  O_19
REMARK                            x       y       z     vdW  Elec       q    Type
REMARK                         _______ _______ _______ _____ _____    ______ ____
ROOT
ATOM      1  N   UNL     1     -10.761  17.005  69.443  0.00  0.00    -0.200 NA
ATOM      2  C   UNL     1      -9.699  17.012  68.515  0.00  0.00    +0.268 C 
ATOM      3  O   UNL     1      -9.686  16.088  67.651  0.00  0.00    -0.268 OA
ENDROOT
BRANCH   2   4
ATOM      4  C   UNL     1      -8.910  18.213  68.254  0.00  0.00    +0.090 A 
ATOM      5  C   UNL     1      -9.474  19.373  67.743  0.00  0.00    +0.144 A 
ATOM      6  C   UNL     1      -8.648  20.450  67.447  0.00  0.00    +0.056 A 
ATOM      7  C   UNL     1      -7.279  20.414  67.653  0.00  0.00    +0.103 A 
ATOM      8  N   UNL     1      -6.400  21.428  67.190  0.00  0.00    -0.127 NA
ATOM      9  C   UNL     1      -6.721  19.173  67.912  0.00  0.00    +0.075 A 
ATOM     10 CL   UNL     1      -5.068  18.799  67.429  0.00  0.00    -0.081 Cl
ATOM     11  C   UNL     1      -7.548  18.189  68.441  0.00  0.00    +0.020 A 
BRANCH   5  12
ATOM     12  O   UNL     1     -10.710  19.284  67.097  0.00  0.00    -0.471 OA
ATOM     13  C   UNL     1     -10.768  19.496  65.691  0.00  0.00    +0.252 C 
ENDBRANCH   5  12
ENDBRANCH   2   4
BRANCH   1  14
ATOM     14  C   UNL     1     -11.651  15.854  69.539  0.00  0.00    +0.133 C 
BRANCH  14  15
ATOM     15  C   UNL     1     -11.625  15.249  70.913  0.00  0.00    +0.096 C 
BRANCH  15  16
ATOM     16  N   UNL     1     -12.699  15.697  71.760  0.00  0.00    -0.271 NA
BRANCH  16  18
ATOM     17  C   UNL     1     -12.451  15.380  74.146  0.00  0.00    +0.019 C 
ATOM     18  C   UNL     1     -12.141  16.257  72.965  0.00  0.00    +0.072 C 
ENDBRANCH  16  18
BRANCH  16  19
ATOM     19  C   UNL     1     -13.660  14.669  72.068  0.00  0.00    +0.072 C 
ATOM     20  C   UNL     1     -15.007  15.053  71.510  0.00  0.00    +0.019 C 
ENDBRANCH  16  19
ENDBRANCH  15  16
ENDBRANCH  14  15
ENDBRANCH   1  14
TORSDOF 7
ENDMDL
MODEL 2
REMARK VINA RESULT:      -5.6      3.531      4.582
REMARK  Name = 
REMARK  7 active torsions:
REMARK  status: ('A' for Active; 'I' for Inactive)
REMARK    1  A    between atoms: C_2  and  N_3
REMARK    2  A    between atoms: N_3  and  C_4
REMARK    3  A    between atoms: N_3  and  C_6
REMARK    4  A    between atoms: C_6  and  C_7
REMARK    5  A    between atoms: C_7  and  N_8
REMARK    6  A    between atoms: C_9  and  C_11
REMARK    7  A    between atoms: C_18  and  O_19
REMARK                            x       y       z     vdW  Elec       q    Type
REMARK                         _______ _______ _______ _____ _____    ______ ____
ROOT
ATOM      1  N   UNL     1     -10.971  15.269  67.235  0.00  0.00    -0.200 NA
ATOM      2  C   UNL     1     -11.007  16.319  68.176  0.00  0.00    +0.268 C 
ATOM      3  O   UNL     1     -11.915  16.270  69.056  0.00  0.00    -0.268 OA
ENDROOT
BRANCH   2   4
ATOM      4  C   UNL     1      -9.849  17.172  68.427  0.00  0.00    +0.090 A 
ATOM      5  C   UNL     1      -9.899  18.551  68.284  0.00  0.00    +0.144 A 
ATOM      6  C   UNL     1      -8.736  19.290  68.464  0.00  0.00    +0.056 A 
ATOM      7  C   UNL     1      -7.526  18.702  68.792  0.00  0.00    +0.103 A 
ATOM      8  N   UNL     1      -6.298  19.413  68.801  0.00  0.00    -0.127 NA
ATOM      9  C   UNL     1      -7.452  17.325  68.672  0.00  0.00    +0.075 A 
ATOM     10 CL   UNL     1      -5.932  16.527  68.273  0.00  0.00    -0.081 Cl
ATOM     11  C   UNL     1      -8.637  16.603  68.742  0.00  0.00    +0.020 A 
BRANCH   5  12
ATOM     12  O   UNL     1     -10.927  19.104  67.515  0.00  0.00    -0.471 OA
ATOM     13  C   UNL     1     -10.622  19.617  66.224  0.00  0.00    +0.252 C 
ENDBRANCH   5  12
ENDBRANCH   2   4
BRANCH   1  14
ATOM     14  C   UNL     1     -12.072  14.316  67.148  0.00  0.00    +0.133 C 
BRANCH  14  15
ATOM     15  C   UNL     1     -11.581  12.898  67.224  0.00  0.00    +0.096 C 
BRANCH  15  16
ATOM     16  N   UNL     1     -11.916  12.111  66.067  0.00  0.00    -0.271 NA
BRANCH  16  18
ATOM     17  C   UNL     1     -10.287  10.398  66.584  0.00  0.00    +0.019 C 
ATOM     18  C   UNL     1     -10.728  11.443  65.597  0.00  0.00    +0.072 C 
ENDBRANCH  16  18
BRANCH  16  19
ATOM     19  C   UNL     1     -12.532  12.869  65.010  0.00  0.00    +0.072 C 
ATOM     20  C   UNL     1     -12.285  12.186  63.688  0.00  0.00    +0.019 C 
ENDBRANCH  16  19
ENDBRANCH  15  16
ENDBRANCH  14  15
ENDBRANCH   1  14
TORSDOF 7
ENDMDL
MODEL 3
REMARK VINA RESULT:      -5.6      5.793      7.246
REMARK  Name = 
REMARK  7 active torsions:
REMARK  status: ('A' for Active; 'I' for Inactive)
REMARK    1  A    between atoms: C_2  and  N_3
REMARK    2  A    between atoms: N_3  and  C_4
REMARK    3  A    between atoms: N_3  and  C_6
REMARK    4  A    between atoms: C_6  and  C_7
REMARK    5  A    between atoms: C_7  and  N_8
REMARK    6  A    between atoms: C_9  and  C_11
REMARK    7  A    between atoms: C_18  and  O_19
REMARK                            x       y       z     vdW  Elec       q    Type
REMARK                         _______ _______ _______ _____ _____    ______ ____
ROOT
ATOM      1  N   UNL     1     -12.164  10.988  69.175  0.00  0.00    -0.200 NA
ATOM      2  C   UNL     1     -11.140  11.680  68.495  0.00  0.00    +0.268 C 
ATOM      3  O   UNL     1      -9.960  11.250  68.645  0.00  0.00    -0.268 OA
ENDROOT
BRANCH   2   4
ATOM      4  C   UNL     1     -11.420  12.546  67.353  0.00  0.00    +0.090 A 
ATOM      5  C   UNL     1     -11.738  13.888  67.501  0.00  0.00    +0.144 A 
ATOM      6  C   UNL     1     -12.068  14.631  66.374  0.00  0.00    +0.056 A 
ATOM      7  C   UNL     1     -12.080  14.084  65.102  0.00  0.00    +0.103 A 
ATOM      8  N   UNL     1     -12.587  14.772  63.969  0.00  0.00    -0.127 NA
ATOM      9  C   UNL     1     -12.014  12.703  65.018  0.00  0.00    +0.075 A 
ATOM     10 CL   UNL     1     -12.776  11.834  63.687  0.00  0.00    -0.081 Cl
ATOM     11  C   UNL     1     -11.447  12.015  66.084  0.00  0.00    +0.020 A 
BRANCH   5  12
ATOM     12  O   UNL     1     -12.192  14.331  68.747  0.00  0.00    -0.471 OA
ATOM     13  C   UNL     1     -11.799  15.620  69.203  0.00  0.00    +0.252 C 
ENDBRANCH   5  12
ENDBRANCH   2   4
BRANCH   1  14
ATOM     14  C   UNL     1     -11.837   9.984  70.180  0.00  0.00    +0.133 C 
BRANCH  14  15
ATOM     15  C   UNL     1     -12.920   9.865  71.215  0.00  0.00    +0.096 C 
BRANCH  15  16
ATOM     16  N   UNL     1     -12.779   8.713  72.066  0.00  0.00    -0.271 NA
BRANCH  16  18
ATOM     17  C   UNL     1     -11.185   7.003  72.687  0.00  0.00    +0.019 C 
ATOM     18  C   UNL     1     -11.378   8.422  72.232  0.00  0.00    +0.072 C 
ENDBRANCH  16  18
BRANCH  16  19
ATOM     19  C   UNL     1     -13.493   7.555  71.593  0.00  0.00    +0.072 C 
ATOM     20  C   UNL     1     -14.959   7.697  71.916  0.00  0.00    +0.019 C 
ENDBRANCH  16  19
ENDBRANCH  15  16
ENDBRANCH  14  15
ENDBRANCH   1  14
TORSDOF 7
ENDMDL
MODEL 4
REMARK VINA RESULT:      -5.5      4.796      6.417
REMARK  Name = 
REMARK  7 active torsions:
REMARK  status: ('A' for Active; 'I' for Inactive)
REMARK    1  A    between atoms: C_2  and  N_3
REMARK    2  A    between atoms: N_3  and  C_4
REMARK    3  A    between atoms: N_3  and  C_6
REMARK    4  A    between atoms: C_6  and  C_7
REMARK    5  A    between atoms: C_7  and  N_8
REMARK    6  A    between atoms: C_9  and  C_11
REMARK    7  A    between atoms: C_18  and  O_19
REMARK                            x       y       z     vdW  Elec       q    Type
REMARK                         _______ _______ _______ _____ _____    ______ ____
ROOT
ATOM      1  N   UNL     1     -11.011  14.904  69.182  0.00  0.00    -0.200 NA
ATOM      2  C   UNL     1     -11.375  13.595  68.802  0.00  0.00    +0.268 C 
ATOM      3  O   UNL     1     -11.779  12.822  69.718  0.00  0.00    -0.268 OA
ENDROOT
BRANCH   2   4
ATOM      4  C   UNL     1     -11.698  13.253  67.419  0.00  0.00    +0.090 A 
ATOM      5  C   UNL     1     -11.364  12.028  66.861  0.00  0.00    +0.144 A 
ATOM      6  C   UNL     1     -11.634  11.803  65.517  0.00  0.00    +0.056 A 
ATOM      7  C   UNL     1     -12.237  12.755  64.712  0.00  0.00    +0.103 A 
ATOM      8  N   UNL     1     -12.355  12.615  63.304  0.00  0.00    -0.127 NA
ATOM      9  C   UNL     1     -12.319  14.040  65.223  0.00  0.00    +0.075 A 
ATOM     10 CL   UNL     1     -12.292  15.445  64.160  0.00  0.00    -0.081 Cl
ATOM     11  C   UNL     1     -12.286  14.192  66.603  0.00  0.00    +0.020 A 
BRANCH   5  12
ATOM     12  O   UNL     1     -10.366  11.266  67.476  0.00  0.00    -0.471 OA
ATOM     13  C   UNL     1     -10.657   9.925  67.852  0.00  0.00    +0.252 C 
ENDBRANCH   5  12
ENDBRANCH   2   4
BRANCH   1  14
ATOM     14  C   UNL     1     -10.886  15.256  70.591  0.00  0.00    +0.133 C 
BRANCH  14  15
ATOM     15  C   UNL     1     -12.188  15.751  71.153  0.00  0.00    +0.096 C 
BRANCH  15  16
ATOM     16  N   UNL     1     -12.492  15.219  72.456  0.00  0.00    -0.271 NA
BRANCH  16  18
ATOM     17  C   UNL     1     -14.749  15.008  71.609  0.00  0.00    +0.019 C 
ATOM     18  C   UNL     1     -13.625  14.335  72.347  0.00  0.00    +0.072 C 
ENDBRANCH  16  18
BRANCH  16  19
ATOM     19  C   UNL     1     -12.723  16.231  73.454  0.00  0.00    +0.072 C 
ATOM     20  C   UNL     1     -12.466  15.657  74.825  0.00  0.00    +0.019 C 
ENDBRANCH  16  19
ENDBRANCH  15  16
ENDBRANCH  14  15
ENDBRANCH   1  14
TORSDOF 7
ENDMDL
MODEL 5
REMARK VINA RESULT:      -5.5      2.981      7.492
REMARK  Name = 
REMARK  7 active torsions:
REMARK  status: ('A' for Active; 'I' for Inactive)
REMARK    1  A    between atoms: C_2  and  N_3
REMARK    2  A    between atoms: N_3  and  C_4
REMARK    3  A    between atoms: N_3  and  C_6
REMARK    4  A    between atoms: C_6  and  C_7
REMARK    5  A    between atoms: C_7  and  N_8
REMARK    6  A    between atoms: C_9  and  C_11
REMARK    7  A    between atoms: C_18  and  O_19
REMARK                            x       y       z     vdW  Elec       q    Type
REMARK                         _______ _______ _______ _____ _____    ______ ____
ROOT
ATOM      1  N   UNL     1      -9.189  16.311  68.893  0.00  0.00    -0.200 NA
ATOM      2  C   UNL     1     -10.561  16.482  69.172  0.00  0.00    +0.268 C 
ATOM      3  O   UNL     1     -11.221  17.216  68.381  0.00  0.00    -0.268 OA
ENDROOT
BRANCH   2   4
ATOM      4  C   UNL     1     -11.296  15.554  70.028  0.00  0.00    +0.090 A 
ATOM      5  C   UNL     1     -11.674  14.290  69.598  0.00  0.00    +0.144 A 
ATOM      6  C   UNL     1     -12.439  13.492  70.440  0.00  0.00    +0.056 A 
ATOM      7  C   UNL     1     -12.831  13.907  71.702  0.00  0.00    +0.103 A 
ATOM      8  N   UNL     1     -13.758  13.187  72.500  0.00  0.00    -0.127 NA
ATOM      9  C   UNL     1     -12.664  15.251  71.994  0.00  0.00    +0.075 A 
ATOM     10 CL   UNL     1     -13.745  16.080  73.111  0.00  0.00    -0.081 Cl
ATOM     11  C   UNL     1     -11.703  15.955  71.279  0.00  0.00    +0.020 A 
BRANCH   5  12
ATOM     12  O   UNL     1     -11.716  14.040  68.223  0.00  0.00    -0.471 OA
ATOM     13  C   UNL     1     -11.660  12.693  67.768  0.00  0.00    +0.252 C 
ENDBRANCH   5  12
ENDBRANCH   2   4
BRANCH   1  14
ATOM     14  C   UNL     1      -8.533  17.135  67.884  0.00  0.00    +0.133 C 
BRANCH  14  15
ATOM     15  C   UNL     1      -7.941  18.377  68.487  0.00  0.00    +0.096 C 
BRANCH  15  16
ATOM     16  N   UNL     1      -8.126  19.553  67.678  0.00  0.00    -0.271 NA
BRANCH  16  18
ATOM     17  C   UNL     1     -10.235  20.040  66.596  0.00  0.00    +0.019 C 
ATOM     18  C   UNL     1      -8.973  19.224  66.560  0.00  0.00    +0.072 C 
ENDBRANCH  16  18
BRANCH  16  19
ATOM     19  C   UNL     1      -6.893  20.148  67.232  0.00  0.00    +0.072 C 
ATOM     20  C   UNL     1      -6.117  20.657  68.421  0.00  0.00    +0.019 C 
ENDBRANCH  16  19
ENDBRANCH  15  16
ENDBRANCH  14  15
ENDBRANCH   1  14
TORSDOF 7
ENDMDL
MODEL 6
REMARK VINA RESULT:      -5.5      5.732      6.863
REMARK  Name = 
REMARK  7 active torsions:
REMARK  status: ('A' for Active; 'I' for Inactive)
REMARK    1  A    between atoms: C_2  and  N_3
REMARK    2  A    between atoms: N_3  and  C_4
REMARK    3  A    between atoms: N_3  and  C_6
REMARK    4  A    between atoms: C_6  and  C_7
REMARK    5  A    between atoms: C_7  and  N_8
REMARK    6  A    between atoms: C_9  and  C_11
REMARK    7  A    between atoms: C_18  and  O_19
REMARK                            x       y       z     vdW  Elec       q    Type
REMARK                         _______ _______ _______ _____ _____    ______ ____
ROOT
ATOM      1  N   UNL     1     -10.761  10.817  66.710  0.00  0.00    -0.200 NA
ATOM      2  C   UNL     1     -11.638  11.860  67.078  0.00  0.00    +0.268 C 
ATOM      3  O   UNL     1     -12.149  11.798  68.233  0.00  0.00    -0.268 OA
ENDROOT
BRANCH   2   4
ATOM      4  C   UNL     1     -11.637  13.148  66.391  0.00  0.00    +0.090 A 
ATOM      5  C   UNL     1     -12.464  13.412  65.309  0.00  0.00    +0.144 A 
ATOM      6  C   UNL     1     -12.353  14.633  64.657  0.00  0.00    +0.056 A 
ATOM      7  C   UNL     1     -11.452  15.607  65.054  0.00  0.00    +0.103 A 
ATOM      8  N   UNL     1     -11.197  16.780  64.296  0.00  0.00    -0.127 NA
ATOM      9  C   UNL     1     -10.476  15.220  65.957  0.00  0.00    +0.075 A 
ATOM     10 CL   UNL     1      -8.888  15.984  65.964  0.00  0.00    -0.081 Cl
ATOM     11  C   UNL     1     -10.740  14.122  66.765  0.00  0.00    +0.020 A 
BRANCH   5  12
ATOM     12  O   UNL     1     -13.011  12.331  64.610  0.00  0.00    -0.471 OA
ATOM     13  C   UNL     1     -12.441  11.962  63.360  0.00  0.00    +0.252 C 
ENDBRANCH   5  12
ENDBRANCH   2   4
BRANCH   1  14
ATOM     14  C   UNL     1     -10.649   9.620  67.534  0.00  0.00    +0.133 C 
BRANCH  14  15
ATOM     15  C   UNL     1      -9.451   9.683  68.438  0.00  0.00    +0.096 C 
BRANCH  15  16
ATOM     16  N   UNL     1      -9.782   9.646  69.838  0.00  0.00    -0.271 NA
BRANCH  16  18
ATOM     17  C   UNL     1      -7.740   8.371  69.597  0.00  0.00    +0.019 C 
ATOM     18  C   UNL     1      -8.709   9.005  70.555  0.00  0.00    +0.072 C 
ENDBRANCH  16  18
BRANCH  16  19
ATOM     19  C   UNL     1     -11.042   9.007  70.117  0.00  0.00    +0.072 C 
ATOM     20  C   UNL     1     -11.496   9.372  71.508  0.00  0.00    +0.019 C 
ENDBRANCH  16  19
ENDBRANCH  15  16
ENDBRANCH  14  15
ENDBRANCH   1  14
TORSDOF 7
ENDMDL
MODEL 7
REMARK VINA RESULT:      -5.4      3.690      7.756
REMARK  Name = 
REMARK  7 active torsions:
REMARK  status: ('A' for Active; 'I' for Inactive)
REMARK    1  A    between atoms: C_2  and  N_3
REMARK    2  A    between atoms: N_3  and  C_4
REMARK    3  A    between atoms: N_3  and  C_6
REMARK    4  A    between atoms: C_6  and  C_7
REMARK    5  A    between atoms: C_7  and  N_8
REMARK    6  A    between atoms: C_9  and  C_11
REMARK    7  A    between atoms: C_18  and  O_19
REMARK                            x       y       z     vdW  Elec       q    Type
REMARK                         _______ _______ _______ _____ _____    ______ ____
ROOT
ATOM      1  N   UNL     1     -10.129  15.448  69.632  0.00  0.00    -0.200 NA
ATOM      2  C   UNL     1     -11.511  15.278  69.858  0.00  0.00    +0.268 C 
ATOM      3  O   UNL     1     -12.291  16.082  69.270  0.00  0.00    -0.268 OA
ENDROOT
BRANCH   2   4
ATOM      4  C   UNL     1     -12.063  14.023  70.360  0.00  0.00    +0.090 A 
ATOM      5  C   UNL     1     -12.790  13.952  71.540  0.00  0.00    +0.144 A 
ATOM      6  C   UNL     1     -13.217  12.711  71.995  0.00  0.00    +0.056 A 
ATOM      7  C   UNL     1     -12.955  11.538  71.308  0.00  0.00    +0.103 A 
ATOM      8  N   UNL     1     -13.222  10.251  71.844  0.00  0.00    -0.127 NA
ATOM      9  C   UNL     1     -12.019  11.610  70.289  0.00  0.00    +0.075 A 
ATOM     10 CL   UNL     1     -11.016  10.221  69.875  0.00  0.00    -0.081 Cl
ATOM     11  C   UNL     1     -11.801  12.847  69.696  0.00  0.00    +0.020 A 
BRANCH   5  12
ATOM     12  O   UNL     1     -12.660  14.993  72.464  0.00  0.00    -0.471 OA
ATOM     13  C   UNL     1     -13.814  15.746  72.818  0.00  0.00    +0.252 C 
ENDBRANCH   5  12
ENDBRANCH   2   4
BRANCH   1  14
ATOM     14  C   UNL     1      -9.632  16.636  68.949  0.00  0.00    +0.133 C 
BRANCH  14  15
ATOM     15  C   UNL     1      -9.009  16.293  67.626  0.00  0.00    +0.096 C 
BRANCH  15  16
ATOM     16  N   UNL     1      -9.727  16.821  66.497  0.00  0.00    -0.271 NA
BRANCH  16  18
ATOM     17  C   UNL     1      -9.647  19.230  66.289  0.00  0.00    +0.019 C 
ATOM     18  C   UNL     1     -10.367  18.053  66.884  0.00  0.00    +0.072 C 
ENDBRANCH  16  18
BRANCH  16  19
ATOM     19  C   UNL     1     -10.681  15.900  65.935  0.00  0.00    +0.072 C 
ATOM     20  C   UNL     1      -9.987  14.609  65.577  0.00  0.00    +0.019 C 
ENDBRANCH  16  19
ENDBRANCH  15  16
ENDBRANCH  14  15
ENDBRANCH   1  14
TORSDOF 7
ENDMDL
MODEL 8
REMARK VINA RESULT:      -5.4      4.237      8.145
REMARK  Name = 
REMARK  7 active torsions:
REMARK  status: ('A' for Active; 'I' for Inactive)
REMARK    1  A    between atoms: C_2  and  N_3
REMARK    2  A    between atoms: N_3  and  C_4
REMARK    3  A    between atoms: N_3  and  C_6
REMARK    4  A    between atoms: C_6  and  C_7
REMARK    5  A    between atoms: C_7  and  N_8
REMARK    6  A    between atoms: C_9  and  C_11
REMARK    7  A    between atoms: C_18  and  O_19
REMARK                            x       y       z     vdW  Elec       q    Type
REMARK                         _______ _______ _______ _____ _____    ______ ____
ROOT
ATOM      1  N   UNL     1     -10.141  14.535  67.237  0.00  0.00    -0.200 NA
ATOM      2  C   UNL     1     -11.444  14.166  67.631  0.00  0.00    +0.268 C 
ATOM      3  O   UNL     1     -12.381  14.411  66.817  0.00  0.00    -0.268 OA
ENDROOT
BRANCH   2   4
ATOM      4  C   UNL     1     -11.683  13.179  68.681  0.00  0.00    +0.090 A 
ATOM      5  C   UNL     1     -11.659  11.814  68.434  0.00  0.00    +0.144 A 
ATOM      6  C   UNL     1     -11.972  10.937  69.465  0.00  0.00    +0.056 A 
ATOM      7  C   UNL     1     -12.297  11.374  70.738  0.00  0.00    +0.103 A 
ATOM      8  N   UNL     1     -12.794  10.511  71.750  0.00  0.00    -0.127 NA
ATOM      9  C   UNL     1     -12.563  12.726  70.883  0.00  0.00    +0.075 A 
ATOM     10 CL   UNL     1     -13.691  13.306  72.106  0.00  0.00    -0.081 Cl
ATOM     11  C   UNL     1     -12.018  13.597  69.948  0.00  0.00    +0.020 A 
BRANCH   5  12
ATOM     12  O   UNL     1     -11.810  11.373  67.116  0.00  0.00    -0.471 OA
ATOM     13  C   UNL     1     -10.687  10.815  66.445  0.00  0.00    +0.252 C 
ENDBRANCH   5  12
ENDBRANCH   2   4
BRANCH   1  14
ATOM     14  C   UNL     1      -9.934  15.370  66.059  0.00  0.00    +0.133 C 
BRANCH  14  15
ATOM     15  C   UNL     1      -8.679  16.188  66.177  0.00  0.00    +0.096 C 
BRANCH  15  16
ATOM     16  N   UNL     1      -8.896  17.601  66.018  0.00  0.00    -0.271 NA
BRANCH  16  18
ATOM     17  C   UNL     1      -6.741  18.656  65.700  0.00  0.00    +0.019 C 
ATOM     18  C   UNL     1      -7.831  18.315  66.677  0.00  0.00    +0.072 C 
ENDBRANCH  16  18
BRANCH  16  19
ATOM     19  C   UNL     1     -10.182  18.046  66.490  0.00  0.00    +0.072 C 
ATOM     20  C   UNL     1     -10.417  19.470  66.051  0.00  0.00    +0.019 C 
ENDBRANCH  16  19
ENDBRANCH  15  16
ENDBRANCH  14  15
ENDBRANCH   1  14
TORSDOF 7
ENDMDL
MODEL 9
REMARK VINA RESULT:      -5.4      5.643      6.908
REMARK  Name = 
REMARK  7 active torsions:
REMARK  status: ('A' for Active; 'I' for Inactive)
REMARK    1  A    between atoms: C_2  and  N_3
REMARK    2  A    between atoms: N_3  and  C_4
REMARK    3  A    between atoms: N_3  and  C_6
REMARK    4  A    between atoms: C_6  and  C_7
REMARK    5  A    between atoms: C_7  and  N_8
REMARK    6  A    between atoms: C_9  and  C_11
REMARK    7  A    between atoms: C_18  and  O_19
REMARK                            x       y       z     vdW  Elec       q    Type
REMARK                         _______ _______ _______ _____ _____    ______ ____
ROOT
ATOM      1  N   UNL     1     -11.420  13.185  69.189  0.00  0.00    -0.200 NA
ATOM      2  C   UNL     1     -11.566  11.863  68.720  0.00  0.00    +0.268 C 
ATOM      3  O   UNL     1     -12.520  11.185  69.201  0.00  0.00    -0.268 OA
ENDROOT
BRANCH   2   4
ATOM      4  C   UNL     1     -10.969  11.418  67.463  0.00  0.00    +0.090 A 
ATOM      5  C   UNL     1     -11.253  12.030  66.251  0.00  0.00    +0.144 A 
ATOM      6  C   UNL     1     -10.709  11.504  65.086  0.00  0.00    +0.056 A 
ATOM      7  C   UNL     1      -9.880  10.394  65.090  0.00  0.00    +0.103 A 
ATOM      8  N   UNL     1      -9.463   9.736  63.903  0.00  0.00    -0.127 NA
ATOM      9  C   UNL     1      -9.827   9.662  66.264  0.00  0.00    +0.075 A 
ATOM     10 CL   UNL     1      -9.523   7.926  66.241  0.00  0.00    -0.081 Cl
ATOM     11  C   UNL     1     -10.154  10.311  67.448  0.00  0.00    +0.020 A 
BRANCH   5  12
ATOM     12  O   UNL     1     -12.412  12.807  66.153  0.00  0.00    -0.471 OA
ATOM     13  C   UNL     1     -12.555  13.691  65.047  0.00  0.00    +0.252 C 
ENDBRANCH   5  12
ENDBRANCH   2   4
BRANCH   1  14
ATOM     14  C   UNL     1     -12.186  13.650  70.339  0.00  0.00    +0.133 C 
BRANCH  14  15
ATOM     15  C   UNL     1     -12.529  15.108  70.221  0.00  0.00    +0.096 C 
BRANCH  15  16
ATOM     16  N   UNL     1     -13.135  15.655  71.406  0.00  0.00    -0.271 NA
BRANCH  16  18
ATOM     17  C   UNL     1     -12.490  15.333  73.715  0.00  0.00    +0.019 C 
ATOM     18  C   UNL     1     -12.107  15.912  72.382  0.00  0.00    +0.072 C 
ENDBRANCH  16  18
BRANCH  16  19
ATOM     19  C   UNL     1     -14.174  14.825  71.960  0.00  0.00    +0.072 C 
ATOM     20  C   UNL     1     -15.491  15.157  71.304  0.00  0.00    +0.019 C 
ENDBRANCH  16  19
ENDBRANCH  15  16
ENDBRANCH  14  15
ENDBRANCH   1  14
TORSDOF 7
ENDMDL
