MODEL 1
REMARK VINA RESULT:      -4.6      0.000      0.000
REMARK  Name = 
REMARK  3 active torsions:
REMARK  status: ('A' for Active; 'I' for Inactive)
REMARK    1  A    between atoms: N_2  and  C_3
REMARK    2  A    between atoms: C_3  and  C_5
REMARK    3  A    between atoms: C_5  and  C_7
REMARK                            x       y       z     vdW  Elec       q    Type
REMARK                         _______ _______ _______ _____ _____    ______ ____
ROOT
ATOM      1  C   UNL     1     -11.215  14.826  69.217  0.00  0.00    +0.190 C 
ATOM      2  O   UNL     1     -11.693  16.287  69.112  0.00  0.00    -0.217 OA
ENDROOT
BRANCH   1   3
ATOM      3  C   UNL     1     -12.512  14.441  70.149  0.00  0.00    +0.009 A 
ATOM      4  C   UNL     1     -12.386  13.353  70.953  0.00  0.00    -0.002 A 
ATOM      5  C   UNL     1     -13.348  13.229  71.948  0.00  0.00    -0.000 A 
ATOM      6  C   UNL     1     -13.522  14.356  72.745  0.00  0.00    -0.000 A 
ATOM      7  C   UNL     1     -13.348  15.568  72.116  0.00  0.00    -0.000 A 
ATOM      8  C   UNL     1     -12.824  15.619  70.828  0.00  0.00    -0.002 A 
ENDBRANCH   1   3
BRANCH   1   9
ATOM      9  C   UNL     1     -12.021  14.419  67.710  0.00  0.00    +0.107 C 
ATOM     10  C   UNL     1     -11.296  12.939  67.698  0.00  0.00    +0.022 C 
BRANCH   9  12
ATOM     11  C   UNL     1     -10.967  14.842  66.115  0.00  0.00    +0.108 C 
ATOM     12  N   UNL     1     -10.853  15.061  66.868  0.00  0.00    -0.215 NA
ENDBRANCH   9  12
ENDBRANCH   1   9
TORSDOF 3
ENDMDL
MODEL 2
REMARK VINA RESULT:      -4.4      1.492      2.215
REMARK  Name = 
REMARK  3 active torsions:
REMARK  status: ('A' for Active; 'I' for Inactive)
REMARK    1  A    between atoms: N_2  and  C_3
REMARK    2  A    between atoms: C_3  and  C_5
REMARK    3  A    between atoms: C_5  and  C_7
REMARK                            x       y       z     vdW  Elec       q    Type
REMARK                         _______ _______ _______ _____ _____    ______ ____
ROOT
ATOM      1  C   UNL     1     -11.927  15.525  69.198  0.00  0.00    +0.190 C 
ATOM      2  O   UNL     1     -12.177  14.055  68.809  0.00  0.00    -0.217 OA
ENDROOT
BRANCH   1   3
ATOM      3  C   UNL     1     -11.747  15.106  70.775  0.00  0.00    +0.009 A 
ATOM      4  C   UNL     1     -11.899  16.096  71.694  0.00  0.00    -0.002 A 
ATOM      5  C   UNL     1     -12.059  15.675  73.008  0.00  0.00    -0.000 A 
ATOM      6  C   UNL     1     -13.056  14.725  73.207  0.00  0.00    -0.000 A 
ATOM      7  C   UNL     1     -13.244  13.829  72.179  0.00  0.00    -0.000 A 
ATOM      8  C   UNL     1     -12.612  14.024  70.956  0.00  0.00    -0.002 A 
ENDBRANCH   1   3
BRANCH   1   9
ATOM      9  C   UNL     1     -10.216  15.366  68.832  0.00  0.00    +0.107 C 
ATOM     10  C   UNL     1     -10.028  17.002  68.900  0.00  0.00    +0.022 C 
BRANCH   9  12
ATOM     11  C   UNL     1      -9.807  15.528  66.925  0.00  0.00    +0.108 C 
ATOM     12  N   UNL     1     -10.503  15.406  67.283  0.00  0.00    -0.215 NA
ENDBRANCH   9  12
ENDBRANCH   1   9
TORSDOF 3
ENDMDL
MODEL 3
REMARK VINA RESULT:      -4.4      3.839      5.342
REMARK  Name = 
REMARK  3 active torsions:
REMARK  status: ('A' for Active; 'I' for Inactive)
REMARK    1  A    between atoms: N_2  and  C_3
REMARK    2  A    between atoms: C_3  and  C_5
REMARK    3  A    between atoms: C_5  and  C_7
REMARK                            x       y       z     vdW  Elec       q    Type
REMARK                         _______ _______ _______ _____ _____    ______ ____
ROOT
ATOM      1  C   UNL     1      -9.651  16.247  66.164  0.00  0.00    +0.190 C 
ATOM      2  O   UNL     1     -10.493  16.662  64.942  0.00  0.00    -0.217 OA
ENDROOT
BRANCH   1   3
ATOM      3  C   UNL     1     -10.200  17.541  67.014  0.00  0.00    +0.009 A 
ATOM      4  C   UNL     1      -9.408  17.992  68.022  0.00  0.00    -0.002 A 
ATOM      5  C   UNL     1      -9.723  19.253  68.513  0.00  0.00    -0.000 A 
ATOM      6  C   UNL     1      -9.833  20.251  67.550  0.00  0.00    -0.000 A 
ATOM      7  C   UNL     1     -10.329  19.855  66.329  0.00  0.00    -0.000 A 
ATOM      8  C   UNL     1     -10.494  18.503  66.046  0.00  0.00    -0.002 A 
ENDBRANCH   1   3
BRANCH   1   9
ATOM      9  C   UNL     1     -10.929  15.180  66.725  0.00  0.00    +0.107 C 
ATOM     10  C   UNL     1      -9.927  14.545  67.868  0.00  0.00    +0.022 C 
BRANCH   9  12
ATOM     11  C   UNL     1     -10.924  13.422  65.864  0.00  0.00    +0.108 C 
ATOM     12  N   UNL     1     -10.523  14.078  65.673  0.00  0.00    -0.215 NA
ENDBRANCH   9  12
ENDBRANCH   1   9
TORSDOF 3
ENDMDL
MODEL 4
REMARK VINA RESULT:      -4.2      4.070      5.324
REMARK  Name = 
REMARK  3 active torsions:
REMARK  status: ('A' for Active; 'I' for Inactive)
REMARK    1  A    between atoms: N_2  and  C_3
REMARK    2  A    between atoms: C_3  and  C_5
REMARK    3  A    between atoms: C_5  and  C_7
REMARK                            x       y       z     vdW  Elec       q    Type
REMARK                         _______ _______ _______ _____ _____    ______ ____
ROOT
ATOM      1  C   UNL     1     -10.434  16.235  66.289  0.00  0.00    +0.190 C 
ATOM      2  O   UNL     1     -10.585  16.601  64.799  0.00  0.00    -0.217 OA
ENDROOT
BRANCH   1   3
ATOM      3  C   UNL     1     -10.651  14.644  65.947  0.00  0.00    +0.009 A 
ATOM      4  C   UNL     1     -11.369  13.917  66.843  0.00  0.00    -0.002 A 
ATOM      5  C   UNL     1     -11.807  12.677  66.395  0.00  0.00    -0.000 A 
ATOM      6  C   UNL     1     -12.491  12.695  65.183  0.00  0.00    -0.000 A 
ATOM      7  C   UNL     1     -12.071  13.636  64.272  0.00  0.00    -0.000 A 
ATOM      8  C   UNL     1     -11.170  14.625  64.651  0.00  0.00    -0.002 A 
ENDBRANCH   1   3
BRANCH   1   9
ATOM      9  C   UNL     1      -8.687  16.160  66.128  0.00  0.00    +0.107 C 
ATOM     10  C   UNL     1      -8.519  16.082  67.765  0.00  0.00    +0.022 C 
BRANCH   9  12
ATOM     11  C   UNL     1      -7.837  17.910  66.343  0.00  0.00    +0.108 C 
ATOM     12  N   UNL     1      -8.580  17.733  66.133  0.00  0.00    -0.215 NA
ENDBRANCH   9  12
ENDBRANCH   1   9
TORSDOF 3
ENDMDL
MODEL 5
REMARK VINA RESULT:      -4.2      1.915      4.849
REMARK  Name = 
REMARK  3 active torsions:
REMARK  status: ('A' for Active; 'I' for Inactive)
REMARK    1  A    between atoms: N_2  and  C_3
REMARK    2  A    between atoms: C_3  and  C_5
REMARK    3  A    between atoms: C_5  and  C_7
REMARK                            x       y       z     vdW  Elec       q    Type
REMARK                         _______ _______ _______ _____ _____    ______ ____
ROOT
ATOM      1  C   UNL     1     -11.982  15.858  69.006  0.00  0.00    +0.190 C 
ATOM      2  O   UNL     1     -11.001  17.046  68.952  0.00  0.00    -0.217 OA
ENDROOT
BRANCH   1   3
ATOM      3  C   UNL     1     -11.098  15.043  67.887  0.00  0.00    +0.009 A 
ATOM      4  C   UNL     1     -11.778  14.207  67.059  0.00  0.00    -0.002 A 
ATOM      5  C   UNL     1     -11.081  13.778  65.937  0.00  0.00    -0.000 A 
ATOM      6  C   UNL     1     -10.507  14.791  65.175  0.00  0.00    -0.000 A 
ATOM      7  C   UNL     1     -10.056  15.886  65.876  0.00  0.00    -0.000 A 
ATOM      8  C   UNL     1     -10.365  16.030  67.225  0.00  0.00    -0.002 A 
ENDBRANCH   1   3
BRANCH   1   9
ATOM      9  C   UNL     1     -11.122  15.166  70.372  0.00  0.00    +0.107 C 
ATOM     10  C   UNL     1     -12.280  14.007  70.540  0.00  0.00    +0.022 C 
BRANCH   9  12
ATOM     11  C   UNL     1     -11.821  15.792  72.090  0.00  0.00    +0.108 C 
ATOM     12  N   UNL     1     -11.860  16.132  71.376  0.00  0.00    -0.215 NA
ENDBRANCH   9  12
ENDBRANCH   1   9
TORSDOF 3
ENDMDL
MODEL 6
REMARK VINA RESULT:      -4.2      2.171      3.295
REMARK  Name = 
REMARK  3 active torsions:
REMARK  status: ('A' for Active; 'I' for Inactive)
REMARK    1  A    between atoms: N_2  and  C_3
REMARK    2  A    between atoms: C_3  and  C_5
REMARK    3  A    between atoms: C_5  and  C_7
REMARK                            x       y       z     vdW  Elec       q    Type
REMARK                         _______ _______ _______ _____ _____    ______ ____
ROOT
ATOM      1  C   UNL     1     -11.995  13.598  66.522  0.00  0.00    +0.190 C 
ATOM      2  O   UNL     1     -12.057  12.126  66.975  0.00  0.00    -0.217 OA
ENDROOT
BRANCH   1   3
ATOM      3  C   UNL     1     -11.390  14.049  67.980  0.00  0.00    +0.009 A 
ATOM      4  C   UNL     1     -11.686  15.306  68.404  0.00  0.00    -0.002 A 
ATOM      5  C   UNL     1     -11.443  15.558  69.748  0.00  0.00    -0.000 A 
ATOM      6  C   UNL     1     -12.009  14.644  70.632  0.00  0.00    -0.000 A 
ATOM      7  C   UNL     1     -12.079  13.344  70.187  0.00  0.00    -0.000 A 
ATOM      8  C   UNL     1     -11.793  13.042  68.859  0.00  0.00    -0.002 A 
ENDBRANCH   1   3
BRANCH   1   9
ATOM      9  C   UNL     1     -10.412  13.345  65.804  0.00  0.00    +0.107 C 
ATOM     10  C   UNL     1     -10.462  14.841  65.116  0.00  0.00    +0.022 C 
BRANCH   9  12
ATOM     11  C   UNL     1     -10.468  12.570  64.007  0.00  0.00    +0.108 C 
ATOM     12  N   UNL     1     -11.054  12.674  64.530  0.00  0.00    -0.215 NA
ENDBRANCH   9  12
ENDBRANCH   1   9
TORSDOF 3
ENDMDL
MODEL 7
REMARK VINA RESULT:      -4.1      3.976      4.930
REMARK  Name = 
REMARK  3 active torsions:
REMARK  status: ('A' for Active; 'I' for Inactive)
REMARK    1  A    between atoms: N_2  and  C_3
REMARK    2  A    between atoms: C_3  and  C_5
REMARK    3  A    between atoms: C_5  and  C_7
REMARK                            x       y       z     vdW  Elec       q    Type
REMARK                         _______ _______ _______ _____ _____    ______ ____
ROOT
ATOM      1  C   UNL     1     -12.822  10.421  70.651  0.00  0.00    +0.190 C 
ATOM      2  O   UNL     1     -13.450  10.152  72.032  0.00  0.00    -0.217 OA
ENDROOT
BRANCH   1   3
ATOM      3  C   UNL     1     -12.395  11.938  71.111  0.00  0.00    +0.009 A 
ATOM      4  C   UNL     1     -12.218  12.852  70.121  0.00  0.00    -0.002 A 
ATOM      5  C   UNL     1     -12.172  14.178  70.530  0.00  0.00    -0.000 A 
ATOM      6  C   UNL     1     -13.236  14.587  71.329  0.00  0.00    -0.000 A 
ATOM      7  C   UNL     1     -13.751  13.632  72.176  0.00  0.00    -0.000 A 
ATOM      8  C   UNL     1     -13.353  12.305  72.059  0.00  0.00    -0.002 A 
ENDBRANCH   1   3
BRANCH   1   9
ATOM      9  C   UNL     1     -11.302   9.704  71.165  0.00  0.00    +0.107 C 
ATOM     10  C   UNL     1     -10.731   9.759  69.620  0.00  0.00    +0.022 C 
BRANCH   9  12
ATOM     11  C   UNL     1     -11.257   7.755  70.987  0.00  0.00    +0.108 C 
ATOM     12  N   UNL     1     -11.876   8.250  70.963  0.00  0.00    -0.215 NA
ENDBRANCH   9  12
ENDBRANCH   1   9
TORSDOF 3
ENDMDL
MODEL 8
REMARK VINA RESULT:      -4.1      2.212      4.628
REMARK  Name = 
REMARK  3 active torsions:
REMARK  status: ('A' for Active; 'I' for Inactive)
REMARK    1  A    between atoms: N_2  and  C_3
REMARK    2  A    between atoms: C_3  and  C_5
REMARK    3  A    between atoms: C_5  and  C_7
REMARK                            x       y       z     vdW  Elec       q    Type
REMARK                         _______ _______ _______ _____ _____    ______ ____
ROOT
ATOM      1  C   UNL     1     -12.637  15.477  70.715  0.00  0.00    +0.190 C 
ATOM      2  O   UNL     1     -11.623  16.637  70.745  0.00  0.00    -0.217 OA
ENDROOT
BRANCH   1   3
ATOM      3  C   UNL     1     -11.592  14.551  69.851  0.00  0.00    +0.009 A 
ATOM      4  C   UNL     1     -12.129  13.532  69.129  0.00  0.00    -0.002 A 
ATOM      5  C   UNL     1     -11.293  12.969  68.173  0.00  0.00    -0.000 A 
ATOM      6  C   UNL     1     -10.703  13.876  67.297  0.00  0.00    -0.000 A 
ATOM      7  C   UNL     1     -10.396  15.108  67.826  0.00  0.00    -0.000 A 
ATOM      8  C   UNL     1     -10.855  15.461  69.091  0.00  0.00    -0.002 A 
ENDBRANCH   1   3
BRANCH   1   9
ATOM      9  C   UNL     1     -12.064  14.892  72.270  0.00  0.00    +0.107 C 
ATOM     10  C   UNL     1     -13.390  13.925  72.418  0.00  0.00    +0.022 C 
BRANCH   9  12
ATOM     11  C   UNL     1     -12.742  15.913  73.796  0.00  0.00    +0.108 C 
ATOM     12  N   UNL     1     -12.776  16.081  73.023  0.00  0.00    -0.215 NA
ENDBRANCH   9  12
ENDBRANCH   1   9
TORSDOF 3
ENDMDL
MODEL 9
REMARK VINA RESULT:      -4.0      3.570      5.168
REMARK  Name = 
REMARK  3 active torsions:
REMARK  status: ('A' for Active; 'I' for Inactive)
REMARK    1  A    between atoms: N_2  and  C_3
REMARK    2  A    between atoms: C_3  and  C_5
REMARK    3  A    between atoms: C_5  and  C_7
REMARK                            x       y       z     vdW  Elec       q    Type
REMARK                         _______ _______ _______ _____ _____    ______ ____
ROOT
ATOM      1  C   UNL     1     -10.086  16.614  67.820  0.00  0.00    +0.190 C 
ATOM      2  O   UNL     1     -11.437  16.620  68.561  0.00  0.00    -0.217 OA
ENDROOT
BRANCH   1   3
ATOM      3  C   UNL     1     -10.713  15.672  66.631  0.00  0.00    +0.009 A 
ATOM      4  C   UNL     1      -9.825  15.023  65.832  0.00  0.00    -0.002 A 
ATOM      5  C   UNL     1     -10.355  14.002  65.053  0.00  0.00    -0.000 A 
ATOM      6  C   UNL     1     -11.105  13.058  65.747  0.00  0.00    -0.000 A 
ATOM      7  C   UNL     1     -11.821  13.533  66.822  0.00  0.00    -0.000 A 
ATOM      8  C   UNL     1     -11.615  14.829  67.283  0.00  0.00    -0.002 A 
ENDBRANCH   1   3
BRANCH   1   9
ATOM      9  C   UNL     1     -10.486  18.120  67.009  0.00  0.00    +0.107 C 
ATOM     10  C   UNL     1      -8.923  18.297  66.521  0.00  0.00    +0.022 C 
BRANCH   9  12
ATOM     11  C   UNL     1     -10.119  19.698  68.108  0.00  0.00    +0.108 C 
ATOM     12  N   UNL     1     -10.228  18.944  68.327  0.00  0.00    -0.215 NA
ENDBRANCH   9  12
ENDBRANCH   1   9
TORSDOF 3
ENDMDL
