MODEL 1
REMARK VINA RESULT:      -8.7      0.000      0.000
REMARK  Name = 
REMARK  8 active torsions:
REMARK  status: ('A' for Active; 'I' for Inactive)
REMARK    1  A    between atoms: O_2  and  C_3
REMARK    2  A    between atoms: C_7  and  O_8
REMARK    3  A    between atoms: O_8  and  C_9
REMARK    4  A    between atoms: C_15  and  C_16
REMARK    5  A    between atoms: N_18  and  S_19
REMARK    6  A    between atoms: S_19  and  C_22
REMARK    7  A    between atoms: C_40  and  C_41
REMARK    8  A    between atoms: C_43  and  C_44
REMARK                            x       y       z     vdW  Elec       q    Type
REMARK                         _______ _______ _______ _____ _____    ______ ____
ROOT
ATOM      1  C   UNL     1      -6.901  14.364  69.103  0.00  0.00    +0.167 C 
ATOM      2  C   UNL     1      -5.788  15.453  69.541  0.00  0.00    +0.053 C 
ATOM      3  C   UNL     1      -6.543  16.841  69.218  0.00  0.00    +0.089 C 
ATOM      4  C   UNL     1      -7.493  16.357  67.875  0.00  0.00    +0.090 C 
ATOM      5  C   UNL     1      -8.722  15.752  68.729  0.00  0.00    +0.242 C 
ATOM      6  N   UNL     1      -9.889  16.333  68.132  0.00  0.00    -0.200 NA
ATOM      7  C   UNL     1     -10.166  16.688  66.844  0.00  0.00    +0.154 C 
ATOM      8  C   UNL     1     -10.563  18.294  66.773  0.00  0.00    +0.051 C 
ATOM      9  C   UNL     1      -9.888  18.686  68.224  0.00  0.00    -0.029 C 
ATOM     10  C   UNL     1      -9.369  19.899  68.123  0.00  0.00    -0.031 C 
ATOM     11  C   UNL     1      -8.342  20.031  67.035  0.00  0.00    +0.026 C 
ATOM     12  C   UNL     1      -6.957  20.199  67.617  0.00  0.00    +0.006 C 
ATOM     13  C   UNL     1      -6.883  19.432  68.907  0.00  0.00    +0.022 C 
ATOM     14  C   UNL     1      -5.512  19.465  69.531  0.00  0.00    +0.093 C 
ATOM     15  N   UNL     1      -4.674  18.381  69.023  0.00  0.00    -0.278 N 
ATOM     16  C   UNL     1      -3.221  18.509  69.038  0.00  0.00    +0.115 C 
ATOM     17  C   UNL     1      -9.129  17.753  66.131  0.00  0.00    +0.036 C 
ATOM     18  O   UNL     1      -8.704  15.887  69.964  0.00  0.00    -0.273 OA
ATOM     19  C   UNL     1      -5.375  17.391  68.257  0.00  0.00    +0.226 C 
ATOM     20  O   UNL     1      -4.716  16.579  67.606  0.00  0.00    -0.275 OA
ATOM     21  C   UNL     1      -6.717  14.957  67.595  0.00  0.00    +0.053 C 
ENDROOT
BRANCH   7  22
ATOM     22  C   UNL     1     -10.848  15.876  65.843  0.00  0.00    +0.280 C 
ATOM     23  N   UNL     1     -11.063  14.531  66.285  0.00  0.00    -0.062 NA
ATOM     24  O   UNL     1     -10.937  16.058  64.624  0.00  0.00    -0.270 OA
BRANCH  23  25
ATOM     25  S   UNL     1     -12.049  13.398  65.481  0.00  0.00    +0.074 S 
ATOM     26  O   UNL     1     -12.171  12.180  66.362  0.00  0.00    -0.153 OA
ATOM     27  O   UNL     1     -13.415  14.028  65.343  0.00  0.00    -0.153 OA
BRANCH  25  28
ATOM     28  C   UNL     1     -11.443  12.938  63.887  0.00  0.00    +0.151 C 
ATOM     29  C   UNL     1     -12.244  11.843  63.236  0.00  0.00    +0.027 C 
ATOM     30  C   UNL     1     -10.820  11.543  63.747  0.00  0.00    +0.027 C 
ENDBRANCH  25  28
ENDBRANCH  23  25
ENDBRANCH   7  22
BRANCH   1  31
ATOM     31  O   UNL     1      -5.836  13.281  68.853  0.00  0.00    -0.479 OA
BRANCH  31  37
ATOM     32  C   UNL     1      -4.563  10.371  72.735  0.00  0.00    +0.136 A 
ATOM     33  C   UNL     1      -4.649   9.651  71.543  0.00  0.00    +0.030 A 
ATOM     34  C   UNL     1      -4.580   8.153  71.586  0.00  0.00    +0.036 C 
ATOM     35  C   UNL     1      -5.352  10.139  70.448  0.00  0.00    +0.083 A 
ATOM     36  C   UNL     1      -5.344  11.523  70.331  0.00  0.00    +0.052 A 
ATOM     37  C   UNL     1      -6.175  12.031  69.340  0.00  0.00    +0.141 A 
ATOM     38  C   UNL     1      -7.307  11.329  68.931  0.00  0.00    +0.058 A 
ATOM     39  C   UNL     1      -7.437   9.993  69.312  0.00  0.00    +0.108 A 
ATOM     40  C   UNL     1      -4.925  12.345  71.363  0.00  0.00    +0.008 A 
ATOM     41  N   UNL     1      -6.265   9.438  69.732  0.00  0.00    -0.243 NA
ATOM     42  C   UNL     1      -4.669  11.753  72.595  0.00  0.00    +0.037 A 
BRANCH  39  43
ATOM     43  C   UNL     1      -8.742   9.459  69.763  0.00  0.00    +0.128 A 
ATOM     44  S   UNL     1      -8.878   8.437  71.134  0.00  0.00    -0.065 S 
ATOM     45  C   UNL     1     -10.441   8.941  71.637  0.00  0.00    +0.052 A 
ATOM     46  C   UNL     1     -10.783   9.829  70.635  0.00  0.00    +0.066 A 
ATOM     47  N   UNL     1      -9.929   9.993  69.679  0.00  0.00    -0.241 NA
BRANCH  46  48
ATOM     48  C   UNL     1     -12.160  10.416  70.499  0.00  0.00    +0.041 C 
ATOM     49  C   UNL     1     -12.934  10.113  71.739  0.00  0.00    +0.006 C 
ATOM     50  C   UNL     1     -12.063  11.899  70.250  0.00  0.00    +0.006 C 
ENDBRANCH  46  48
ENDBRANCH  39  43
BRANCH  32  52
ATOM     51  C   UNL     1      -4.844   9.901  74.918  0.00  0.00    +0.252 C 
ATOM     52  O   UNL     1      -4.831   9.770  73.971  0.00  0.00    -0.472 OA
ENDBRANCH  32  52
ENDBRANCH  31  37
ENDBRANCH   1  31
TORSDOF 8
ENDMDL
MODEL 2
REMARK VINA RESULT:      -8.4      2.237      2.916
REMARK  Name = 
REMARK  8 active torsions:
REMARK  status: ('A' for Active; 'I' for Inactive)
REMARK    1  A    between atoms: O_2  and  C_3
REMARK    2  A    between atoms: C_7  and  O_8
REMARK    3  A    between atoms: O_8  and  C_9
REMARK    4  A    between atoms: C_15  and  C_16
REMARK    5  A    between atoms: N_18  and  S_19
REMARK    6  A    between atoms: S_19  and  C_22
REMARK    7  A    between atoms: C_40  and  C_41
REMARK    8  A    between atoms: C_43  and  C_44
REMARK                            x       y       z     vdW  Elec       q    Type
REMARK                         _______ _______ _______ _____ _____    ______ ____
ROOT
ATOM      1  C   UNL     1      -7.852  13.815  68.923  0.00  0.00    +0.167 C 
ATOM      2  C   UNL     1      -6.626  14.662  69.553  0.00  0.00    +0.053 C 
ATOM      3  C   UNL     1      -7.074  16.176  69.229  0.00  0.00    +0.089 C 
ATOM      4  C   UNL     1      -7.919  15.928  67.758  0.00  0.00    +0.090 C 
ATOM      5  C   UNL     1      -9.334  15.529  68.424  0.00  0.00    +0.242 C 
ATOM      6  N   UNL     1     -10.293  16.339  67.733  0.00  0.00    -0.200 NA
ATOM      7  C   UNL     1     -10.339  16.788  66.444  0.00  0.00    +0.154 C 
ATOM      8  C   UNL     1     -10.429  18.441  66.425  0.00  0.00    +0.051 C 
ATOM      9  C   UNL     1      -9.883  18.645  67.966  0.00  0.00    -0.029 C 
ATOM     10  C   UNL     1      -9.146  19.744  68.000  0.00  0.00    -0.031 C 
ATOM     11  C   UNL     1      -7.984  19.725  67.049  0.00  0.00    +0.026 C 
ATOM     12  C   UNL     1      -6.676  19.611  67.798  0.00  0.00    +0.006 C 
ATOM     13  C   UNL     1      -6.903  18.795  69.038  0.00  0.00    +0.022 C 
ATOM     14  C   UNL     1      -5.638  18.550  69.818  0.00  0.00    +0.093 C 
ATOM     15  N   UNL     1      -4.950  17.350  69.347  0.00  0.00    -0.278 N 
ATOM     16  C   UNL     1      -3.511  17.207  69.539  0.00  0.00    +0.115 C 
ATOM     17  C   UNL     1      -9.047  17.668  65.923  0.00  0.00    +0.036 C 
ATOM     18  O   UNL     1      -9.446  15.611  69.659  0.00  0.00    -0.273 OA
ATOM     19  C   UNL     1      -5.715  16.537  68.446  0.00  0.00    +0.226 C 
ATOM     20  O   UNL     1      -5.136  15.643  67.828  0.00  0.00    -0.275 OA
ATOM     21  C   UNL     1      -7.377  14.421  67.486  0.00  0.00    +0.053 C 
ENDROOT
BRANCH   7  22
ATOM     22  C   UNL     1     -11.023  16.155  65.324  0.00  0.00    +0.280 C 
ATOM     23  N   UNL     1     -11.044  14.727  65.431  0.00  0.00    -0.062 NA
ATOM     24  O   UNL     1     -11.254  16.608  64.198  0.00  0.00    -0.270 OA
BRANCH  23  25
ATOM     25  S   UNL     1     -11.974  13.699  64.443  0.00  0.00    +0.074 S 
ATOM     26  O   UNL     1     -12.988  13.004  65.318  0.00  0.00    -0.153 OA
ATOM     27  O   UNL     1     -12.712  14.583  63.465  0.00  0.00    -0.153 OA
BRANCH  25  28
ATOM     28  C   UNL     1     -11.015  12.508  63.559  0.00  0.00    +0.151 C 
ATOM     29  C   UNL     1     -11.033  11.140  64.187  0.00  0.00    +0.027 C 
ATOM     30  C   UNL     1      -9.743  11.985  64.239  0.00  0.00    +0.027 C 
ENDBRANCH  25  28
ENDBRANCH  23  25
ENDBRANCH   7  22
BRANCH   1  31
ATOM     31  O   UNL     1      -6.975  12.563  68.734  0.00  0.00    -0.479 OA
BRANCH  31  37
ATOM     32  C   UNL     1      -5.929   8.061  66.786  0.00  0.00    +0.136 A 
ATOM     33  C   UNL     1      -7.044   8.648  66.186  0.00  0.00    +0.030 A 
ATOM     34  C   UNL     1      -7.885   7.834  65.249  0.00  0.00    +0.036 C 
ATOM     35  C   UNL     1      -7.746   9.676  66.805  0.00  0.00    +0.083 A 
ATOM     36  C   UNL     1      -6.965  10.506  67.600  0.00  0.00    +0.052 A 
ATOM     37  C   UNL     1      -7.677  11.433  68.350  0.00  0.00    +0.141 A 
ATOM     38  C   UNL     1      -8.993  11.182  68.732  0.00  0.00    +0.058 A 
ATOM     39  C   UNL     1      -9.678  10.136  68.114  0.00  0.00    +0.108 A 
ATOM     40  C   UNL     1      -5.674  10.169  67.969  0.00  0.00    +0.008 A 
ATOM     41  N   UNL     1      -9.092   9.720  66.955  0.00  0.00    -0.243 NA
ATOM     42  C   UNL     1      -5.231   8.887  67.663  0.00  0.00    +0.037 A 
BRANCH  39  43
ATOM     43  C   UNL     1     -10.544   9.228  68.902  0.00  0.00    +0.128 A 
ATOM     44  S   UNL     1     -10.040   7.648  69.339  0.00  0.00    -0.065 S 
ATOM     45  C   UNL     1     -10.885   7.547  70.831  0.00  0.00    +0.052 A 
ATOM     46  C   UNL     1     -11.575   8.745  70.842  0.00  0.00    +0.066 A 
ATOM     47  N   UNL     1     -11.429   9.516  69.815  0.00  0.00    -0.241 NA
BRANCH  46  48
ATOM     48  C   UNL     1     -12.630   9.069  71.861  0.00  0.00    +0.041 C 
ATOM     49  C   UNL     1     -13.017  10.504  71.711  0.00  0.00    +0.006 C 
ATOM     50  C   UNL     1     -13.812   8.151  71.685  0.00  0.00    +0.006 C 
ENDBRANCH  46  48
ENDBRANCH  39  43
BRANCH  32  52
ATOM     51  C   UNL     1      -5.343   5.955  67.323  0.00  0.00    +0.252 C 
ATOM     52  O   UNL     1      -5.802   6.670  66.884  0.00  0.00    -0.472 OA
ENDBRANCH  32  52
ENDBRANCH  31  37
ENDBRANCH   1  31
TORSDOF 8
ENDMDL
MODEL 3
REMARK VINA RESULT:      -8.3      1.683      2.032
REMARK  Name = 
REMARK  8 active torsions:
REMARK  status: ('A' for Active; 'I' for Inactive)
REMARK    1  A    between atoms: O_2  and  C_3
REMARK    2  A    between atoms: C_7  and  O_8
REMARK    3  A    between atoms: O_8  and  C_9
REMARK    4  A    between atoms: C_15  and  C_16
REMARK    5  A    between atoms: N_18  and  S_19
REMARK    6  A    between atoms: S_19  and  C_22
REMARK    7  A    between atoms: C_40  and  C_41
REMARK    8  A    between atoms: C_43  and  C_44
REMARK                            x       y       z     vdW  Elec       q    Type
REMARK                         _______ _______ _______ _____ _____    ______ ____
ROOT
ATOM      1  C   UNL     1      -7.471  14.001  68.979  0.00  0.00    +0.167 C 
ATOM      2  C   UNL     1      -6.340  14.966  69.618  0.00  0.00    +0.053 C 
ATOM      3  C   UNL     1      -6.941  16.428  69.301  0.00  0.00    +0.089 C 
ATOM      4  C   UNL     1      -7.753  16.103  67.826  0.00  0.00    +0.090 C 
ATOM      5  C   UNL     1      -9.120  15.556  68.486  0.00  0.00    +0.242 C 
ATOM      6  N   UNL     1     -10.157  16.266  67.796  0.00  0.00    -0.200 NA
ATOM      7  C   UNL     1     -10.245  16.716  66.510  0.00  0.00    +0.154 C 
ATOM      8  C   UNL     1     -10.506  18.351  66.499  0.00  0.00    +0.051 C 
ATOM      9  C   UNL     1      -9.987  18.601  68.043  0.00  0.00    -0.029 C 
ATOM     10  C   UNL     1      -9.367  19.770  68.085  0.00  0.00    -0.031 C 
ATOM     11  C   UNL     1      -8.208  19.876  67.137  0.00  0.00    +0.026 C 
ATOM     12  C   UNL     1      -6.896  19.894  67.889  0.00  0.00    +0.006 C 
ATOM     13  C   UNL     1      -7.041  19.051  69.124  0.00  0.00    +0.022 C 
ATOM     14  C   UNL     1      -5.759  18.934  69.906  0.00  0.00    +0.093 C 
ATOM     15  N   UNL     1      -4.950  17.814  69.430  0.00  0.00    -0.278 N 
ATOM     16  C   UNL     1      -3.505  17.818  69.625  0.00  0.00    +0.115 C 
ATOM     17  C   UNL     1      -9.050  17.727  65.997  0.00  0.00    +0.036 C 
ATOM     18  O   UNL     1      -9.244  15.619  69.721  0.00  0.00    -0.273 OA
ATOM     19  C   UNL     1      -5.625  16.931  68.523  0.00  0.00    +0.226 C 
ATOM     20  O   UNL     1      -4.955  16.105  67.902  0.00  0.00    -0.275 OA
ATOM     21  C   UNL     1      -7.058  14.661  67.547  0.00  0.00    +0.053 C 
ENDROOT
BRANCH   7  22
ATOM     22  C   UNL     1     -10.859  16.022  65.384  0.00  0.00    +0.280 C 
ATOM     23  N   UNL     1     -10.864  14.600  65.554  0.00  0.00    -0.062 NA
ATOM     24  O   UNL     1     -11.036  16.421  64.228  0.00  0.00    -0.270 OA
BRANCH  23  25
ATOM     25  S   UNL     1     -11.723  13.513  64.565  0.00  0.00    +0.074 S 
ATOM     26  O   UNL     1     -12.589  12.658  65.456  0.00  0.00    -0.153 OA
ATOM     27  O   UNL     1     -12.621  14.345  63.680  0.00  0.00    -0.153 OA
BRANCH  25  28
ATOM     28  C   UNL     1     -10.684  12.492  63.565  0.00  0.00    +0.151 C 
ATOM     29  C   UNL     1     -10.979  11.023  63.701  0.00  0.00    +0.027 C 
ATOM     30  C   UNL     1      -9.672  11.595  64.289  0.00  0.00    +0.027 C 
ENDBRANCH  25  28
ENDBRANCH  23  25
ENDBRANCH   7  22
BRANCH   1  31
ATOM     31  O   UNL     1      -6.470  12.847  68.785  0.00  0.00    -0.479 OA
BRANCH  31  37
ATOM     32  C   UNL     1      -5.007   8.049  68.750  0.00  0.00    +0.136 A 
ATOM     33  C   UNL     1      -5.915   8.331  67.728  0.00  0.00    +0.030 A 
ATOM     34  C   UNL     1      -6.489   7.201  66.927  0.00  0.00    +0.036 C 
ATOM     35  C   UNL     1      -6.741   9.447  67.777  0.00  0.00    +0.083 A 
ATOM     36  C   UNL     1      -6.188  10.543  68.428  0.00  0.00    +0.052 A 
ATOM     37  C   UNL     1      -7.060  11.605  68.627  0.00  0.00    +0.141 A 
ATOM     38  C   UNL     1      -8.434  11.392  68.720  0.00  0.00    +0.058 A 
ATOM     39  C   UNL     1      -8.945  10.156  68.325  0.00  0.00    +0.108 A 
ATOM     40  C   UNL     1      -5.046  10.438  69.203  0.00  0.00    +0.008 A 
ATOM     41  N   UNL     1      -8.079   9.438  67.556  0.00  0.00    -0.243 NA
ATOM     42  C   UNL     1      -4.555   9.161  69.457  0.00  0.00    +0.037 A 
BRANCH  39  43
ATOM     43  C   UNL     1     -10.001   9.485  69.118  0.00  0.00    +0.128 A 
ATOM     44  S   UNL     1      -9.630   8.307  70.308  0.00  0.00    -0.065 S 
ATOM     45  C   UNL     1     -10.937   8.641  71.371  0.00  0.00    +0.052 A 
ATOM     46  C   UNL     1     -11.625   9.612  70.669  0.00  0.00    +0.066 A 
ATOM     47  N   UNL     1     -11.157   9.943  69.511  0.00  0.00    -0.241 NA
BRANCH  46  48
ATOM     48  C   UNL     1     -12.979  10.115  71.085  0.00  0.00    +0.041 C 
ATOM     49  C   UNL     1     -13.456   9.305  72.245  0.00  0.00    +0.006 C 
ATOM     50  C   UNL     1     -12.899  11.582  71.425  0.00  0.00    +0.006 C 
ENDBRANCH  46  48
ENDBRANCH  39  43
BRANCH  32  52
ATOM     51  C   UNL     1      -5.013   6.277  70.138  0.00  0.00    +0.252 C 
ATOM     52  O   UNL     1      -4.930   6.775  69.325  0.00  0.00    -0.472 OA
ENDBRANCH  32  52
ENDBRANCH  31  37
ENDBRANCH   1  31
TORSDOF 8
ENDMDL
MODEL 4
REMARK VINA RESULT:      -8.1      4.285      7.167
REMARK  Name = 
REMARK  8 active torsions:
REMARK  status: ('A' for Active; 'I' for Inactive)
REMARK    1  A    between atoms: O_2  and  C_3
REMARK    2  A    between atoms: C_7  and  O_8
REMARK    3  A    between atoms: O_8  and  C_9
REMARK    4  A    between atoms: C_15  and  C_16
REMARK    5  A    between atoms: N_18  and  S_19
REMARK    6  A    between atoms: S_19  and  C_22
REMARK    7  A    between atoms: C_40  and  C_41
REMARK    8  A    between atoms: C_43  and  C_44
REMARK                            x       y       z     vdW  Elec       q    Type
REMARK                         _______ _______ _______ _____ _____    ______ ____
ROOT
ATOM      1  C   UNL     1      -8.229  10.093  68.187  0.00  0.00    +0.167 C 
ATOM      2  C   UNL     1      -8.059   9.918  66.588  0.00  0.00    +0.053 C 
ATOM      3  C   UNL     1      -8.890  11.181  66.030  0.00  0.00    +0.089 C 
ATOM      4  C   UNL     1     -10.092  11.308  67.247  0.00  0.00    +0.090 C 
ATOM      5  C   UNL     1      -9.216  12.191  68.277  0.00  0.00    +0.242 C 
ATOM      6  N   UNL     1     -10.084  13.271  68.645  0.00  0.00    -0.200 NA
ATOM      7  C   UNL     1     -11.439  13.332  68.799  0.00  0.00    +0.154 C 
ATOM      8  C   UNL     1     -12.068  14.498  67.805  0.00  0.00    +0.051 C 
ATOM      9  C   UNL     1     -10.763  14.569  66.802  0.00  0.00    -0.029 C 
ATOM     10  C   UNL     1     -11.201  14.785  65.571  0.00  0.00    -0.031 C 
ATOM     11  C   UNL     1     -12.162  13.743  65.078  0.00  0.00    +0.026 C 
ATOM     12  C   UNL     1     -11.530  12.892  64.001  0.00  0.00    +0.006 C 
ATOM     13  C   UNL     1     -10.061  12.769  64.288  0.00  0.00    +0.022 C 
ATOM     14  C   UNL     1      -9.346  11.867  63.316  0.00  0.00    +0.093 C 
ATOM     15  N   UNL     1      -9.387  10.476  63.759  0.00  0.00    -0.278 N 
ATOM     16  C   UNL     1      -9.267   9.394  62.788  0.00  0.00    +0.115 C 
ATOM     17  C   UNL     1     -12.351  12.889  67.499  0.00  0.00    +0.036 C 
ATOM     18  O   UNL     1      -8.097  12.586  67.908  0.00  0.00    -0.273 OA
ATOM     19  C   UNL     1      -9.855  10.288  65.101  0.00  0.00    +0.226 C 
ATOM     20  O   UNL     1     -10.136   9.147  65.470  0.00  0.00    -0.275 OA
ATOM     21  C   UNL     1      -9.821   9.857  67.925  0.00  0.00    +0.053 C 
ENDROOT
BRANCH   7  22
ATOM     22  C   UNL     1     -12.184  13.162  70.040  0.00  0.00    +0.280 C 
ATOM     23  N   UNL     1     -12.722  14.395  70.529  0.00  0.00    -0.062 NA
ATOM     24  O   UNL     1     -12.121  12.243  70.864  0.00  0.00    -0.270 OA
BRANCH  23  25
ATOM     25  S   UNL     1     -13.849  14.520  71.800  0.00  0.00    +0.074 S 
ATOM     26  O   UNL     1     -15.197  14.827  71.197  0.00  0.00    -0.153 OA
ATOM     27  O   UNL     1     -13.917  13.161  72.457  0.00  0.00    -0.153 OA
BRANCH  25  28
ATOM     28  C   UNL     1     -13.428  15.742  73.003  0.00  0.00    +0.151 C 
ATOM     29  C   UNL     1     -12.006  16.224  72.894  0.00  0.00    +0.027 C 
ATOM     30  C   UNL     1     -12.422  15.342  74.090  0.00  0.00    +0.027 C 
ENDBRANCH  25  28
ENDBRANCH  23  25
ENDBRANCH   7  22
BRANCH   1  31
ATOM     31  O   UNL     1      -8.005   8.591  68.442  0.00  0.00    -0.479 OA
BRANCH  31  37
ATOM     32  C   UNL     1     -10.062   4.603  70.683  0.00  0.00    +0.136 A 
ATOM     33  C   UNL     1     -10.513   5.806  71.229  0.00  0.00    +0.030 A 
ATOM     34  C   UNL     1     -11.332   5.777  72.484  0.00  0.00    +0.036 C 
ATOM     35  C   UNL     1      -9.811   6.992  71.055  0.00  0.00    +0.083 A 
ATOM     36  C   UNL     1      -9.126   7.082  69.849  0.00  0.00    +0.052 A 
ATOM     37  C   UNL     1      -8.292   8.187  69.734  0.00  0.00    +0.141 A 
ATOM     38  C   UNL     1      -7.743   8.787  70.865  0.00  0.00    +0.058 A 
ATOM     39  C   UNL     1      -8.265   8.456  72.115  0.00  0.00    +0.108 A 
ATOM     40  C   UNL     1      -8.926   5.982  69.034  0.00  0.00    +0.008 A 
ATOM     41  N   UNL     1      -9.489   7.859  72.046  0.00  0.00    -0.243 NA
ATOM     42  C   UNL     1      -9.283   4.735  69.535  0.00  0.00    +0.037 A 
BRANCH  39  43
ATOM     43  C   UNL     1      -7.370   8.233  73.274  0.00  0.00    +0.128 A 
ATOM     44  S   UNL     1      -5.872   7.412  73.118  0.00  0.00    -0.065 S 
ATOM     45  C   UNL     1      -5.023   8.256  74.349  0.00  0.00    +0.052 A 
ATOM     46  C   UNL     1      -6.012   9.078  74.856  0.00  0.00    +0.066 A 
ATOM     47  N   UNL     1      -7.189   8.971  74.334  0.00  0.00    -0.241 NA
BRANCH  46  48
ATOM     48  C   UNL     1      -5.832   9.899  76.102  0.00  0.00    +0.041 C 
ATOM     49  C   UNL     1      -4.957  11.067  75.785  0.00  0.00    +0.006 C 
ATOM     50  C   UNL     1      -7.176  10.335  76.627  0.00  0.00    +0.006 C 
ENDBRANCH  46  48
ENDBRANCH  39  43
BRANCH  32  52
ATOM     51  C   UNL     1      -9.756   2.508  71.446  0.00  0.00    +0.252 C 
ATOM     52  O   UNL     1      -9.978   3.438  71.455  0.00  0.00    -0.472 OA
ENDBRANCH  32  52
ENDBRANCH  31  37
ENDBRANCH   1  31
TORSDOF 8
ENDMDL
MODEL 5
REMARK VINA RESULT:      -8.0      4.282     11.113
REMARK  Name = 
REMARK  8 active torsions:
REMARK  status: ('A' for Active; 'I' for Inactive)
REMARK    1  A    between atoms: O_2  and  C_3
REMARK    2  A    between atoms: C_7  and  O_8
REMARK    3  A    between atoms: O_8  and  C_9
REMARK    4  A    between atoms: C_15  and  C_16
REMARK    5  A    between atoms: N_18  and  S_19
REMARK    6  A    between atoms: S_19  and  C_22
REMARK    7  A    between atoms: C_40  and  C_41
REMARK    8  A    between atoms: C_43  and  C_44
REMARK                            x       y       z     vdW  Elec       q    Type
REMARK                         _______ _______ _______ _____ _____    ______ ____
ROOT
ATOM      1  C   UNL     1     -10.597   7.804  67.949  0.00  0.00    +0.167 C 
ATOM      2  C   UNL     1     -10.344   6.613  66.883  0.00  0.00    +0.053 C 
ATOM      3  C   UNL     1      -9.980   5.378  67.853  0.00  0.00    +0.089 C 
ATOM      4  C   UNL     1      -9.211   6.221  69.133  0.00  0.00    +0.090 C 
ATOM      5  C   UNL     1     -10.558   6.606  69.935  0.00  0.00    +0.242 C 
ATOM      6  N   UNL     1     -10.285   6.229  71.291  0.00  0.00    -0.200 NA
ATOM      7  C   UNL     1      -9.129   6.234  72.017  0.00  0.00    +0.154 C 
ATOM      8  C   UNL     1      -8.816   4.713  72.592  0.00  0.00    +0.051 C 
ATOM      9  C   UNL     1      -9.801   3.937  71.524  0.00  0.00    -0.029 C 
ATOM     10  C   UNL     1      -9.236   2.782  71.207  0.00  0.00    -0.031 C 
ATOM     11  C   UNL     1      -7.861   2.921  70.619  0.00  0.00    +0.026 C 
ATOM     12  C   UNL     1      -7.865   2.574  69.148  0.00  0.00    +0.006 C 
ATOM     13  C   UNL     1      -9.192   2.971  68.566  0.00  0.00    +0.022 C 
ATOM     14  C   UNL     1      -9.272   2.743  67.079  0.00  0.00    +0.093 C 
ATOM     15  N   UNL     1      -8.780   3.904  66.340  0.00  0.00    -0.278 N 
ATOM     16  C   UNL     1      -8.257   3.744  64.988  0.00  0.00    +0.115 C 
ATOM     17  C   UNL     1      -7.866   5.374  71.400  0.00  0.00    +0.036 C 
ATOM     18  O   UNL     1     -11.638   6.147  69.524  0.00  0.00    -0.273 OA
ATOM     19  C   UNL     1      -8.570   5.077  67.139  0.00  0.00    +0.226 C 
ATOM     20  O   UNL     1      -7.946   6.017  66.645  0.00  0.00    -0.275 OA
ATOM     21  C   UNL     1      -9.024   7.628  68.342  0.00  0.00    +0.053 C 
ENDROOT
BRANCH   7  22
ATOM     22  C   UNL     1      -8.656   7.297  72.895  0.00  0.00    +0.280 C 
ATOM     23  N   UNL     1      -7.347   7.037  73.413  0.00  0.00    -0.062 NA
ATOM     24  O   UNL     1      -9.310   8.152  73.502  0.00  0.00    -0.270 OA
BRANCH  23  25
ATOM     25  S   UNL     1      -6.397   8.175  74.253  0.00  0.00    +0.074 S 
ATOM     26  O   UNL     1      -5.083   7.520  74.598  0.00  0.00    -0.153 OA
ATOM     27  O   UNL     1      -6.129   9.311  73.293  0.00  0.00    -0.153 OA
BRANCH  25  28
ATOM     28  C   UNL     1      -7.169   8.800  75.713  0.00  0.00    +0.151 C 
ATOM     29  C   UNL     1      -6.201   9.059  76.837  0.00  0.00    +0.027 C 
ATOM     30  C   UNL     1      -7.195   7.883  76.943  0.00  0.00    +0.027 C 
ENDBRANCH  25  28
ENDBRANCH  23  25
ENDBRANCH   7  22
BRANCH   1  31
ATOM     31  O   UNL     1     -10.260   8.891  66.912  0.00  0.00    -0.479 OA
BRANCH  31  37
ATOM     32  C   UNL     1     -10.584  13.484  64.919  0.00  0.00    +0.136 A 
ATOM     33  C   UNL     1      -9.802  13.465  66.076  0.00  0.00    +0.030 A 
ATOM     34  C   UNL     1      -9.362  14.763  66.682  0.00  0.00    +0.036 C 
ATOM     35  C   UNL     1      -9.892  12.428  66.997  0.00  0.00    +0.083 A 
ATOM     36  C   UNL     1     -10.200  11.192  66.442  0.00  0.00    +0.052 A 
ATOM     37  C   UNL     1     -10.453  10.185  67.365  0.00  0.00    +0.141 A 
ATOM     38  C   UNL     1     -10.933  10.488  68.637  0.00  0.00    +0.058 A 
ATOM     39  C   UNL     1     -10.879  11.812  69.072  0.00  0.00    +0.108 A 
ATOM     40  C   UNL     1     -10.658  11.064  65.142  0.00  0.00    +0.008 A 
ATOM     41  N   UNL     1     -10.031  12.585  68.336  0.00  0.00    -0.243 NA
ATOM     42  C   UNL     1     -10.969  12.230  64.451  0.00  0.00    +0.037 A 
BRANCH  39  43
ATOM     43  C   UNL     1     -12.013  12.412  69.813  0.00  0.00    +0.128 A 
ATOM     44  S   UNL     1     -12.789  11.591  71.103  0.00  0.00    -0.065 S 
ATOM     45  C   UNL     1     -13.216  12.975  72.027  0.00  0.00    +0.052 A 
ATOM     46  C   UNL     1     -12.783  14.001  71.208  0.00  0.00    +0.066 A 
ATOM     47  N   UNL     1     -12.258  13.666  70.075  0.00  0.00    -0.241 NA
BRANCH  46  48
ATOM     48  C   UNL     1     -13.099  15.445  71.474  0.00  0.00    +0.041 C 
ATOM     49  C   UNL     1     -14.145  15.520  72.536  0.00  0.00    +0.006 C 
ATOM     50  C   UNL     1     -11.844  16.179  71.873  0.00  0.00    +0.006 C 
ENDBRANCH  46  48
ENDBRANCH  39  43
BRANCH  32  52
ATOM     51  C   UNL     1     -12.180  14.970  64.366  0.00  0.00    +0.252 C 
ATOM     52  O   UNL     1     -11.308  14.623  64.548  0.00  0.00    -0.472 OA
ENDBRANCH  32  52
ENDBRANCH  31  37
ENDBRANCH   1  31
TORSDOF 8
ENDMDL
MODEL 6
REMARK VINA RESULT:      -7.8      2.226      3.868
REMARK  Name = 
REMARK  8 active torsions:
REMARK  status: ('A' for Active; 'I' for Inactive)
REMARK    1  A    between atoms: O_2  and  C_3
REMARK    2  A    between atoms: C_7  and  O_8
REMARK    3  A    between atoms: O_8  and  C_9
REMARK    4  A    between atoms: C_15  and  C_16
REMARK    5  A    between atoms: N_18  and  S_19
REMARK    6  A    between atoms: S_19  and  C_22
REMARK    7  A    between atoms: C_40  and  C_41
REMARK    8  A    between atoms: C_43  and  C_44
REMARK                            x       y       z     vdW  Elec       q    Type
REMARK                         _______ _______ _______ _____ _____    ______ ____
ROOT
ATOM      1  C   UNL     1      -7.537  13.619  68.699  0.00  0.00    +0.167 C 
ATOM      2  C   UNL     1      -6.248  14.409  69.277  0.00  0.00    +0.053 C 
ATOM      3  C   UNL     1      -6.700  15.946  69.098  0.00  0.00    +0.089 C 
ATOM      4  C   UNL     1      -7.673  15.809  67.692  0.00  0.00    +0.090 C 
ATOM      5  C   UNL     1      -9.030  15.377  68.450  0.00  0.00    +0.242 C 
ATOM      6  N   UNL     1     -10.034  16.241  67.903  0.00  0.00    -0.200 NA
ATOM      7  C   UNL     1     -10.184  16.780  66.657  0.00  0.00    +0.154 C 
ATOM      8  C   UNL     1     -10.251  18.431  66.760  0.00  0.00    +0.051 C 
ATOM      9  C   UNL     1      -9.572  18.522  68.258  0.00  0.00    -0.029 C 
ATOM     10  C   UNL     1      -8.818  19.610  68.303  0.00  0.00    -0.031 C 
ATOM     11  C   UNL     1      -7.743  19.647  67.255  0.00  0.00    +0.026 C 
ATOM     12  C   UNL     1      -6.377  19.470  67.877  0.00  0.00    +0.006 C 
ATOM     13  C   UNL     1      -6.508  18.571  69.073  0.00  0.00    +0.022 C 
ATOM     14  C   UNL     1      -5.184  18.261  69.722  0.00  0.00    +0.093 C 
ATOM     15  N   UNL     1      -4.557  17.091  69.110  0.00  0.00    -0.278 N 
ATOM     16  C   UNL     1      -3.110  16.922  69.166  0.00  0.00    +0.115 C 
ATOM     17  C   UNL     1      -8.929  17.683  66.087  0.00  0.00    +0.036 C 
ATOM     18  O   UNL     1      -9.035  15.373  69.693  0.00  0.00    -0.273 OA
ATOM     19  C   UNL     1      -5.409  16.349  68.226  0.00  0.00    +0.226 C 
ATOM     20  O   UNL     1      -4.899  15.496  67.500  0.00  0.00    -0.275 OA
ATOM     21  C   UNL     1      -7.179  14.320  67.271  0.00  0.00    +0.053 C 
ENDROOT
BRANCH   7  22
ATOM     22  C   UNL     1     -10.972  16.232  65.560  0.00  0.00    +0.280 C 
ATOM     23  N   UNL     1     -11.198  14.825  65.697  0.00  0.00    -0.062 NA
ATOM     24  O   UNL     1     -11.155  16.694  64.428  0.00  0.00    -0.270 OA
BRANCH  23  25
ATOM     25  S   UNL     1     -12.283  13.924  64.742  0.00  0.00    +0.074 S 
ATOM     26  O   UNL     1     -13.615  13.900  65.451  0.00  0.00    -0.153 OA
ATOM     27  O   UNL     1     -12.446  14.675  63.441  0.00  0.00    -0.153 OA
BRANCH  25  28
ATOM     28  C   UNL     1     -11.739  12.277  64.414  0.00  0.00    +0.151 C 
ATOM     29  C   UNL     1     -10.418  11.944  65.054  0.00  0.00    +0.027 C 
ATOM     30  C   UNL     1     -10.501  12.109  63.522  0.00  0.00    +0.027 C 
ENDBRANCH  25  28
ENDBRANCH  23  25
ENDBRANCH   7  22
BRANCH   1  31
ATOM     31  O   UNL     1      -6.698  12.376  68.348  0.00  0.00    -0.479 OA
BRANCH  31  37
ATOM     32  C   UNL     1      -8.495   8.552  65.645  0.00  0.00    +0.136 A 
ATOM     33  C   UNL     1      -9.368   8.933  66.665  0.00  0.00    +0.030 A 
ATOM     34  C   UNL     1     -10.561   8.074  66.965  0.00  0.00    +0.036 C 
ATOM     35  C   UNL     1      -8.932   9.673  67.757  0.00  0.00    +0.083 A 
ATOM     36  C   UNL     1      -7.892  10.551  67.477  0.00  0.00    +0.052 A 
ATOM     37  C   UNL     1      -7.340  11.174  68.589  0.00  0.00    +0.141 A 
ATOM     38  C   UNL     1      -7.389  10.569  69.843  0.00  0.00    +0.058 A 
ATOM     39  C   UNL     1      -8.244   9.482  70.026  0.00  0.00    +0.108 A 
ATOM     40  C   UNL     1      -7.170  10.483  66.298  0.00  0.00    +0.008 A 
ATOM     41  N   UNL     1      -9.193   9.376  69.054  0.00  0.00    -0.243 NA
ATOM     42  C   UNL     1      -7.401   9.395  65.463  0.00  0.00    +0.037 A 
BRANCH  39  43
ATOM     43  C   UNL     1      -7.808   8.299  70.802  0.00  0.00    +0.128 A 
ATOM     44  S   UNL     1      -6.191   8.115  71.344  0.00  0.00    -0.065 S 
ATOM     45  C   UNL     1      -6.533   7.245  72.785  0.00  0.00    +0.052 A 
ATOM     46  C   UNL     1      -7.904   7.090  72.698  0.00  0.00    +0.066 A 
ATOM     47  N   UNL     1      -8.483   7.568  71.646  0.00  0.00    -0.241 NA
BRANCH  46  48
ATOM     48  C   UNL     1      -8.687   6.215  73.634  0.00  0.00    +0.041 C 
ATOM     49  C   UNL     1     -10.006   6.860  73.904  0.00  0.00    +0.006 C 
ATOM     50  C   UNL     1      -8.851   4.841  73.036  0.00  0.00    +0.006 C 
ENDBRANCH  46  48
ENDBRANCH  39  43
BRANCH  32  52
ATOM     51  C   UNL     1      -8.017   6.631  64.574  0.00  0.00    +0.252 C 
ATOM     52  O   UNL     1      -8.444   7.230  65.185  0.00  0.00    -0.472 OA
ENDBRANCH  32  52
ENDBRANCH  31  37
ENDBRANCH   1  31
TORSDOF 8
ENDMDL
MODEL 7
REMARK VINA RESULT:      -7.5      2.555      6.048
REMARK  Name = 
REMARK  8 active torsions:
REMARK  status: ('A' for Active; 'I' for Inactive)
REMARK    1  A    between atoms: O_2  and  C_3
REMARK    2  A    between atoms: C_7  and  O_8
REMARK    3  A    between atoms: O_8  and  C_9
REMARK    4  A    between atoms: C_15  and  C_16
REMARK    5  A    between atoms: N_18  and  S_19
REMARK    6  A    between atoms: S_19  and  C_22
REMARK    7  A    between atoms: C_40  and  C_41
REMARK    8  A    between atoms: C_43  and  C_44
REMARK                            x       y       z     vdW  Elec       q    Type
REMARK                         _______ _______ _______ _____ _____    ______ ____
ROOT
ATOM      1  C   UNL     1      -9.088  14.822  67.793  0.00  0.00    +0.167 C 
ATOM      2  C   UNL     1      -9.583  16.186  67.077  0.00  0.00    +0.053 C 
ATOM      3  C   UNL     1      -8.273  17.117  67.208  0.00  0.00    +0.089 C 
ATOM      4  C   UNL     1      -7.638  16.532  68.689  0.00  0.00    +0.090 C 
ATOM      5  C   UNL     1      -6.831  15.283  68.061  0.00  0.00    +0.242 C 
ATOM      6  N   UNL     1      -5.521  15.380  68.637  0.00  0.00    -0.200 NA
ATOM      7  C   UNL     1      -5.100  15.818  69.860  0.00  0.00    +0.154 C 
ATOM      8  C   UNL     1      -4.012  17.051  69.675  0.00  0.00    +0.051 C 
ATOM      9  C   UNL     1      -4.445  17.411  68.127  0.00  0.00    -0.029 C 
ATOM     10  C   UNL     1      -4.350  18.722  67.967  0.00  0.00    -0.031 C 
ATOM     11  C   UNL     1      -5.193  19.513  68.925  0.00  0.00    +0.026 C 
ATOM     12  C   UNL     1      -6.352  20.169  68.211  0.00  0.00    +0.006 C 
ATOM     13  C   UNL     1      -6.781  19.281  67.078  0.00  0.00    +0.022 C 
ATOM     14  C   UNL     1      -7.990  19.805  66.348  0.00  0.00    +0.093 C 
ATOM     15  N   UNL     1      -9.227  19.339  66.971  0.00  0.00    -0.278 N 
ATOM     16  C   UNL     1     -10.460  20.103  66.814  0.00  0.00    +0.115 C 
ATOM     17  C   UNL     1      -5.528  17.352  70.283  0.00  0.00    +0.036 C 
ATOM     18  O   UNL     1      -6.796  15.167  66.825  0.00  0.00    -0.273 OA
ATOM     19  C   UNL     1      -9.050  18.311  67.956  0.00  0.00    +0.226 C 
ATOM     20  O   UNL     1     -10.002  18.030  68.685  0.00  0.00    -0.275 OA
ATOM     21  C   UNL     1      -8.966  15.718  69.150  0.00  0.00    +0.053 C 
ENDROOT
BRANCH   7  22
ATOM     22  C   UNL     1      -4.857  15.000  71.042  0.00  0.00    +0.280 C 
ATOM     23  N   UNL     1      -5.061  13.605  70.793  0.00  0.00    -0.062 NA
ATOM     24  O   UNL     1      -4.855  15.335  72.232  0.00  0.00    -0.270 OA
BRANCH  23  25
ATOM     25  S   UNL     1      -4.620  12.359  71.868  0.00  0.00    +0.074 S 
ATOM     26  O   UNL     1      -3.133  12.452  72.103  0.00  0.00    -0.153 OA
ATOM     27  O   UNL     1      -5.330  12.637  73.172  0.00  0.00    -0.153 OA
BRANCH  25  28
ATOM     28  C   UNL     1      -5.046  10.744  71.292  0.00  0.00    +0.151 C 
ATOM     29  C   UNL     1      -4.744  10.530  69.834  0.00  0.00    +0.027 C 
ATOM     30  C   UNL     1      -6.211  10.635  70.301  0.00  0.00    +0.027 C 
ENDBRANCH  25  28
ENDBRANCH  23  25
ENDBRANCH   7  22
BRANCH   1  31
ATOM     31  O   UNL     1     -10.529  14.408  68.145  0.00  0.00    -0.479 OA
BRANCH  31  37
ATOM     32  C   UNL     1      -8.312  10.132  66.742  0.00  0.00    +0.136 A 
ATOM     33  C   UNL     1      -9.704  10.034  66.727  0.00  0.00    +0.030 A 
ATOM     34  C   UNL     1     -10.340   8.691  66.527  0.00  0.00    +0.036 C 
ATOM     35  C   UNL     1     -10.504  10.923  67.436  0.00  0.00    +0.083 A 
ATOM     36  C   UNL     1      -9.978  12.204  67.546  0.00  0.00    +0.052 A 
ATOM     37  C   UNL     1     -10.686  13.054  68.387  0.00  0.00    +0.141 A 
ATOM     38  C   UNL     1     -11.445  12.546  69.439  0.00  0.00    +0.058 A 
ATOM     39  C   UNL     1     -11.722  11.180  69.463  0.00  0.00    +0.108 A 
ATOM     40  C   UNL     1      -8.660  12.488  67.234  0.00  0.00    +0.008 A 
ATOM     41  N   UNL     1     -11.520  10.570  68.260  0.00  0.00    -0.243 NA
ATOM     42  C   UNL     1      -7.817  11.415  66.966  0.00  0.00    +0.037 A 
BRANCH  39  43
ATOM     43  C   UNL     1     -11.652  10.415  70.729  0.00  0.00    +0.128 A 
ATOM     44  S   UNL     1     -13.064   9.906  71.560  0.00  0.00    -0.065 S 
ATOM     45  C   UNL     1     -12.423   8.460  72.230  0.00  0.00    +0.052 A 
ATOM     46  C   UNL     1     -11.107   8.520  71.813  0.00  0.00    +0.066 A 
ATOM     47  N   UNL     1     -10.754   9.559  71.131  0.00  0.00    -0.241 NA
BRANCH  46  48
ATOM     48  C   UNL     1     -10.052   7.570  72.304  0.00  0.00    +0.041 C 
ATOM     49  C   UNL     1      -8.750   8.297  72.383  0.00  0.00    +0.006 C 
ATOM     50  C   UNL     1     -10.455   7.002  73.641  0.00  0.00    +0.006 C 
ENDBRANCH  46  48
ENDBRANCH  39  43
BRANCH  32  52
ATOM     51  C   UNL     1      -6.632   8.641  66.885  0.00  0.00    +0.252 C 
ATOM     52  O   UNL     1      -7.505   9.016  66.995  0.00  0.00    -0.472 OA
ENDBRANCH  32  52
ENDBRANCH  31  37
ENDBRANCH   1  31
TORSDOF 8
ENDMDL
MODEL 8
REMARK VINA RESULT:      -7.5      2.629      3.710
REMARK  Name = 
REMARK  8 active torsions:
REMARK  status: ('A' for Active; 'I' for Inactive)
REMARK    1  A    between atoms: O_2  and  C_3
REMARK    2  A    between atoms: C_7  and  O_8
REMARK    3  A    between atoms: O_8  and  C_9
REMARK    4  A    between atoms: C_15  and  C_16
REMARK    5  A    between atoms: N_18  and  S_19
REMARK    6  A    between atoms: S_19  and  C_22
REMARK    7  A    between atoms: C_40  and  C_41
REMARK    8  A    between atoms: C_43  and  C_44
REMARK                            x       y       z     vdW  Elec       q    Type
REMARK                         _______ _______ _______ _____ _____    ______ ____
ROOT
ATOM      1  C   UNL     1      -7.158  14.455  68.921  0.00  0.00    +0.167 C 
ATOM      2  C   UNL     1      -6.073  15.491  69.527  0.00  0.00    +0.053 C 
ATOM      3  C   UNL     1      -6.780  16.911  69.241  0.00  0.00    +0.089 C 
ATOM      4  C   UNL     1      -7.620  16.539  67.793  0.00  0.00    +0.090 C 
ATOM      5  C   UNL     1      -8.924  15.898  68.496  0.00  0.00    +0.242 C 
ATOM      6  N   UNL     1     -10.029  16.541  67.848  0.00  0.00    -0.200 NA
ATOM      7  C   UNL     1     -10.193  16.990  66.569  0.00  0.00    +0.154 C 
ATOM      8  C   UNL     1     -10.562  18.604  66.580  0.00  0.00    +0.051 C 
ATOM      9  C   UNL     1     -10.007  18.881  68.106  0.00  0.00    -0.029 C 
ATOM     10  C   UNL     1      -9.466  20.089  68.134  0.00  0.00    -0.031 C 
ATOM     11  C   UNL     1      -8.350  20.277  67.148  0.00  0.00    +0.026 C 
ATOM     12  C   UNL     1      -7.017  20.379  67.853  0.00  0.00    +0.006 C 
ATOM     13  C   UNL     1      -7.061  19.523  69.087  0.00  0.00    +0.022 C 
ATOM     14  C   UNL     1      -5.747  19.487  69.823  0.00  0.00    +0.093 C 
ATOM     15  N   UNL     1      -4.883  18.426  69.311  0.00  0.00    -0.278 N 
ATOM     16  C   UNL     1      -3.435  18.527  69.456  0.00  0.00    +0.115 C 
ATOM     17  C   UNL     1      -9.086  18.082  66.022  0.00  0.00    +0.036 C 
ATOM     18  O   UNL     1      -9.008  15.947  69.735  0.00  0.00    -0.273 OA
ATOM     19  C   UNL     1      -5.529  17.505  68.422  0.00  0.00    +0.226 C 
ATOM     20  O   UNL     1      -4.828  16.729  67.772  0.00  0.00    -0.275 OA
ATOM     21  C   UNL     1      -6.841  15.148  67.480  0.00  0.00    +0.053 C 
ENDROOT
BRANCH   7  22
ATOM     22  C   UNL     1     -10.798  16.262  65.461  0.00  0.00    +0.280 C 
ATOM     23  N   UNL     1     -10.628  14.845  65.579  0.00  0.00    -0.062 NA
ATOM     24  O   UNL     1     -11.097  16.671  64.334  0.00  0.00    -0.270 OA
BRANCH  23  25
ATOM     25  S   UNL     1     -11.422  13.694  64.607  0.00  0.00    +0.074 S 
ATOM     26  O   UNL     1     -12.487  14.409  63.815  0.00  0.00    -0.153 OA
ATOM     27  O   UNL     1     -10.392  13.151  63.644  0.00  0.00    -0.153 OA
BRANCH  25  28
ATOM     28  C   UNL     1     -12.135  12.364  65.525  0.00  0.00    +0.151 C 
ATOM     29  C   UNL     1     -11.667  12.304  66.954  0.00  0.00    +0.027 C 
ATOM     30  C   UNL     1     -11.202  11.224  65.954  0.00  0.00    +0.027 C 
ENDBRANCH  25  28
ENDBRANCH  23  25
ENDBRANCH   7  22
BRANCH   1  31
ATOM     31  O   UNL     1      -6.089  13.372  68.685  0.00  0.00    -0.479 OA
BRANCH  31  37
ATOM     32  C   UNL     1      -4.465   9.922  65.425  0.00  0.00    +0.136 A 
ATOM     33  C   UNL     1      -5.786  10.301  65.178  0.00  0.00    +0.030 A 
ATOM     34  C   UNL     1      -6.593   9.527  64.179  0.00  0.00    +0.036 C 
ATOM     35  C   UNL     1      -6.560  10.919  66.153  0.00  0.00    +0.083 A 
ATOM     36  C   UNL     1      -5.843  11.724  67.030  0.00  0.00    +0.052 A 
ATOM     37  C   UNL     1      -6.576  12.214  68.103  0.00  0.00    +0.141 A 
ATOM     38  C   UNL     1      -7.689  11.525  68.580  0.00  0.00    +0.058 A 
ATOM     39  C   UNL     1      -8.228  10.505  67.797  0.00  0.00    +0.108 A 
ATOM     40  C   UNL     1      -4.461  11.681  67.104  0.00  0.00    +0.008 A 
ATOM     41  N   UNL     1      -7.818  10.552  66.498  0.00  0.00    -0.243 NA
ATOM     42  C   UNL     1      -3.809  10.681  66.392  0.00  0.00    +0.037 A 
BRANCH  39  43
ATOM     43  C   UNL     1      -8.676   9.235  68.413  0.00  0.00    +0.128 A 
ATOM     44  S   UNL     1     -10.263   9.040  69.036  0.00  0.00    -0.065 S 
ATOM     45  C   UNL     1     -10.432   7.364  68.701  0.00  0.00    +0.052 A 
ATOM     46  C   UNL     1      -9.186   7.055  68.189  0.00  0.00    +0.066 A 
ATOM     47  N   UNL     1      -8.318   8.011  68.140  0.00  0.00    -0.241 NA
BRANCH  46  48
ATOM     48  C   UNL     1      -8.743   5.646  67.913  0.00  0.00    +0.041 C 
ATOM     49  C   UNL     1      -7.325   5.493  68.353  0.00  0.00    +0.006 C 
ATOM     50  C   UNL     1      -9.654   4.675  68.621  0.00  0.00    +0.006 C 
ENDBRANCH  46  48
ENDBRANCH  39  43
BRANCH  32  52
ATOM     51  C   UNL     1      -3.226   8.103  64.955  0.00  0.00    +0.252 C 
ATOM     52  O   UNL     1      -4.003   8.639  65.110  0.00  0.00    -0.472 OA
ENDBRANCH  32  52
ENDBRANCH  31  37
ENDBRANCH   1  31
TORSDOF 8
ENDMDL
MODEL 9
REMARK VINA RESULT:      -7.4      1.681      2.007
REMARK  Name = 
REMARK  8 active torsions:
REMARK  status: ('A' for Active; 'I' for Inactive)
REMARK    1  A    between atoms: O_2  and  C_3
REMARK    2  A    between atoms: C_7  and  O_8
REMARK    3  A    between atoms: O_8  and  C_9
REMARK    4  A    between atoms: C_15  and  C_16
REMARK    5  A    between atoms: N_18  and  S_19
REMARK    6  A    between atoms: S_19  and  C_22
REMARK    7  A    between atoms: C_40  and  C_41
REMARK    8  A    between atoms: C_43  and  C_44
REMARK                            x       y       z     vdW  Elec       q    Type
REMARK                         _______ _______ _______ _____ _____    ______ ____
ROOT
ATOM      1  C   UNL     1      -6.544  14.683  69.592  0.00  0.00    +0.167 C 
ATOM      2  C   UNL     1      -5.729  16.061  69.828  0.00  0.00    +0.053 C 
ATOM      3  C   UNL     1      -6.723  17.146  69.171  0.00  0.00    +0.089 C 
ATOM      4  C   UNL     1      -7.422  16.195  67.927  0.00  0.00    +0.090 C 
ATOM      5  C   UNL     1      -8.571  15.519  68.837  0.00  0.00    +0.242 C 
ATOM      6  N   UNL     1      -9.773  15.688  68.074  0.00  0.00    -0.200 NA
ATOM      7  C   UNL     1      -9.997  15.697  66.727  0.00  0.00    +0.154 C 
ATOM      8  C   UNL     1     -10.712  17.123  66.283  0.00  0.00    +0.051 C 
ATOM      9  C   UNL     1     -10.273  17.947  67.640  0.00  0.00    -0.029 C 
ATOM     10  C   UNL     1     -10.011  19.199  67.296  0.00  0.00    -0.031 C 
ATOM     11  C   UNL     1      -8.938  19.329  66.255  0.00  0.00    +0.026 C 
ATOM     12  C   UNL     1      -7.679  19.920  66.848  0.00  0.00    +0.006 C 
ATOM     13  C   UNL     1      -7.567  19.473  68.277  0.00  0.00    +0.022 C 
ATOM     14  C   UNL     1      -6.298  19.941  68.940  0.00  0.00    +0.093 C 
ATOM     15  N   UNL     1      -5.208  18.992  68.724  0.00  0.00    -0.278 N 
ATOM     16  C   UNL     1      -3.822  19.443  68.776  0.00  0.00    +0.115 C 
ATOM     17  C   UNL     1      -9.144  16.797  65.844  0.00  0.00    +0.036 C 
ATOM     18  O   UNL     1      -8.697  15.907  70.010  0.00  0.00    -0.273 OA
ATOM     19  C   UNL     1      -5.612  17.733  68.166  0.00  0.00    +0.226 C 
ATOM     20  O   UNL     1      -4.740  16.974  67.742  0.00  0.00    -0.275 OA
ATOM     21  C   UNL     1      -6.348  14.978  68.000  0.00  0.00    +0.053 C 
ENDROOT
BRANCH   7  22
ATOM     22  C   UNL     1     -10.398  14.564  65.902  0.00  0.00    +0.280 C 
ATOM     23  N   UNL     1     -10.628  13.380  66.673  0.00  0.00    -0.062 NA
ATOM     24  O   UNL     1     -10.230  14.388  64.690  0.00  0.00    -0.270 OA
BRANCH  23  25
ATOM     25  S   UNL     1     -11.349  11.960  66.069  0.00  0.00    +0.074 S 
ATOM     26  O   UNL     1     -11.815  11.139  67.245  0.00  0.00    -0.153 OA
ATOM     27  O   UNL     1     -12.560  12.390  65.275  0.00  0.00    -0.153 OA
BRANCH  25  28
ATOM     28  C   UNL     1     -10.276  11.002  65.044  0.00  0.00    +0.151 C 
ATOM     29  C   UNL     1      -9.980   9.636  65.600  0.00  0.00    +0.027 C 
ATOM     30  C   UNL     1      -8.869  10.707  65.580  0.00  0.00    +0.027 C 
ENDBRANCH  25  28
ENDBRANCH  23  25
ENDBRANCH   7  22
BRANCH   1  31
ATOM     31  O   UNL     1      -5.257  13.839  69.638  0.00  0.00    -0.479 OA
BRANCH  31  37
ATOM     32  C   UNL     1      -4.319  11.571  74.013  0.00  0.00    +0.136 A 
ATOM     33  C   UNL     1      -3.976  10.772  72.920  0.00  0.00    +0.030 A 
ATOM     34  C   UNL     1      -3.602   9.338  73.151  0.00  0.00    +0.036 C 
ATOM     35  C   UNL     1      -4.496  11.009  71.654  0.00  0.00    +0.083 A 
ATOM     36  C   UNL     1      -4.755  12.347  71.381  0.00  0.00    +0.052 A 
ATOM     37  C   UNL     1      -5.425  12.579  70.187  0.00  0.00    +0.141 A 
ATOM     38  C   UNL     1      -6.259  11.608  69.636  0.00  0.00    +0.058 A 
ATOM     39  C   UNL     1      -6.187  10.307  70.134  0.00  0.00    +0.108 A 
ATOM     40  C   UNL     1      -4.767  13.311  72.374  0.00  0.00    +0.008 A 
ATOM     41  N   UNL     1      -5.051  10.069  70.851  0.00  0.00    -0.243 NA
ATOM     42  C   UNL     1      -4.681  12.878  73.693  0.00  0.00    +0.037 A 
BRANCH  39  43
ATOM     43  C   UNL     1      -7.417   9.515  70.364  0.00  0.00    +0.128 A 
ATOM     44  S   UNL     1      -7.995   8.384  69.212  0.00  0.00    -0.065 S 
ATOM     45  C   UNL     1      -8.698   7.275  70.318  0.00  0.00    +0.052 A 
ATOM     46  C   UNL     1      -8.496   7.918  71.524  0.00  0.00    +0.066 A 
ATOM     47  N   UNL     1      -7.919   9.074  71.484  0.00  0.00    -0.241 NA
BRANCH  46  48
ATOM     48  C   UNL     1      -9.107   7.446  72.813  0.00  0.00    +0.041 C 
ATOM     49  C   UNL     1      -8.304   7.985  73.950  0.00  0.00    +0.006 C 
ATOM     50  C   UNL     1     -10.547   7.887  72.889  0.00  0.00    +0.006 C 
ENDBRANCH  46  48
ENDBRANCH  39  43
BRANCH  32  52
ATOM     51  C   UNL     1      -4.829  11.161  76.166  0.00  0.00    +0.252 C 
ATOM     52  O   UNL     1      -4.729  11.008  75.227  0.00  0.00    -0.472 OA
ENDBRANCH  32  52
ENDBRANCH  31  37
ENDBRANCH   1  31
TORSDOF 8
ENDMDL
