MODEL 1
REMARK VINA RESULT:      -5.2      0.000      0.000
REMARK  Name = 
REMARK  10 active torsions:
REMARK  status: ('A' for Active; 'I' for Inactive)
REMARK    1  A    between atoms: N_2  and  C_3
REMARK    2  A    between atoms: C_3  and  N_8
REMARK    3  A    between atoms: C_4  and  N_5
REMARK    4  A    between atoms: N_8  and  C_9
REMARK    5  A    between atoms: C_9  and  C_10
REMARK    6  A    between atoms: C_10  and  S_11
REMARK    7  A    between atoms: S_11  and  C_12
REMARK    8  A    between atoms: C_12  and  C_13
REMARK    9  A    between atoms: C_16  and  C_17
REMARK   10  A    between atoms: C_17  and  N_18
REMARK                            x       y       z     vdW  Elec       q    Type
REMARK                         _______ _______ _______ _____ _____    ______ ____
ROOT
ATOM      1  S   UNL     1     -11.467  15.821  68.726  0.00  0.00    -0.129 S 
ENDROOT
BRANCH   1   2
ATOM      2  C   UNL     1      -9.658  16.039  68.759  0.00  0.00    +0.104 C 
BRANCH   2   3
ATOM      3  C   UNL     1      -9.382  17.341  68.067  0.00  0.00    +0.077 A 
ATOM      4  N   UNL     1      -8.306  17.460  67.266  0.00  0.00    -0.245 NA
ATOM      5  C   UNL     1      -7.982  18.758  67.066  0.00  0.00    +0.104 A 
ATOM      6  S   UNL     1      -9.552  19.443  66.946  0.00  0.00    -0.069 S 
ATOM      7  C   UNL     1     -10.435  18.115  67.587  0.00  0.00    +0.052 A 
BRANCH   5   8
ATOM      8  C   UNL     1      -6.643  19.345  66.745  0.00  0.00    +0.126 C 
BRANCH   8   9
ATOM      9  N   UNL     1      -6.586  20.600  67.493  0.00  0.00    -0.265 NA
ATOM     10  C   UNL     1      -5.587  21.482  66.898  0.00  0.00    +0.090 C 
ATOM     11  C   UNL     1      -6.191  20.376  68.869  0.00  0.00    +0.090 C 
ENDBRANCH   8   9
ENDBRANCH   5   8
ENDBRANCH   2   3
ENDBRANCH   1   2
BRANCH   1  12
ATOM     12  C   UNL     1     -11.851  14.046  68.864  0.00  0.00    +0.113 C 
BRANCH  12  13
ATOM     13  C   UNL     1     -11.690  13.438  67.477  0.00  0.00    +0.263 C 
BRANCH  13  14
ATOM     14  N   UNL     1     -12.559  14.166  66.573  0.00  0.00    -0.027 NA
BRANCH  14  15
ATOM     15  C   UNL     1     -12.524  13.896  65.175  0.00  0.00    +0.424 C 
ATOM     16  C   UNL     1     -12.176  14.877  64.342  0.00  0.00    +0.447 C 
BRANCH  16  17
ATOM     17  N   UNL     1     -11.169  15.797  64.764  0.00  0.00    +0.096 N 
ATOM     18  O   UNL     1      -9.895  15.277  64.917  0.00  0.00    -0.576 OA
ATOM     19  O   UNL     1     -11.241  16.963  64.327  0.00  0.00    +0.042 OA
ENDBRANCH  16  17
BRANCH  15  21
ATOM     20  C   UNL     1     -12.144  11.977  63.600  0.00  0.00    +0.306 C 
ATOM     21  N   UNL     1     -12.816  12.576  64.728  0.00  0.00    -0.023 NA
ENDBRANCH  15  21
ENDBRANCH  14  15
ENDBRANCH  13  14
ENDBRANCH  12  13
ENDBRANCH   1  12
TORSDOF 10
ENDMDL
MODEL 2
REMARK VINA RESULT:      -5.0      5.488      9.033
REMARK  Name = 
REMARK  10 active torsions:
REMARK  status: ('A' for Active; 'I' for Inactive)
REMARK    1  A    between atoms: N_2  and  C_3
REMARK    2  A    between atoms: C_3  and  N_8
REMARK    3  A    between atoms: C_4  and  N_5
REMARK    4  A    between atoms: N_8  and  C_9
REMARK    5  A    between atoms: C_9  and  C_10
REMARK    6  A    between atoms: C_10  and  S_11
REMARK    7  A    between atoms: S_11  and  C_12
REMARK    8  A    between atoms: C_12  and  C_13
REMARK    9  A    between atoms: C_16  and  C_17
REMARK   10  A    between atoms: C_17  and  N_18
REMARK                            x       y       z     vdW  Elec       q    Type
REMARK                         _______ _______ _______ _____ _____    ______ ____
ROOT
ATOM      1  S   UNL     1     -11.791  11.911  69.627  0.00  0.00    -0.129 S 
ENDROOT
BRANCH   1   2
ATOM      2  C   UNL     1     -10.807  10.381  69.745  0.00  0.00    +0.104 C 
BRANCH   2   3
ATOM      3  C   UNL     1     -11.470   9.537  70.792  0.00  0.00    +0.077 A 
ATOM      4  N   UNL     1     -10.755   9.082  71.838  0.00  0.00    -0.245 NA
ATOM      5  C   UNL     1     -11.371   8.037  72.437  0.00  0.00    +0.104 A 
ATOM      6  S   UNL     1     -13.005   8.552  72.335  0.00  0.00    -0.069 S 
ATOM      7  C   UNL     1     -12.782   9.802  71.177  0.00  0.00    +0.052 A 
BRANCH   5   8
ATOM      8  C   UNL     1     -10.756   6.918  73.219  0.00  0.00    +0.126 C 
BRANCH   8   9
ATOM      9  N   UNL     1     -11.059   5.707  72.458  0.00  0.00    -0.265 NA
ATOM     10  C   UNL     1     -11.300   4.597  73.375  0.00  0.00    +0.090 C 
ATOM     11  C   UNL     1      -9.947   5.326  71.611  0.00  0.00    +0.090 C 
ENDBRANCH   8   9
ENDBRANCH   5   8
ENDBRANCH   2   3
ENDBRANCH   1   2
BRANCH   1  12
ATOM     12  C   UNL     1     -10.937  13.080  68.522  0.00  0.00    +0.113 C 
BRANCH  12  13
ATOM     13  C   UNL     1     -11.310  12.709  67.094  0.00  0.00    +0.263 C 
BRANCH  13  14
ATOM     14  N   UNL     1     -12.151  13.766  66.568  0.00  0.00    -0.027 NA
BRANCH  14  15
ATOM     15  C   UNL     1     -12.519  13.772  65.192  0.00  0.00    +0.424 C 
ATOM     16  C   UNL     1     -12.353  14.892  64.489  0.00  0.00    +0.447 C 
BRANCH  16  17
ATOM     17  N   UNL     1     -11.214  15.704  64.771  0.00  0.00    +0.096 N 
ATOM     18  O   UNL     1      -9.996  15.047  64.827  0.00  0.00    -0.576 OA
ATOM     19  O   UNL     1     -11.198  16.854  64.288  0.00  0.00    +0.042 OA
ENDBRANCH  16  17
BRANCH  15  21
ATOM     20  C   UNL     1     -12.379  11.954  63.464  0.00  0.00    +0.306 C 
ATOM     21  N   UNL     1     -13.005  12.565  64.612  0.00  0.00    -0.023 NA
ENDBRANCH  15  21
ENDBRANCH  14  15
ENDBRANCH  13  14
ENDBRANCH  12  13
ENDBRANCH   1  12
TORSDOF 10
ENDMDL
MODEL 3
REMARK VINA RESULT:      -4.9      4.034      6.987
REMARK  Name = 
REMARK  10 active torsions:
REMARK  status: ('A' for Active; 'I' for Inactive)
REMARK    1  A    between atoms: N_2  and  C_3
REMARK    2  A    between atoms: C_3  and  N_8
REMARK    3  A    between atoms: C_4  and  N_5
REMARK    4  A    between atoms: N_8  and  C_9
REMARK    5  A    between atoms: C_9  and  C_10
REMARK    6  A    between atoms: C_10  and  S_11
REMARK    7  A    between atoms: S_11  and  C_12
REMARK    8  A    between atoms: C_12  and  C_13
REMARK    9  A    between atoms: C_16  and  C_17
REMARK   10  A    between atoms: C_17  and  N_18
REMARK                            x       y       z     vdW  Elec       q    Type
REMARK                         _______ _______ _______ _____ _____    ______ ____
ROOT
ATOM      1  S   UNL     1      -9.665  16.401  66.474  0.00  0.00    -0.129 S 
ENDROOT
BRANCH   1   2
ATOM      2  C   UNL     1     -10.796  16.106  65.075  0.00  0.00    +0.104 C 
BRANCH   2   3
ATOM      3  C   UNL     1     -11.097  14.636  65.084  0.00  0.00    +0.077 A 
ATOM      4  N   UNL     1     -10.266  13.786  65.716  0.00  0.00    -0.245 NA
ATOM      5  C   UNL     1     -10.445  12.515  65.290  0.00  0.00    +0.104 A 
ATOM      6  S   UNL     1     -12.154  12.494  65.117  0.00  0.00    -0.069 S 
ATOM      7  C   UNL     1     -12.413  14.192  65.178  0.00  0.00    +0.052 A 
BRANCH   5   8
ATOM      8  C   UNL     1      -9.457  11.390  65.274  0.00  0.00    +0.126 C 
BRANCH   8   9
ATOM      9  N   UNL     1      -9.798  10.597  64.094  0.00  0.00    -0.265 NA
ATOM     10  C   UNL     1      -9.090   9.322  64.137  0.00  0.00    +0.090 C 
ATOM     11  C   UNL     1      -9.395  11.268  62.875  0.00  0.00    +0.090 C 
ENDBRANCH   8   9
ENDBRANCH   5   8
ENDBRANCH   2   3
ENDBRANCH   1   2
BRANCH   1  12
ATOM     12  C   UNL     1     -10.432  17.599  67.611  0.00  0.00    +0.113 C 
BRANCH  12  13
ATOM     13  C   UNL     1     -10.567  16.916  68.965  0.00  0.00    +0.263 C 
BRANCH  13  14
ATOM     14  N   UNL     1     -11.849  16.239  68.992  0.00  0.00    -0.027 NA
BRANCH  14  15
ATOM     15  C   UNL     1     -11.969  14.956  69.598  0.00  0.00    +0.424 C 
ATOM     16  C   UNL     1     -11.991  14.876  70.928  0.00  0.00    +0.447 C 
BRANCH  16  17
ATOM     17  N   UNL     1     -12.657  15.907  71.657  0.00  0.00    +0.096 N 
ATOM     18  O   UNL     1     -14.012  15.720  71.876  0.00  0.00    -0.576 OA
ATOM     19  O   UNL     1     -12.020  16.460  72.575  0.00  0.00    +0.042 OA
ENDBRANCH  16  17
BRANCH  15  21
ATOM     20  C   UNL     1     -11.292  12.635  68.915  0.00  0.00    +0.306 C 
ATOM     21  N   UNL     1     -12.108  13.816  68.756  0.00  0.00    -0.023 NA
ENDBRANCH  15  21
ENDBRANCH  14  15
ENDBRANCH  13  14
ENDBRANCH  12  13
ENDBRANCH   1  12
TORSDOF 10
ENDMDL
MODEL 4
REMARK VINA RESULT:      -4.8      4.996      8.781
REMARK  Name = 
REMARK  10 active torsions:
REMARK  status: ('A' for Active; 'I' for Inactive)
REMARK    1  A    between atoms: N_2  and  C_3
REMARK    2  A    between atoms: C_3  and  N_8
REMARK    3  A    between atoms: C_4  and  N_5
REMARK    4  A    between atoms: N_8  and  C_9
REMARK    5  A    between atoms: C_9  and  C_10
REMARK    6  A    between atoms: C_10  and  S_11
REMARK    7  A    between atoms: S_11  and  C_12
REMARK    8  A    between atoms: C_12  and  C_13
REMARK    9  A    between atoms: C_16  and  C_17
REMARK   10  A    between atoms: C_17  and  N_18
REMARK                            x       y       z     vdW  Elec       q    Type
REMARK                         _______ _______ _______ _____ _____    ______ ____
ROOT
ATOM      1  S   UNL     1     -12.336  12.894  70.406  0.00  0.00    -0.129 S 
ENDROOT
BRANCH   1   2
ATOM      2  C   UNL     1     -11.846  11.393  69.493  0.00  0.00    +0.104 C 
BRANCH   2   3
ATOM      3  C   UNL     1     -12.003  10.252  70.454  0.00  0.00    +0.077 A 
ATOM      4  N   UNL     1     -10.913   9.674  70.992  0.00  0.00    -0.245 NA
ATOM      5  C   UNL     1     -11.198   8.446  71.483  0.00  0.00    +0.104 A 
ATOM      6  S   UNL     1     -12.754   8.742  72.146  0.00  0.00    -0.069 S 
ATOM      7  C   UNL     1     -13.059  10.241  71.361  0.00  0.00    +0.052 A 
BRANCH   5   8
ATOM      8  C   UNL     1     -10.282   7.274  71.652  0.00  0.00    +0.126 C 
BRANCH   8   9
ATOM      9  N   UNL     1     -11.027   6.127  71.136  0.00  0.00    -0.265 NA
ATOM     10  C   UNL     1     -10.254   4.907  71.338  0.00  0.00    +0.090 C 
ATOM     11  C   UNL     1     -11.263   6.250  69.712  0.00  0.00    +0.090 C 
ENDBRANCH   8   9
ENDBRANCH   5   8
ENDBRANCH   2   3
ENDBRANCH   1   2
BRANCH   1  12
ATOM     12  C   UNL     1     -11.802  14.359  69.464  0.00  0.00    +0.113 C 
BRANCH  12  13
ATOM     13  C   UNL     1     -11.730  13.953  67.998  0.00  0.00    +0.263 C 
BRANCH  13  14
ATOM     14  N   UNL     1     -11.346  15.124  67.234  0.00  0.00    -0.027 NA
BRANCH  14  15
ATOM     15  C   UNL     1     -10.281  15.047  66.291  0.00  0.00    +0.424 C 
ATOM     16  C   UNL     1     -10.574  14.807  65.013  0.00  0.00    +0.447 C 
BRANCH  16  17
ATOM     17  N   UNL     1     -11.764  15.379  64.473  0.00  0.00    +0.096 N 
ATOM     18  O   UNL     1     -11.636  16.644  63.923  0.00  0.00    -0.576 OA
ATOM     19  O   UNL     1     -12.562  14.608  63.903  0.00  0.00    +0.042 OA
ENDBRANCH  16  17
BRANCH  15  21
ATOM     20  C   UNL     1      -8.155  16.385  66.272  0.00  0.00    +0.306 C 
ATOM     21  N   UNL     1      -8.951  15.277  66.746  0.00  0.00    -0.023 NA
ENDBRANCH  15  21
ENDBRANCH  14  15
ENDBRANCH  13  14
ENDBRANCH  12  13
ENDBRANCH   1  12
TORSDOF 10
ENDMDL
MODEL 5
REMARK VINA RESULT:      -4.8      5.093      7.292
REMARK  Name = 
REMARK  10 active torsions:
REMARK  status: ('A' for Active; 'I' for Inactive)
REMARK    1  A    between atoms: N_2  and  C_3
REMARK    2  A    between atoms: C_3  and  N_8
REMARK    3  A    between atoms: C_4  and  N_5
REMARK    4  A    between atoms: N_8  and  C_9
REMARK    5  A    between atoms: C_9  and  C_10
REMARK    6  A    between atoms: C_10  and  S_11
REMARK    7  A    between atoms: S_11  and  C_12
REMARK    8  A    between atoms: C_12  and  C_13
REMARK    9  A    between atoms: C_16  and  C_17
REMARK   10  A    between atoms: C_17  and  N_18
REMARK                            x       y       z     vdW  Elec       q    Type
REMARK                         _______ _______ _______ _____ _____    ______ ____
ROOT
ATOM      1  S   UNL     1     -13.529  15.092  71.443  0.00  0.00    -0.129 S 
ENDROOT
BRANCH   1   2
ATOM      2  C   UNL     1     -11.823  15.734  71.401  0.00  0.00    +0.104 C 
BRANCH   2   3
ATOM      3  C   UNL     1     -11.400  15.697  69.962  0.00  0.00    +0.077 A 
ATOM      4  N   UNL     1     -12.245  15.227  69.026  0.00  0.00    -0.245 NA
ATOM      5  C   UNL     1     -11.587  14.884  67.895  0.00  0.00    +0.104 A 
ATOM      6  S   UNL     1     -10.428  16.149  67.828  0.00  0.00    -0.069 S 
ATOM      7  C   UNL     1     -10.611  16.718  69.439  0.00  0.00    +0.052 A 
BRANCH   5   8
ATOM      8  C   UNL     1     -11.971  13.868  66.865  0.00  0.00    +0.126 C 
BRANCH   8   9
ATOM      9  N   UNL     1     -11.259  14.264  65.652  0.00  0.00    -0.265 NA
ATOM     10  C   UNL     1     -12.215  14.509  64.578  0.00  0.00    +0.090 C 
ATOM     11  C   UNL     1     -10.369  13.214  65.198  0.00  0.00    +0.090 C 
ENDBRANCH   8   9
ENDBRANCH   5   8
ENDBRANCH   2   3
ENDBRANCH   1   2
BRANCH   1  12
ATOM     12  C   UNL     1     -13.531  13.472  72.276  0.00  0.00    +0.113 C 
BRANCH  12  13
ATOM     13  C   UNL     1     -12.832  12.486  71.350  0.00  0.00    +0.263 C 
BRANCH  13  14
ATOM     14  N   UNL     1     -13.217  11.148  71.759  0.00  0.00    -0.027 NA
BRANCH  14  15
ATOM     15  C   UNL     1     -12.392  10.035  71.432  0.00  0.00    +0.424 C 
ATOM     16  C   UNL     1     -12.763   8.821  71.840  0.00  0.00    +0.447 C 
BRANCH  16  17
ATOM     17  N   UNL     1     -14.155   8.507  71.849  0.00  0.00    +0.096 N 
ATOM     18  O   UNL     1     -14.533   7.398  71.111  0.00  0.00    -0.576 OA
ATOM     19  O   UNL     1     -14.778   8.703  72.911  0.00  0.00    +0.042 OA
ENDBRANCH  16  17
BRANCH  15  21
ATOM     20  C   UNL     1     -10.088   9.373  70.679  0.00  0.00    +0.306 C 
ATOM     21  N   UNL     1     -11.228  10.258  70.642  0.00  0.00    -0.023 NA
ENDBRANCH  15  21
ENDBRANCH  14  15
ENDBRANCH  13  14
ENDBRANCH  12  13
ENDBRANCH   1  12
TORSDOF 10
ENDMDL
MODEL 6
REMARK VINA RESULT:      -4.8      1.998      2.565
REMARK  Name = 
REMARK  10 active torsions:
REMARK  status: ('A' for Active; 'I' for Inactive)
REMARK    1  A    between atoms: N_2  and  C_3
REMARK    2  A    between atoms: C_3  and  N_8
REMARK    3  A    between atoms: C_4  and  N_5
REMARK    4  A    between atoms: N_8  and  C_9
REMARK    5  A    between atoms: C_9  and  C_10
REMARK    6  A    between atoms: C_10  and  S_11
REMARK    7  A    between atoms: S_11  and  C_12
REMARK    8  A    between atoms: C_12  and  C_13
REMARK    9  A    between atoms: C_16  and  C_17
REMARK   10  A    between atoms: C_17  and  N_18
REMARK                            x       y       z     vdW  Elec       q    Type
REMARK                         _______ _______ _______ _____ _____    ______ ____
ROOT
ATOM      1  S   UNL     1      -9.628  15.283  68.353  0.00  0.00    -0.129 S 
ENDROOT
BRANCH   1   2
ATOM      2  C   UNL     1     -10.895  16.592  68.293  0.00  0.00    +0.104 C 
BRANCH   2   3
ATOM      3  C   UNL     1     -10.153  17.883  68.111  0.00  0.00    +0.077 A 
ATOM      4  N   UNL     1      -8.812  17.908  68.229  0.00  0.00    -0.245 NA
ATOM      5  C   UNL     1      -8.360  19.164  68.445  0.00  0.00    +0.104 A 
ATOM      6  S   UNL     1      -9.413  20.044  67.412  0.00  0.00    -0.069 S 
ATOM      7  C   UNL     1     -10.576  18.804  67.157  0.00  0.00    +0.052 A 
BRANCH   5   8
ATOM      8  C   UNL     1      -7.112  19.597  69.150  0.00  0.00    +0.126 C 
BRANCH   8   9
ATOM      9  N   UNL     1      -6.050  18.758  68.597  0.00  0.00    -0.265 NA
ATOM     10  C   UNL     1      -4.965  18.638  69.565  0.00  0.00    +0.090 C 
ATOM     11  C   UNL     1      -5.488  19.344  67.397  0.00  0.00    +0.090 C 
ENDBRANCH   8   9
ENDBRANCH   5   8
ENDBRANCH   2   3
ENDBRANCH   1   2
BRANCH   1  12
ATOM     12  C   UNL     1      -9.247  14.750  66.653  0.00  0.00    +0.113 C 
BRANCH  12  13
ATOM     13  C   UNL     1      -9.142  13.231  66.667  0.00  0.00    +0.263 C 
BRANCH  13  14
ATOM     14  N   UNL     1     -10.166  12.709  65.784  0.00  0.00    -0.027 NA
BRANCH  14  15
ATOM     15  C   UNL     1     -11.516  12.617  66.229  0.00  0.00    +0.424 C 
ATOM     16  C   UNL     1     -12.422  13.440  65.701  0.00  0.00    +0.447 C 
BRANCH  16  17
ATOM     17  N   UNL     1     -12.306  13.776  64.319  0.00  0.00    +0.096 N 
ATOM     18  O   UNL     1     -12.645  12.779  63.419  0.00  0.00    -0.576 OA
ATOM     19  O   UNL     1     -12.601  14.941  63.988  0.00  0.00    +0.042 OA
ENDBRANCH  16  17
BRANCH  15  21
ATOM     20  C   UNL     1     -11.825  11.866  68.606  0.00  0.00    +0.306 C 
ATOM     21  N   UNL     1     -11.851  11.615  67.185  0.00  0.00    -0.023 NA
ENDBRANCH  15  21
ENDBRANCH  14  15
ENDBRANCH  13  14
ENDBRANCH  12  13
ENDBRANCH   1  12
TORSDOF 10
ENDMDL
MODEL 7
REMARK VINA RESULT:      -4.8      1.624      1.944
REMARK  Name = 
REMARK  10 active torsions:
REMARK  status: ('A' for Active; 'I' for Inactive)
REMARK    1  A    between atoms: N_2  and  C_3
REMARK    2  A    between atoms: C_3  and  N_8
REMARK    3  A    between atoms: C_4  and  N_5
REMARK    4  A    between atoms: N_8  and  C_9
REMARK    5  A    between atoms: C_9  and  C_10
REMARK    6  A    between atoms: C_10  and  S_11
REMARK    7  A    between atoms: S_11  and  C_12
REMARK    8  A    between atoms: C_12  and  C_13
REMARK    9  A    between atoms: C_16  and  C_17
REMARK   10  A    between atoms: C_17  and  N_18
REMARK                            x       y       z     vdW  Elec       q    Type
REMARK                         _______ _______ _______ _____ _____    ______ ____
ROOT
ATOM      1  S   UNL     1     -10.165  16.713  68.927  0.00  0.00    -0.129 S 
ENDROOT
BRANCH   1   2
ATOM      2  C   UNL     1     -10.385  17.929  67.586  0.00  0.00    +0.104 C 
BRANCH   2   3
ATOM      3  C   UNL     1      -9.089  18.677  67.485  0.00  0.00    +0.077 A 
ATOM      4  N   UNL     1      -8.804  19.377  66.370  0.00  0.00    -0.245 NA
ATOM      5  C   UNL     1      -7.479  19.631  66.274  0.00  0.00    +0.104 A 
ATOM      6  S   UNL     1      -7.113  19.947  67.921  0.00  0.00    -0.069 S 
ATOM      7  C   UNL     1      -8.554  19.306  68.605  0.00  0.00    +0.052 A 
BRANCH   5   8
ATOM      8  C   UNL     1      -6.662  19.860  65.040  0.00  0.00    +0.126 C 
BRANCH   8   9
ATOM      9  N   UNL     1      -5.273  19.700  65.465  0.00  0.00    -0.265 NA
ATOM     10  C   UNL     1      -4.518  20.906  65.143  0.00  0.00    +0.090 C 
ATOM     11  C   UNL     1      -4.634  18.600  64.772  0.00  0.00    +0.090 C 
ENDBRANCH   8   9
ENDBRANCH   5   8
ENDBRANCH   2   3
ENDBRANCH   1   2
BRANCH   1  12
ATOM     12  C   UNL     1     -11.603  15.595  68.953  0.00  0.00    +0.113 C 
BRANCH  12  13
ATOM     13  C   UNL     1     -11.306  14.454  67.989  0.00  0.00    +0.263 C 
BRANCH  13  14
ATOM     14  N   UNL     1     -12.344  14.449  66.977  0.00  0.00    -0.027 NA
BRANCH  14  15
ATOM     15  C   UNL     1     -12.146  13.753  65.751  0.00  0.00    +0.424 C 
ATOM     16  C   UNL     1     -11.977  14.460  64.634  0.00  0.00    +0.447 C 
BRANCH  16  17
ATOM     17  N   UNL     1     -11.246  15.684  64.712  0.00  0.00    +0.096 N 
ATOM     18  O   UNL     1      -9.891  15.568  64.971  0.00  0.00    -0.576 OA
ATOM     19  O   UNL     1     -11.584  16.601  63.937  0.00  0.00    +0.042 OA
ENDBRANCH  16  17
BRANCH  15  21
ATOM     20  C   UNL     1     -10.858  11.604  65.570  0.00  0.00    +0.306 C 
ATOM     21  N   UNL     1     -12.089  12.330  65.777  0.00  0.00    -0.023 NA
ENDBRANCH  15  21
ENDBRANCH  14  15
ENDBRANCH  13  14
ENDBRANCH  12  13
ENDBRANCH   1  12
TORSDOF 10
ENDMDL
MODEL 8
REMARK VINA RESULT:      -4.7      5.375      8.272
REMARK  Name = 
REMARK  10 active torsions:
REMARK  status: ('A' for Active; 'I' for Inactive)
REMARK    1  A    between atoms: N_2  and  C_3
REMARK    2  A    between atoms: C_3  and  N_8
REMARK    3  A    between atoms: C_4  and  N_5
REMARK    4  A    between atoms: N_8  and  C_9
REMARK    5  A    between atoms: C_9  and  C_10
REMARK    6  A    between atoms: C_10  and  S_11
REMARK    7  A    between atoms: S_11  and  C_12
REMARK    8  A    between atoms: C_12  and  C_13
REMARK    9  A    between atoms: C_16  and  C_17
REMARK   10  A    between atoms: C_17  and  N_18
REMARK                            x       y       z     vdW  Elec       q    Type
REMARK                         _______ _______ _______ _____ _____    ______ ____
ROOT
ATOM      1  S   UNL     1     -11.796  13.935  68.359  0.00  0.00    -0.129 S 
ENDROOT
BRANCH   1   2
ATOM      2  C   UNL     1     -12.285  14.048  66.607  0.00  0.00    +0.104 C 
BRANCH   2   3
ATOM      3  C   UNL     1     -11.585  12.922  65.905  0.00  0.00    +0.077 A 
ATOM      4  N   UNL     1     -11.486  11.719  66.501  0.00  0.00    -0.245 NA
ATOM      5  C   UNL     1     -10.505  10.973  65.944  0.00  0.00    +0.104 A 
ATOM      6  S   UNL     1     -10.710  11.394  64.292  0.00  0.00    -0.069 S 
ATOM      7  C   UNL     1     -11.705  12.775  64.526  0.00  0.00    +0.052 A 
BRANCH   5   8
ATOM      8  C   UNL     1      -9.695   9.881  66.571  0.00  0.00    +0.126 C 
BRANCH   8   9
ATOM      9  N   UNL     1     -10.647   9.106  67.366  0.00  0.00    -0.265 NA
ATOM     10  C   UNL     1     -10.290   9.188  68.778  0.00  0.00    +0.090 C 
ATOM     11  C   UNL     1     -10.618   7.704  67.000  0.00  0.00    +0.090 C 
ENDBRANCH   8   9
ENDBRANCH   5   8
ENDBRANCH   2   3
ENDBRANCH   1   2
BRANCH   1  12
ATOM     12  C   UNL     1     -11.593  15.618  69.026  0.00  0.00    +0.113 C 
BRANCH  12  13
ATOM     13  C   UNL     1     -11.581  15.505  70.545  0.00  0.00    +0.263 C 
BRANCH  13  14
ATOM     14  N   UNL     1     -12.883  15.019  70.961  0.00  0.00    -0.027 NA
BRANCH  14  15
ATOM     15  C   UNL     1     -13.003  14.191  72.113  0.00  0.00    +0.424 C 
ATOM     16  C   UNL     1     -12.684  14.699  73.303  0.00  0.00    +0.447 C 
BRANCH  16  17
ATOM     17  N   UNL     1     -12.994  16.068  73.560  0.00  0.00    +0.096 N 
ATOM     18  O   UNL     1     -14.269  16.480  73.206  0.00  0.00    -0.576 OA
ATOM     19  O   UNL     1     -12.515  16.579  74.591  0.00  0.00    +0.042 OA
ENDBRANCH  16  17
BRANCH  15  21
ATOM     20  C   UNL     1     -12.718  11.809  71.366  0.00  0.00    +0.306 C 
ATOM     21  N   UNL     1     -13.506  12.868  71.951  0.00  0.00    -0.023 NA
ENDBRANCH  15  21
ENDBRANCH  14  15
ENDBRANCH  13  14
ENDBRANCH  12  13
ENDBRANCH   1  12
TORSDOF 10
ENDMDL
MODEL 9
REMARK VINA RESULT:      -4.7      2.714      6.890
REMARK  Name = 
REMARK  10 active torsions:
REMARK  status: ('A' for Active; 'I' for Inactive)
REMARK    1  A    between atoms: N_2  and  C_3
REMARK    2  A    between atoms: C_3  and  N_8
REMARK    3  A    between atoms: C_4  and  N_5
REMARK    4  A    between atoms: N_8  and  C_9
REMARK    5  A    between atoms: C_9  and  C_10
REMARK    6  A    between atoms: C_10  and  S_11
REMARK    7  A    between atoms: S_11  and  C_12
REMARK    8  A    between atoms: C_12  and  C_13
REMARK    9  A    between atoms: C_16  and  C_17
REMARK   10  A    between atoms: C_17  and  N_18
REMARK                            x       y       z     vdW  Elec       q    Type
REMARK                         _______ _______ _______ _____ _____    ______ ____
ROOT
ATOM      1  S   UNL     1      -9.408  14.879  66.163  0.00  0.00    -0.129 S 
ENDROOT
BRANCH   1   2
ATOM      2  C   UNL     1     -11.190  14.921  66.547  0.00  0.00    +0.104 C 
BRANCH   2   3
ATOM      3  C   UNL     1     -11.398  13.947  67.669  0.00  0.00    +0.077 A 
ATOM      4  N   UNL     1     -12.290  14.223  68.639  0.00  0.00    -0.245 NA
ATOM      5  C   UNL     1     -12.060  13.479  69.745  0.00  0.00    +0.104 A 
ATOM      6  S   UNL     1     -11.618  11.987  69.017  0.00  0.00    -0.069 S 
ATOM      7  C   UNL     1     -11.350  12.578  67.425  0.00  0.00    +0.052 A 
BRANCH   5   8
ATOM      8  C   UNL     1     -12.394  13.799  71.169  0.00  0.00    +0.126 C 
BRANCH   8   9
ATOM      9  N   UNL     1     -12.928  15.159  71.141  0.00  0.00    -0.265 NA
ATOM     10  C   UNL     1     -12.049  16.049  71.891  0.00  0.00    +0.090 C 
ATOM     11  C   UNL     1     -14.234  15.224  71.766  0.00  0.00    +0.090 C 
ENDBRANCH   8   9
ENDBRANCH   5   8
ENDBRANCH   2   3
ENDBRANCH   1   2
BRANCH   1  12
ATOM     12  C   UNL     1      -8.546  16.081  67.225  0.00  0.00    +0.113 C 
BRANCH  12  13
ATOM     13  C   UNL     1      -7.375  16.635  66.425  0.00  0.00    +0.263 C 
BRANCH  13  14
ATOM     14  N   UNL     1      -7.779  17.917  65.881  0.00  0.00    -0.027 NA
BRANCH  14  15
ATOM     15  C   UNL     1      -7.875  19.057  66.730  0.00  0.00    +0.424 C 
ATOM     16  C   UNL     1      -8.964  19.821  66.656  0.00  0.00    +0.447 C 
BRANCH  16  17
ATOM     17  N   UNL     1     -10.221  19.186  66.422  0.00  0.00    +0.096 N 
ATOM     18  O   UNL     1     -11.048  19.049  67.525  0.00  0.00    -0.576 OA
ATOM     19  O   UNL     1     -10.784  19.418  65.334  0.00  0.00    +0.042 OA
ENDBRANCH  16  17
BRANCH  15  21
ATOM     20  C   UNL     1      -7.068  19.526  69.062  0.00  0.00    +0.306 C 
ATOM     21  N   UNL     1      -6.822  19.305  67.657  0.00  0.00    -0.023 NA
ENDBRANCH  15  21
ENDBRANCH  14  15
ENDBRANCH  13  14
ENDBRANCH  12  13
ENDBRANCH   1  12
TORSDOF 10
ENDMDL
