MODEL 1
REMARK VINA RESULT:      -6.6      0.000      0.000
REMARK  Name = 
REMARK  6 active torsions:
REMARK  status: ('A' for Active; 'I' for Inactive)
REMARK    1  A    between atoms: O_2  and  C_3
REMARK    2  A    between atoms: C_7  and  C_8
REMARK    3  A    between atoms: C_9  and  C_10
REMARK    4  A    between atoms: C_12  and  C_13
REMARK    5  A    between atoms: C_14  and  C_15
REMARK    6  A    between atoms: C_17  and  C_18
REMARK                            x       y       z     vdW  Elec       q    Type
REMARK                         _______ _______ _______ _____ _____    ______ ____
ROOT
ATOM      1  C   UNL     1     -11.600  15.911  68.725  0.00  0.00    -0.001 C 
ATOM      2  C   UNL     1     -10.650  16.674  69.205  0.00  0.00    -0.004 C 
ENDROOT
BRANCH   1   8
ATOM      3  C   UNL     1     -12.130  12.051  70.416  0.00  0.00    +0.134 A 
ATOM      4  C   UNL     1     -12.660  13.159  71.065  0.00  0.00    +0.008 A 
ATOM      5  C   UNL     1     -13.555  12.985  72.249  0.00  0.00    +0.034 C 
ATOM      6  C   UNL     1     -12.452  14.428  70.545  0.00  0.00    -0.023 A 
ATOM      7  C   UNL     1     -12.862  15.649  71.272  0.00  0.00    +0.031 C 
ATOM      8  C   UNL     1     -11.952  14.593  69.270  0.00  0.00    -0.008 A 
ATOM      9  C   UNL     1     -11.644  13.460  68.526  0.00  0.00    -0.019 A 
ATOM     10  C   UNL     1     -11.206  13.663  67.134  0.00  0.00    +0.031 C 
ATOM     11  C   UNL     1     -11.436  12.288  69.237  0.00  0.00    +0.032 A 
BRANCH   3  13
ATOM     12  C   UNL     1     -12.003   9.779  71.221  0.00  0.00    +0.252 C 
ATOM     13  O   UNL     1     -12.775  10.841  70.675  0.00  0.00    -0.472 OA
ENDBRANCH   3  13
ENDBRANCH   1   8
BRANCH   2  14
ATOM     14  C   UNL     1      -9.505  17.165  68.429  0.00  0.00    -0.022 C 
ATOM     15  C   UNL     1      -9.329  18.485  68.362  0.00  0.00    -0.004 C 
ATOM     16  C   UNL     1      -8.454  16.288  67.886  0.00  0.00    +0.031 C 
BRANCH  15  17
ATOM     17  C   UNL     1      -7.985  19.070  68.284  0.00  0.00    -0.001 C 
ATOM     18  C   UNL     1      -7.441  19.661  69.338  0.00  0.00    -0.004 C 
BRANCH  18  19
ATOM     19  C   UNL     1      -6.092  20.200  69.146  0.00  0.00    -0.015 C 
ATOM     20  C   UNL     1      -5.254  20.185  70.159  0.00  0.00    +0.082 C 
ATOM     21  C   UNL     1      -5.728  21.042  67.972  0.00  0.00    +0.031 C 
BRANCH  20  22
ATOM     22  C   UNL     1      -4.267  21.236  70.400  0.00  0.00    +0.388 C 
ATOM     23  O   UNL     1      -4.595  22.160  71.397  0.00  0.00    -0.241 OA
ATOM     24  O   UNL     1      -3.043  20.906  70.370  0.00  0.00    -0.241 OA
ENDBRANCH  20  22
ENDBRANCH  18  19
ENDBRANCH  15  17
ENDBRANCH   2  14
TORSDOF 6
ENDMDL
MODEL 2
REMARK VINA RESULT:      -6.5      5.617      8.013
REMARK  Name = 
REMARK  6 active torsions:
REMARK  status: ('A' for Active; 'I' for Inactive)
REMARK    1  A    between atoms: O_2  and  C_3
REMARK    2  A    between atoms: C_7  and  C_8
REMARK    3  A    between atoms: C_9  and  C_10
REMARK    4  A    between atoms: C_12  and  C_13
REMARK    5  A    between atoms: C_14  and  C_15
REMARK    6  A    between atoms: C_17  and  C_18
REMARK                            x       y       z     vdW  Elec       q    Type
REMARK                         _______ _______ _______ _____ _____    ______ ____
ROOT
ATOM      1  C   UNL     1     -10.615  12.138  66.233  0.00  0.00    -0.001 C 
ATOM      2  C   UNL     1     -11.626  11.979  67.050  0.00  0.00    -0.004 C 
ENDROOT
BRANCH   1   8
ATOM      3  C   UNL     1      -8.735   9.413  63.571  0.00  0.00    +0.134 A 
ATOM      4  C   UNL     1      -8.500   9.306  64.936  0.00  0.00    +0.008 A 
ATOM      5  C   UNL     1      -7.738   8.143  65.482  0.00  0.00    +0.034 C 
ATOM      6  C   UNL     1      -9.073  10.219  65.809  0.00  0.00    -0.023 A 
ATOM      7  C   UNL     1      -8.736  10.243  67.249  0.00  0.00    +0.031 C 
ATOM      8  C   UNL     1     -10.069  11.074  65.381  0.00  0.00    -0.008 A 
ATOM      9  C   UNL     1     -10.472  11.010  64.052  0.00  0.00    -0.019 A 
ATOM     10  C   UNL     1     -11.604  11.862  63.647  0.00  0.00    +0.031 C 
ATOM     11  C   UNL     1      -9.579  10.436  63.159  0.00  0.00    +0.032 A 
BRANCH   3  13
ATOM     12  C   UNL     1      -8.371   8.342  61.440  0.00  0.00    +0.252 C 
ATOM     13  O   UNL     1      -8.578   8.235  62.842  0.00  0.00    -0.472 OA
ENDBRANCH   3  13
ENDBRANCH   1   8
BRANCH   2  14
ATOM     14  C   UNL     1     -11.576  12.231  68.495  0.00  0.00    -0.022 C 
ATOM     15  C   UNL     1     -11.285  13.470  68.892  0.00  0.00    -0.004 C 
ATOM     16  C   UNL     1     -12.004  11.252  69.507  0.00  0.00    +0.031 C 
BRANCH  15  17
ATOM     17  C   UNL     1     -11.861  14.031  70.121  0.00  0.00    -0.001 C 
ATOM     18  C   UNL     1     -12.724  15.035  70.067  0.00  0.00    -0.004 C 
BRANCH  18  19
ATOM     19  C   UNL     1     -13.242  15.506  71.354  0.00  0.00    -0.015 C 
ATOM     20  C   UNL     1     -12.392  15.938  72.259  0.00  0.00    +0.082 C 
ATOM     21  C   UNL     1     -14.635  15.229  71.804  0.00  0.00    +0.031 C 
BRANCH  20  22
ATOM     22  C   UNL     1     -12.578  15.739  73.695  0.00  0.00    +0.388 C 
ATOM     23  O   UNL     1     -12.083  14.538  74.211  0.00  0.00    -0.241 OA
ATOM     24  O   UNL     1     -12.412  16.745  74.449  0.00  0.00    -0.241 OA
ENDBRANCH  20  22
ENDBRANCH  18  19
ENDBRANCH  15  17
ENDBRANCH   2  14
TORSDOF 6
ENDMDL
MODEL 3
REMARK VINA RESULT:      -6.4      5.560      8.052
REMARK  Name = 
REMARK  6 active torsions:
REMARK  status: ('A' for Active; 'I' for Inactive)
REMARK    1  A    between atoms: O_2  and  C_3
REMARK    2  A    between atoms: C_7  and  C_8
REMARK    3  A    between atoms: C_9  and  C_10
REMARK    4  A    between atoms: C_12  and  C_13
REMARK    5  A    between atoms: C_14  and  C_15
REMARK    6  A    between atoms: C_17  and  C_18
REMARK                            x       y       z     vdW  Elec       q    Type
REMARK                         _______ _______ _______ _____ _____    ______ ____
ROOT
ATOM      1  C   UNL     1     -10.349  12.180  66.389  0.00  0.00    -0.001 C 
ATOM      2  C   UNL     1     -11.394  11.894  67.125  0.00  0.00    -0.004 C 
ENDROOT
BRANCH   1   8
ATOM      3  C   UNL     1      -8.544   8.992  64.239  0.00  0.00    +0.134 A 
ATOM      4  C   UNL     1      -9.334   9.912  63.561  0.00  0.00    +0.008 A 
ATOM      5  C   UNL     1      -9.409   9.889  62.068  0.00  0.00    +0.034 C 
ATOM      6  C   UNL     1      -9.964  10.929  64.261  0.00  0.00    -0.023 A 
ATOM      7  C   UNL     1     -10.933  11.841  63.615  0.00  0.00    +0.031 C 
ATOM      8  C   UNL     1      -9.624  11.199  65.572  0.00  0.00    -0.008 A 
ATOM      9  C   UNL     1      -8.648  10.416  66.178  0.00  0.00    -0.019 A 
ATOM     10  C   UNL     1      -8.234  10.788  67.542  0.00  0.00    +0.031 C 
ATOM     11  C   UNL     1      -8.406   9.175  65.608  0.00  0.00    +0.032 A 
BRANCH   3  13
ATOM     12  C   UNL     1      -6.247   8.864  63.511  0.00  0.00    +0.252 C 
ATOM     13  O   UNL     1      -7.574   8.353  63.468  0.00  0.00    -0.472 OA
ENDBRANCH   3  13
ENDBRANCH   1   8
BRANCH   2  14
ATOM     14  C   UNL     1     -11.481  12.124  68.572  0.00  0.00    -0.022 C 
ATOM     15  C   UNL     1     -11.187  13.345  69.018  0.00  0.00    -0.004 C 
ATOM     16  C   UNL     1     -12.045  11.147  69.519  0.00  0.00    +0.031 C 
BRANCH  15  17
ATOM     17  C   UNL     1     -11.864  13.910  70.192  0.00  0.00    -0.001 C 
ATOM     18  C   UNL     1     -12.432  15.106  70.136  0.00  0.00    -0.004 C 
BRANCH  18  19
ATOM     19  C   UNL     1     -13.087  15.563  71.365  0.00  0.00    -0.015 C 
ATOM     20  C   UNL     1     -12.346  16.061  72.330  0.00  0.00    +0.082 C 
ATOM     21  C   UNL     1     -14.494  15.207  71.699  0.00  0.00    +0.031 C 
BRANCH  20  22
ATOM     22  C   UNL     1     -12.644  15.873  73.749  0.00  0.00    +0.388 C 
ATOM     23  O   UNL     1     -12.251  14.647  74.295  0.00  0.00    -0.241 OA
ATOM     24  O   UNL     1     -12.479  16.869  74.517  0.00  0.00    -0.241 OA
ENDBRANCH  20  22
ENDBRANCH  18  19
ENDBRANCH  15  17
ENDBRANCH   2  14
TORSDOF 6
ENDMDL
MODEL 4
REMARK VINA RESULT:      -6.4      6.309      9.320
REMARK  Name = 
REMARK  6 active torsions:
REMARK  status: ('A' for Active; 'I' for Inactive)
REMARK    1  A    between atoms: O_2  and  C_3
REMARK    2  A    between atoms: C_7  and  C_8
REMARK    3  A    between atoms: C_9  and  C_10
REMARK    4  A    between atoms: C_12  and  C_13
REMARK    5  A    between atoms: C_14  and  C_15
REMARK    6  A    between atoms: C_17  and  C_18
REMARK                            x       y       z     vdW  Elec       q    Type
REMARK                         _______ _______ _______ _____ _____    ______ ____
ROOT
ATOM      1  C   UNL     1     -12.042   7.120  71.200  0.00  0.00    -0.001 C 
ATOM      2  C   UNL     1     -11.630   8.263  71.687  0.00  0.00    -0.004 C 
ENDROOT
BRANCH   1   8
ATOM      3  C   UNL     1      -9.098   4.208  70.252  0.00  0.00    +0.134 A 
ATOM      4  C   UNL     1      -9.715   4.176  71.497  0.00  0.00    +0.008 A 
ATOM      5  C   UNL     1      -9.478   3.031  72.428  0.00  0.00    +0.034 C 
ATOM      6  C   UNL     1     -10.643   5.150  71.832  0.00  0.00    -0.023 A 
ATOM      7  C   UNL     1     -11.214   5.251  73.193  0.00  0.00    +0.031 C 
ATOM      8  C   UNL     1     -11.154   5.997  70.871  0.00  0.00    -0.008 A 
ATOM      9  C   UNL     1     -10.704   5.864  69.562  0.00  0.00    -0.019 A 
ATOM     10  C   UNL     1     -11.338   6.714  68.539  0.00  0.00    +0.031 C 
ATOM     11  C   UNL     1      -9.487   5.221  69.387  0.00  0.00    +0.032 A 
BRANCH   3  13
ATOM     12  C   UNL     1      -9.281   2.352  68.720  0.00  0.00    +0.252 C 
ATOM     13  O   UNL     1      -8.603   2.986  69.798  0.00  0.00    -0.472 OA
ENDBRANCH   3  13
ENDBRANCH   1   8
BRANCH   2  14
ATOM     14  C   UNL     1     -11.868   9.570  71.062  0.00  0.00    -0.022 C 
ATOM     15  C   UNL     1     -12.877  10.302  71.535  0.00  0.00    -0.004 C 
ATOM     16  C   UNL     1     -10.954  10.182  70.083  0.00  0.00    +0.031 C 
BRANCH  15  17
ATOM     17  C   UNL     1     -12.809  11.769  71.553  0.00  0.00    -0.001 C 
ATOM     18  C   UNL     1     -13.721  12.480  72.199  0.00  0.00    -0.004 C 
BRANCH  18  19
ATOM     19  C   UNL     1     -13.547  13.935  72.158  0.00  0.00    -0.015 C 
ATOM     20  C   UNL     1     -12.537  14.470  72.806  0.00  0.00    +0.082 C 
ATOM     21  C   UNL     1     -14.622  14.854  71.689  0.00  0.00    +0.031 C 
BRANCH  20  22
ATOM     22  C   UNL     1     -12.608  15.771  73.471  0.00  0.00    +0.388 C 
ATOM     23  O   UNL     1     -12.600  15.740  74.868  0.00  0.00    -0.241 OA
ATOM     24  O   UNL     1     -11.945  16.724  72.960  0.00  0.00    -0.241 OA
ENDBRANCH  20  22
ENDBRANCH  18  19
ENDBRANCH  15  17
ENDBRANCH   2  14
TORSDOF 6
ENDMDL
MODEL 5
REMARK VINA RESULT:      -6.4      6.163      9.476
REMARK  Name = 
REMARK  6 active torsions:
REMARK  status: ('A' for Active; 'I' for Inactive)
REMARK    1  A    between atoms: O_2  and  C_3
REMARK    2  A    between atoms: C_7  and  C_8
REMARK    3  A    between atoms: C_9  and  C_10
REMARK    4  A    between atoms: C_12  and  C_13
REMARK    5  A    between atoms: C_14  and  C_15
REMARK    6  A    between atoms: C_17  and  C_18
REMARK                            x       y       z     vdW  Elec       q    Type
REMARK                         _______ _______ _______ _____ _____    ______ ____
ROOT
ATOM      1  C   UNL     1     -11.906   7.112  71.296  0.00  0.00    -0.001 C 
ATOM      2  C   UNL     1     -11.550   8.295  71.730  0.00  0.00    -0.004 C 
ENDROOT
BRANCH   1   8
ATOM      3  C   UNL     1      -9.578   3.622  70.630  0.00  0.00    +0.134 A 
ATOM      4  C   UNL     1      -9.873   4.460  69.562  0.00  0.00    +0.008 A 
ATOM      5  C   UNL     1      -9.238   4.237  68.228  0.00  0.00    +0.034 C 
ATOM      6  C   UNL     1     -10.671   5.577  69.761  0.00  0.00    -0.023 A 
ATOM      7  C   UNL     1     -11.140   6.415  68.636  0.00  0.00    +0.031 C 
ATOM      8  C   UNL     1     -10.967   6.014  71.036  0.00  0.00    -0.008 A 
ATOM      9  C   UNL     1     -10.462   5.298  72.116  0.00  0.00    -0.019 A 
ATOM     10  C   UNL     1     -10.709   5.842  73.463  0.00  0.00    +0.031 C 
ATOM     11  C   UNL     1     -10.086   3.986  71.870  0.00  0.00    +0.032 A 
BRANCH   3  13
ATOM     12  C   UNL     1      -8.389   1.573  71.090  0.00  0.00    +0.252 C 
ATOM     13  O   UNL     1      -8.416   2.863  70.491  0.00  0.00    -0.472 OA
ENDBRANCH   3  13
ENDBRANCH   1   8
BRANCH   2  14
ATOM     14  C   UNL     1     -11.834   9.557  71.036  0.00  0.00    -0.022 C 
ATOM     15  C   UNL     1     -12.874  10.273  71.463  0.00  0.00    -0.004 C 
ATOM     16  C   UNL     1     -10.936  10.153  70.032  0.00  0.00    +0.031 C 
BRANCH  15  17
ATOM     17  C   UNL     1     -12.864  11.739  71.406  0.00  0.00    -0.001 C 
ATOM     18  C   UNL     1     -13.622  12.454  72.225  0.00  0.00    -0.004 C 
BRANCH  18  19
ATOM     19  C   UNL     1     -13.523  13.910  72.084  0.00  0.00    -0.015 C 
ATOM     20  C   UNL     1     -12.485  14.527  72.604  0.00  0.00    +0.082 C 
ATOM     21  C   UNL     1     -14.678  14.752  71.665  0.00  0.00    +0.031 C 
BRANCH  20  22
ATOM     22  C   UNL     1     -12.558  15.862  73.196  0.00  0.00    +0.388 C 
ATOM     23  O   UNL     1     -12.676  15.903  74.589  0.00  0.00    -0.241 OA
ATOM     24  O   UNL     1     -11.811  16.760  72.703  0.00  0.00    -0.241 OA
ENDBRANCH  20  22
ENDBRANCH  18  19
ENDBRANCH  15  17
ENDBRANCH   2  14
TORSDOF 6
ENDMDL
MODEL 6
REMARK VINA RESULT:      -6.3      2.204      3.470
REMARK  Name = 
REMARK  6 active torsions:
REMARK  status: ('A' for Active; 'I' for Inactive)
REMARK    1  A    between atoms: O_2  and  C_3
REMARK    2  A    between atoms: C_7  and  C_8
REMARK    3  A    between atoms: C_9  and  C_10
REMARK    4  A    between atoms: C_12  and  C_13
REMARK    5  A    between atoms: C_14  and  C_15
REMARK    6  A    between atoms: C_17  and  C_18
REMARK                            x       y       z     vdW  Elec       q    Type
REMARK                         _______ _______ _______ _____ _____    ______ ____
ROOT
ATOM      1  C   UNL     1      -8.977  16.564  66.177  0.00  0.00    -0.001 C 
ATOM      2  C   UNL     1      -9.326  17.807  66.393  0.00  0.00    -0.004 C 
ENDROOT
BRANCH   1   8
ATOM      3  C   UNL     1     -11.550  13.508  67.621  0.00  0.00    +0.134 A 
ATOM      4  C   UNL     1     -11.724  13.994  66.331  0.00  0.00    +0.008 A 
ATOM      5  C   UNL     1     -12.686  13.333  65.398  0.00  0.00    +0.034 C 
ATOM      6  C   UNL     1     -10.919  15.023  65.867  0.00  0.00    -0.023 A 
ATOM      7  C   UNL     1     -11.159  15.677  64.563  0.00  0.00    +0.031 C 
ATOM      8  C   UNL     1      -9.788  15.402  66.562  0.00  0.00    -0.008 A 
ATOM      9  C   UNL     1      -9.485  14.740  67.747  0.00  0.00    -0.019 A 
ATOM     10  C   UNL     1      -8.221  15.095  68.416  0.00  0.00    +0.031 C 
ATOM     11  C   UNL     1     -10.531  14.077  68.372  0.00  0.00    +0.032 A 
BRANCH   3  13
ATOM     12  C   UNL     1     -11.463  11.490  68.941  0.00  0.00    +0.252 C 
ATOM     13  O   UNL     1     -12.000  12.206  67.836  0.00  0.00    -0.472 OA
ENDBRANCH   3  13
ENDBRANCH   1   8
BRANCH   2  14
ATOM     14  C   UNL     1      -8.532  18.774  67.160  0.00  0.00    -0.022 C 
ATOM     15  C   UNL     1      -8.398  18.557  68.469  0.00  0.00    -0.004 C 
ATOM     16  C   UNL     1      -7.738  19.848  66.541  0.00  0.00    +0.031 C 
BRANCH  15  17
ATOM     17  C   UNL     1      -7.171  18.937  69.181  0.00  0.00    -0.001 C 
ATOM     18  C   UNL     1      -6.175  18.075  69.320  0.00  0.00    -0.004 C 
BRANCH  18  19
ATOM     19  C   UNL     1      -4.997  18.567  70.040  0.00  0.00    -0.015 C 
ATOM     20  C   UNL     1      -5.171  19.235  71.158  0.00  0.00    +0.082 C 
ATOM     21  C   UNL     1      -3.646  18.624  69.414  0.00  0.00    +0.031 C 
BRANCH  20  22
ATOM     22  C   UNL     1      -4.316  20.346  71.572  0.00  0.00    +0.388 C 
ATOM     23  O   UNL     1      -4.883  21.620  71.470  0.00  0.00    -0.241 OA
ATOM     24  O   UNL     1      -3.589  20.173  72.596  0.00  0.00    -0.241 OA
ENDBRANCH  20  22
ENDBRANCH  18  19
ENDBRANCH  15  17
ENDBRANCH   2  14
TORSDOF 6
ENDMDL
MODEL 7
REMARK VINA RESULT:      -6.3      1.900      3.122
REMARK  Name = 
REMARK  6 active torsions:
REMARK  status: ('A' for Active; 'I' for Inactive)
REMARK    1  A    between atoms: O_2  and  C_3
REMARK    2  A    between atoms: C_7  and  C_8
REMARK    3  A    between atoms: C_9  and  C_10
REMARK    4  A    between atoms: C_12  and  C_13
REMARK    5  A    between atoms: C_14  and  C_15
REMARK    6  A    between atoms: C_17  and  C_18
REMARK                            x       y       z     vdW  Elec       q    Type
REMARK                         _______ _______ _______ _____ _____    ______ ____
ROOT
ATOM      1  C   UNL     1     -10.709  13.008  68.091  0.00  0.00    -0.001 C 
ATOM      2  C   UNL     1     -11.187  13.424  66.945  0.00  0.00    -0.004 C 
ENDROOT
BRANCH   1   8
ATOM      3  C   UNL     1     -12.575  10.898  71.270  0.00  0.00    +0.134 A 
ATOM      4  C   UNL     1     -12.668  12.284  71.223  0.00  0.00    +0.008 A 
ATOM      5  C   UNL     1     -13.558  13.014  72.175  0.00  0.00    +0.034 C 
ATOM      6  C   UNL     1     -12.023  12.984  70.214  0.00  0.00    -0.023 A 
ATOM      7  C   UNL     1     -11.964  14.462  70.203  0.00  0.00    +0.031 C 
ATOM      8  C   UNL     1     -11.506  12.325  69.118  0.00  0.00    -0.008 A 
ATOM      9  C   UNL     1     -11.629  10.942  69.056  0.00  0.00    -0.019 A 
ATOM     10  C   UNL     1     -11.157  10.274  67.830  0.00  0.00    +0.031 C 
ATOM     11  C   UNL     1     -11.851  10.284  70.257  0.00  0.00    +0.032 A 
BRANCH   3  13
ATOM     12  C   UNL     1     -13.500   8.848  72.143  0.00  0.00    +0.252 C 
ATOM     13  O   UNL     1     -13.608  10.252  71.948  0.00  0.00    -0.472 OA
ENDBRANCH   3  13
ENDBRANCH   1   8
BRANCH   2  14
ATOM     14  C   UNL     1     -11.135  14.814  66.476  0.00  0.00    -0.022 C 
ATOM     15  C   UNL     1     -10.903  15.760  67.386  0.00  0.00    -0.004 C 
ATOM     16  C   UNL     1     -11.140  15.193  65.054  0.00  0.00    +0.031 C 
BRANCH  15  17
ATOM     17  C   UNL     1     -10.153  16.975  67.046  0.00  0.00    -0.001 C 
ATOM     18  C   UNL     1     -10.103  17.998  67.887  0.00  0.00    -0.004 C 
BRANCH  18  19
ATOM     19  C   UNL     1      -9.316  19.154  67.446  0.00  0.00    -0.015 C 
ATOM     20  C   UNL     1      -8.005  19.067  67.454  0.00  0.00    +0.082 C 
ATOM     21  C   UNL     1      -9.910  20.511  67.293  0.00  0.00    +0.031 C 
BRANCH  20  22
ATOM     22  C   UNL     1      -7.127  20.193  67.769  0.00  0.00    +0.388 C 
ATOM     23  O   UNL     1      -6.535  20.166  69.036  0.00  0.00    -0.241 OA
ATOM     24  O   UNL     1      -6.374  20.623  66.844  0.00  0.00    -0.241 OA
ENDBRANCH  20  22
ENDBRANCH  18  19
ENDBRANCH  15  17
ENDBRANCH   2  14
TORSDOF 6
ENDMDL
MODEL 8
REMARK VINA RESULT:      -6.3      3.612      5.617
REMARK  Name = 
REMARK  6 active torsions:
REMARK  status: ('A' for Active; 'I' for Inactive)
REMARK    1  A    between atoms: O_2  and  C_3
REMARK    2  A    between atoms: C_7  and  C_8
REMARK    3  A    between atoms: C_9  and  C_10
REMARK    4  A    between atoms: C_12  and  C_13
REMARK    5  A    between atoms: C_14  and  C_15
REMARK    6  A    between atoms: C_17  and  C_18
REMARK                            x       y       z     vdW  Elec       q    Type
REMARK                         _______ _______ _______ _____ _____    ______ ____
ROOT
ATOM      1  C   UNL     1     -13.272  11.972  71.171  0.00  0.00    -0.001 C 
ATOM      2  C   UNL     1     -12.881  12.929  71.974  0.00  0.00    -0.004 C 
ENDROOT
BRANCH   1   8
ATOM      3  C   UNL     1     -10.511   8.843  70.374  0.00  0.00    +0.134 A 
ATOM      4  C   UNL     1     -11.599   8.599  71.204  0.00  0.00    +0.008 A 
ATOM      5  C   UNL     1     -11.896   7.212  71.672  0.00  0.00    +0.034 C 
ATOM      6  C   UNL     1     -12.479   9.627  71.507  0.00  0.00    -0.023 A 
ATOM      7  C   UNL     1     -13.562   9.462  72.501  0.00  0.00    +0.031 C 
ATOM      8  C   UNL     1     -12.446  10.815  70.804  0.00  0.00    -0.008 A 
ATOM      9  C   UNL     1     -11.497  10.964  69.799  0.00  0.00    -0.019 A 
ATOM     10  C   UNL     1     -11.548  12.200  69.000  0.00  0.00    +0.031 C 
ATOM     11  C   UNL     1     -10.392  10.127  69.859  0.00  0.00    +0.032 A 
BRANCH   3  13
ATOM     12  C   UNL     1      -9.752   7.823  68.323  0.00  0.00    +0.252 C 
ATOM     13  O   UNL     1      -9.995   7.725  69.721  0.00  0.00    -0.472 OA
ENDBRANCH   3  13
ENDBRANCH   1   8
BRANCH   2  14
ATOM     14  C   UNL     1     -12.832  14.351  71.613  0.00  0.00    -0.022 C 
ATOM     15  C   UNL     1     -11.644  14.860  71.286  0.00  0.00    -0.004 C 
ATOM     16  C   UNL     1     -14.030  15.182  71.416  0.00  0.00    +0.031 C 
BRANCH  15  17
ATOM     17  C   UNL     1     -11.523  15.930  70.288  0.00  0.00    -0.001 C 
ATOM     18  C   UNL     1     -10.497  15.963  69.451  0.00  0.00    -0.004 C 
BRANCH  18  19
ATOM     19  C   UNL     1     -10.486  17.071  68.492  0.00  0.00    -0.015 C 
ATOM     20  C   UNL     1     -10.808  16.829  67.241  0.00  0.00    +0.082 C 
ATOM     21  C   UNL     1      -9.831  18.376  68.787  0.00  0.00    +0.031 C 
BRANCH  20  22
ATOM     22  C   UNL     1     -10.191  17.511  66.105  0.00  0.00    +0.388 C 
ATOM     23  O   UNL     1      -8.914  17.066  65.750  0.00  0.00    -0.241 OA
ATOM     24  O   UNL     1     -10.938  17.806  65.124  0.00  0.00    -0.241 OA
ENDBRANCH  20  22
ENDBRANCH  18  19
ENDBRANCH  15  17
ENDBRANCH   2  14
TORSDOF 6
ENDMDL
MODEL 9
REMARK VINA RESULT:      -6.3      5.498      7.751
REMARK  Name = 
REMARK  6 active torsions:
REMARK  status: ('A' for Active; 'I' for Inactive)
REMARK    1  A    between atoms: O_2  and  C_3
REMARK    2  A    between atoms: C_7  and  C_8
REMARK    3  A    between atoms: C_9  and  C_10
REMARK    4  A    between atoms: C_12  and  C_13
REMARK    5  A    between atoms: C_14  and  C_15
REMARK    6  A    between atoms: C_17  and  C_18
REMARK                            x       y       z     vdW  Elec       q    Type
REMARK                         _______ _______ _______ _____ _____    ______ ____
ROOT
ATOM      1  C   UNL     1     -12.764  10.061  70.592  0.00  0.00    -0.001 C 
ATOM      2  C   UNL     1     -12.710  11.294  71.031  0.00  0.00    -0.004 C 
ENDROOT
BRANCH   1   8
ATOM      3  C   UNL     1     -11.215   6.456  72.220  0.00  0.00    +0.134 A 
ATOM      4  C   UNL     1     -10.338   7.454  71.813  0.00  0.00    +0.008 A 
ATOM      5  C   UNL     1      -8.876   7.340  72.103  0.00  0.00    +0.034 C 
ATOM      6  C   UNL     1     -10.832   8.615  71.238  0.00  0.00    -0.023 A 
ATOM      7  C   UNL     1      -9.941   9.640  70.652  0.00  0.00    +0.031 C 
ATOM      8  C   UNL     1     -12.179   8.911  71.292  0.00  0.00    -0.008 A 
ATOM      9  C   UNL     1     -13.031   8.009  71.921  0.00  0.00    -0.019 A 
ATOM     10  C   UNL     1     -14.447   8.395  72.052  0.00  0.00    +0.031 C 
ATOM     11  C   UNL     1     -12.570   6.707  72.051  0.00  0.00    +0.032 A 
BRANCH   3  13
ATOM     12  C   UNL     1     -11.223   4.266  73.233  0.00  0.00    +0.252 C 
ATOM     13  O   UNL     1     -10.730   5.600  73.207  0.00  0.00    -0.472 OA
ENDBRANCH   3  13
ENDBRANCH   1   8
BRANCH   2  14
ATOM     14  C   UNL     1     -12.126  12.417  70.289  0.00  0.00    -0.022 C 
ATOM     15  C   UNL     1     -11.615  12.158  69.085  0.00  0.00    -0.004 C 
ATOM     16  C   UNL     1     -12.241  13.822  70.715  0.00  0.00    +0.031 C 
BRANCH  15  17
ATOM     17  C   UNL     1     -11.667  13.152  68.006  0.00  0.00    -0.001 C 
ATOM     18  C   UNL     1     -10.561  13.537  67.386  0.00  0.00    -0.004 C 
BRANCH  18  19
ATOM     19  C   UNL     1     -10.736  14.526  66.318  0.00  0.00    -0.015 C 
ATOM     20  C   UNL     1     -11.887  14.580  65.687  0.00  0.00    +0.082 C 
ATOM     21  C   UNL     1      -9.587  15.250  65.706  0.00  0.00    +0.031 C 
BRANCH  20  22
ATOM     22  C   UNL     1     -12.009  14.896  64.264  0.00  0.00    +0.388 C 
ATOM     23  O   UNL     1     -12.579  13.900  63.467  0.00  0.00    -0.241 OA
ATOM     24  O   UNL     1     -12.351  16.078  63.957  0.00  0.00    -0.241 OA
ENDBRANCH  20  22
ENDBRANCH  18  19
ENDBRANCH  15  17
ENDBRANCH   2  14
TORSDOF 6
ENDMDL
