MODEL 1
REMARK VINA RESULT:      -7.6      0.000      0.000
REMARK  Name = 
REMARK  5 active torsions:
REMARK  status: ('A' for Active; 'I' for Inactive)
REMARK    1  A    between atoms: C_2  and  O_3
REMARK    2  A    between atoms: C_2  and  C_16
REMARK    3  A    between atoms: O_3  and  C_4
REMARK    4  A    between atoms: C_16  and  C_18
REMARK    5  A    between atoms: C_16  and  C_24
REMARK                            x       y       z     vdW  Elec       q    Type
REMARK                         _______ _______ _______ _____ _____    ______ ____
ROOT
ATOM      1  O   UNL     1      -9.610  14.617  68.662  0.00  0.00    -0.247 OA
ATOM      2  C   UNL     1      -9.917  14.554  68.603  0.00  0.00    +0.353 C 
ENDROOT
BRANCH   2   3
ATOM      3  C   UNL     1     -10.413  13.215  68.234  0.00  0.00    +0.252 C 
ATOM      4  O   UNL     1      -9.328  12.322  68.250  0.00  0.00    -0.205 OA
BRANCH   3   5
ATOM      5  C   UNL     1     -10.961  13.332  66.869  0.00  0.00    +0.019 A 
ATOM      6  C   UNL     1     -12.244  13.704  66.577  0.00  0.00    -0.001 A 
ATOM      7  C   UNL     1     -12.625  13.908  65.269  0.00  0.00    -0.000 A 
ATOM      8  C   UNL     1     -11.823  13.367  64.285  0.00  0.00    -0.000 A 
ATOM      9  C   UNL     1     -10.508  12.990  64.533  0.00  0.00    -0.000 A 
ATOM     10  C   UNL     1     -10.157  12.891  65.847  0.00  0.00    -0.001 A 
ENDBRANCH   3   5
BRANCH   3  11
ATOM     11  C   UNL     1     -11.437  12.654  69.100  0.00  0.00    +0.019 A 
ATOM     12  C   UNL     1     -12.102  13.396  70.079  0.00  0.00    -0.001 A 
ATOM     13  C   UNL     1     -12.688  12.736  71.146  0.00  0.00    -0.000 A 
ATOM     14  C   UNL     1     -12.702  11.352  71.224  0.00  0.00    -0.000 A 
ATOM     15  C   UNL     1     -12.173  10.603  70.184  0.00  0.00    -0.000 A 
ATOM     16  C   UNL     1     -11.717  11.296  69.095  0.00  0.00    -0.001 A 
ENDBRANCH   3  11
ENDBRANCH   2   3
BRANCH   2  17
ATOM     17  O   UNL     1     -10.209  15.770  68.092  0.00  0.00    -0.450 OA
BRANCH  17  18
ATOM     18  C   UNL     1      -9.086  16.833  68.123  0.00  0.00    +0.180 C 
ATOM     19  C   UNL     1      -9.990  17.859  69.011  0.00  0.00    +0.099 C 
ATOM     20  C   UNL     1      -9.682  19.379  68.469  0.00  0.00    +0.062 C 
ATOM     21  N   UNL     1      -8.333  19.118  67.783  0.00  0.00    +0.289 N 
ATOM     22  C   UNL     1      -8.583  18.617  66.358  0.00  0.00    +0.062 C 
ATOM     23  C   UNL     1      -9.784  19.727  66.138  0.00  0.00    +0.061 C 
ATOM     24  C   UNL     1      -7.958  20.511  67.478  0.00  0.00    +0.108 C 
ATOM     25  C   UNL     1      -6.524  20.374  66.999  0.00  0.00    +0.067 C 
ATOM     26  C   UNL     1      -6.099  19.089  67.679  0.00  0.00    +0.067 C 
ATOM     27  C   UNL     1      -7.313  18.663  68.486  0.00  0.00    +0.108 C 
ATOM     28  C   UNL     1     -10.674  19.222  67.164  0.00  0.00    +0.061 C 
ATOM     29  C   UNL     1      -9.624  17.389  66.681  0.00  0.00    +0.099 C 
ENDBRANCH  17  18
ENDBRANCH   2  17
TORSDOF 5
ENDMDL
MODEL 2
REMARK VINA RESULT:      -7.3      1.348      3.749
REMARK  Name = 
REMARK  5 active torsions:
REMARK  status: ('A' for Active; 'I' for Inactive)
REMARK    1  A    between atoms: C_2  and  O_3
REMARK    2  A    between atoms: C_2  and  C_16
REMARK    3  A    between atoms: O_3  and  C_4
REMARK    4  A    between atoms: C_16  and  C_18
REMARK    5  A    between atoms: C_16  and  C_24
REMARK                            x       y       z     vdW  Elec       q    Type
REMARK                         _______ _______ _______ _____ _____    ______ ____
ROOT
ATOM      1  O   UNL     1     -10.252  14.728  66.651  0.00  0.00    -0.247 OA
ATOM      2  C   UNL     1     -10.499  14.710  66.852  0.00  0.00    +0.353 C 
ENDROOT
BRANCH   2   3
ATOM      3  C   UNL     1     -11.576  13.710  66.729  0.00  0.00    +0.252 C 
ATOM      4  O   UNL     1     -12.753  14.372  66.340  0.00  0.00    -0.205 OA
BRANCH   3   5
ATOM      5  C   UNL     1     -11.744  13.109  68.067  0.00  0.00    +0.019 A 
ATOM      6  C   UNL     1     -11.727  11.766  68.322  0.00  0.00    -0.001 A 
ATOM      7  C   UNL     1     -11.766  11.308  69.620  0.00  0.00    -0.000 A 
ATOM      8  C   UNL     1     -12.201  12.188  70.589  0.00  0.00    -0.000 A 
ATOM      9  C   UNL     1     -12.220  13.561  70.379  0.00  0.00    -0.000 A 
ATOM     10  C   UNL     1     -12.086  13.966  69.083  0.00  0.00    -0.001 A 
ENDBRANCH   3   5
BRANCH   3  11
ATOM     11  C   UNL     1     -11.349  12.646  65.765  0.00  0.00    +0.019 A 
ATOM     12  C   UNL     1     -10.167  11.905  65.707  0.00  0.00    -0.001 A 
ATOM     13  C   UNL     1      -9.826  11.267  64.526  0.00  0.00    -0.000 A 
ATOM     14  C   UNL     1     -10.670  11.278  63.426  0.00  0.00    -0.000 A 
ATOM     15  C   UNL     1     -11.911  11.887  63.522  0.00  0.00    -0.000 A 
ATOM     16  C   UNL     1     -12.255  12.395  64.746  0.00  0.00    -0.001 A 
ENDBRANCH   3  11
ENDBRANCH   2   3
BRANCH   2  17
ATOM     17  O   UNL     1     -10.557  16.035  67.107  0.00  0.00    -0.450 OA
BRANCH  17  18
ATOM     18  C   UNL     1      -9.292  16.868  66.793  0.00  0.00    +0.180 C 
ATOM     19  C   UNL     1      -9.012  17.162  68.371  0.00  0.00    +0.099 C 
ATOM     20  C   UNL     1      -8.458  18.704  68.493  0.00  0.00    +0.062 C 
ATOM     21  N   UNL     1      -7.987  18.902  67.044  0.00  0.00    +0.289 N 
ATOM     22  C   UNL     1      -9.173  19.352  66.188  0.00  0.00    +0.062 C 
ATOM     23  C   UNL     1      -9.690  20.375  67.373  0.00  0.00    +0.061 C 
ATOM     24  C   UNL     1      -7.306  20.200  67.201  0.00  0.00    +0.108 C 
ATOM     25  C   UNL     1      -6.606  20.374  65.865  0.00  0.00    +0.067 C 
ATOM     26  C   UNL     1      -6.460  18.936  65.411  0.00  0.00    +0.067 C 
ATOM     27  C   UNL     1      -7.055  18.115  66.541  0.00  0.00    +0.108 C 
ATOM     28  C   UNL     1      -9.964  19.360  68.369  0.00  0.00    +0.061 C 
ATOM     29  C   UNL     1     -10.251  18.175  66.577  0.00  0.00    +0.099 C 
ENDBRANCH  17  18
ENDBRANCH   2  17
TORSDOF 5
ENDMDL
MODEL 3
REMARK VINA RESULT:      -7.2      1.728      2.747
REMARK  Name = 
REMARK  5 active torsions:
REMARK  status: ('A' for Active; 'I' for Inactive)
REMARK    1  A    between atoms: C_2  and  O_3
REMARK    2  A    between atoms: C_2  and  C_16
REMARK    3  A    between atoms: O_3  and  C_4
REMARK    4  A    between atoms: C_16  and  C_18
REMARK    5  A    between atoms: C_16  and  C_24
REMARK                            x       y       z     vdW  Elec       q    Type
REMARK                         _______ _______ _______ _____ _____    ______ ____
ROOT
ATOM      1  O   UNL     1     -11.254  16.912  68.867  0.00  0.00    -0.247 OA
ATOM      2  C   UNL     1     -11.149  16.644  68.728  0.00  0.00    +0.353 C 
ENDROOT
BRANCH   2   3
ATOM      3  C   UNL     1     -10.983  15.369  69.450  0.00  0.00    +0.252 C 
ATOM      4  O   UNL     1      -9.665  15.302  69.933  0.00  0.00    -0.205 OA
BRANCH   3   5
ATOM      5  C   UNL     1     -11.225  14.296  68.467  0.00  0.00    +0.019 A 
ATOM      6  C   UNL     1     -11.984  14.434  67.338  0.00  0.00    -0.001 A 
ATOM      7  C   UNL     1     -12.046  13.412  66.417  0.00  0.00    -0.000 A 
ATOM      8  C   UNL     1     -11.658  12.157  66.837  0.00  0.00    -0.000 A 
ATOM      9  C   UNL     1     -10.873  11.971  67.969  0.00  0.00    -0.000 A 
ATOM     10  C   UNL     1     -10.771  13.045  68.803  0.00  0.00    -0.001 A 
ENDBRANCH   3   5
BRANCH   3  11
ATOM     11  C   UNL     1     -11.862  15.164  70.589  0.00  0.00    +0.019 A 
ATOM     12  C   UNL     1     -13.242  14.982  70.469  0.00  0.00    -0.001 A 
ATOM     13  C   UNL     1     -14.057  15.262  71.553  0.00  0.00    -0.000 A 
ATOM     14  C   UNL     1     -13.532  15.638  72.779  0.00  0.00    -0.000 A 
ATOM     15  C   UNL     1     -12.157  15.679  72.950  0.00  0.00    -0.000 A 
ATOM     16  C   UNL     1     -11.391  15.275  71.889  0.00  0.00    -0.001 A 
ENDBRANCH   3  11
ENDBRANCH   2   3
BRANCH   2  17
ATOM     17  O   UNL     1     -10.341  17.261  67.839  0.00  0.00    -0.450 OA
BRANCH  17  18
ATOM     18  C   UNL     1      -9.134  18.041  68.408  0.00  0.00    +0.180 C 
ATOM     19  C   UNL     1      -9.698  19.461  67.842  0.00  0.00    +0.099 C 
ATOM     20  C   UNL     1      -8.405  20.332  67.323  0.00  0.00    +0.062 C 
ATOM     21  N   UNL     1      -7.301  19.608  68.108  0.00  0.00    +0.289 N 
ATOM     22  C   UNL     1      -6.844  18.381  67.315  0.00  0.00    +0.062 C 
ATOM     23  C   UNL     1      -6.874  19.234  65.904  0.00  0.00    +0.061 C 
ATOM     24  C   UNL     1      -6.176  20.512  67.807  0.00  0.00    +0.108 C 
ATOM     25  C   UNL     1      -5.082  20.004  68.729  0.00  0.00    +0.067 C 
ATOM     26  C   UNL     1      -5.893  19.345  69.826  0.00  0.00    +0.067 C 
ATOM     27  C   UNL     1      -7.340  19.580  69.427  0.00  0.00    +0.108 C 
ATOM     28  C   UNL     1      -8.296  19.510  65.901  0.00  0.00    +0.061 C 
ATOM     29  C   UNL     1      -8.301  17.672  67.049  0.00  0.00    +0.099 C 
ENDBRANCH  17  18
ENDBRANCH   2  17
TORSDOF 5
ENDMDL
MODEL 4
REMARK VINA RESULT:      -7.1      1.251      2.342
REMARK  Name = 
REMARK  5 active torsions:
REMARK  status: ('A' for Active; 'I' for Inactive)
REMARK    1  A    between atoms: C_2  and  O_3
REMARK    2  A    between atoms: C_2  and  C_16
REMARK    3  A    between atoms: O_3  and  C_4
REMARK    4  A    between atoms: C_16  and  C_18
REMARK    5  A    between atoms: C_16  and  C_24
REMARK                            x       y       z     vdW  Elec       q    Type
REMARK                         _______ _______ _______ _____ _____    ______ ____
ROOT
ATOM      1  O   UNL     1     -10.056  13.697  68.682  0.00  0.00    -0.247 OA
ATOM      2  C   UNL     1      -9.982  13.625  68.380  0.00  0.00    +0.353 C 
ENDROOT
BRANCH   2   3
ATOM      3  C   UNL     1     -10.070  12.261  67.827  0.00  0.00    +0.252 C 
ATOM      4  O   UNL     1      -8.768  11.811  67.549  0.00  0.00    -0.205 OA
BRANCH   3   5
ATOM      5  C   UNL     1     -10.854  12.363  66.580  0.00  0.00    +0.019 A 
ATOM      6  C   UNL     1     -11.940  13.177  66.411  0.00  0.00    -0.001 A 
ATOM      7  C   UNL     1     -12.527  13.297  65.171  0.00  0.00    -0.000 A 
ATOM      8  C   UNL     1     -12.248  12.317  64.240  0.00  0.00    -0.000 A 
ATOM      9  C   UNL     1     -11.147  11.478  64.365  0.00  0.00    -0.000 A 
ATOM     10  C   UNL     1     -10.545  11.465  65.589  0.00  0.00    -0.001 A 
ENDBRANCH   3   5
BRANCH   3  11
ATOM     11  C   UNL     1     -10.689  11.264  68.685  0.00  0.00    +0.019 A 
ATOM     12  C   UNL     1     -11.975  11.400  69.213  0.00  0.00    -0.001 A 
ATOM     13  C   UNL     1     -12.315  10.695  70.355  0.00  0.00    -0.000 A 
ATOM     14  C   UNL     1     -11.438   9.794  70.940  0.00  0.00    -0.000 A 
ATOM     15  C   UNL     1     -10.215   9.543  70.340  0.00  0.00    -0.000 A 
ATOM     16  C   UNL     1      -9.973  10.170  69.147  0.00  0.00    -0.001 A 
ENDBRANCH   3  11
ENDBRANCH   2   3
BRANCH   2  17
ATOM     17  O   UNL     1      -9.023  14.566  68.247  0.00  0.00    -0.450 OA
BRANCH  17  18
ATOM     18  C   UNL     1      -9.465  15.953  67.727  0.00  0.00    +0.180 C 
ATOM     19  C   UNL     1      -8.457  15.870  66.449  0.00  0.00    +0.099 C 
ATOM     20  C   UNL     1      -7.846  17.377  66.207  0.00  0.00    +0.062 C 
ATOM     21  N   UNL     1      -8.919  18.189  66.949  0.00  0.00    +0.289 N 
ATOM     22  C   UNL     1      -8.567  18.242  68.437  0.00  0.00    +0.062 C 
ATOM     23  C   UNL     1      -6.974  18.495  68.092  0.00  0.00    +0.061 C 
ATOM     24  C   UNL     1      -8.488  19.544  66.559  0.00  0.00    +0.108 C 
ATOM     25  C   UNL     1      -9.627  20.414  67.060  0.00  0.00    +0.067 C 
ATOM     26  C   UNL     1     -10.776  19.427  67.077  0.00  0.00    +0.067 C 
ATOM     27  C   UNL     1     -10.177  18.132  66.557  0.00  0.00    +0.108 C 
ATOM     28  C   UNL     1      -6.742  17.232  67.420  0.00  0.00    +0.061 C 
ATOM     29  C   UNL     1      -8.366  16.638  68.726  0.00  0.00    +0.099 C 
ENDBRANCH  17  18
ENDBRANCH   2  17
TORSDOF 5
ENDMDL
MODEL 5
REMARK VINA RESULT:      -7.1      1.856      4.125
REMARK  Name = 
REMARK  5 active torsions:
REMARK  status: ('A' for Active; 'I' for Inactive)
REMARK    1  A    between atoms: C_2  and  O_3
REMARK    2  A    between atoms: C_2  and  C_16
REMARK    3  A    between atoms: O_3  and  C_4
REMARK    4  A    between atoms: C_16  and  C_18
REMARK    5  A    between atoms: C_16  and  C_24
REMARK                            x       y       z     vdW  Elec       q    Type
REMARK                         _______ _______ _______ _____ _____    ______ ____
ROOT
ATOM      1  O   UNL     1      -9.834  15.434  69.835  0.00  0.00    -0.247 OA
ATOM      2  C   UNL     1     -10.020  15.597  69.632  0.00  0.00    +0.353 C 
ENDROOT
BRANCH   2   3
ATOM      3  C   UNL     1     -11.456  15.318  69.445  0.00  0.00    +0.252 C 
ATOM      4  O   UNL     1     -11.999  16.325  68.629  0.00  0.00    -0.205 OA
BRANCH   3   5
ATOM      5  C   UNL     1     -12.069  15.358  70.787  0.00  0.00    +0.019 A 
ATOM      6  C   UNL     1     -11.370  15.317  71.961  0.00  0.00    -0.001 A 
ATOM      7  C   UNL     1     -12.024  15.488  73.161  0.00  0.00    -0.000 A 
ATOM      8  C   UNL     1     -13.392  15.313  73.167  0.00  0.00    -0.000 A 
ATOM      9  C   UNL     1     -14.144  15.362  71.999  0.00  0.00    -0.000 A 
ATOM     10  C   UNL     1     -13.439  15.280  70.835  0.00  0.00    -0.001 A 
ENDBRANCH   3   5
BRANCH   3  11
ATOM     11  C   UNL     1     -11.780  14.045  68.822  0.00  0.00    +0.019 A 
ATOM     12  C   UNL     1     -11.748  12.828  69.505  0.00  0.00    -0.001 A 
ATOM     13  C   UNL     1     -11.600  11.653  68.786  0.00  0.00    -0.000 A 
ATOM     14  C   UNL     1     -11.566  11.649  67.400  0.00  0.00    -0.000 A 
ATOM     15  C   UNL     1     -11.744  12.837  66.709  0.00  0.00    -0.000 A 
ATOM     16  C   UNL     1     -12.011  13.952  67.457  0.00  0.00    -0.001 A 
ENDBRANCH   3  11
ENDBRANCH   2   3
BRANCH   2  17
ATOM     17  O   UNL     1      -9.047  15.841  68.727  0.00  0.00    -0.450 OA
BRANCH  17  18
ATOM     18  C   UNL     1      -8.312  17.197  68.833  0.00  0.00    +0.180 C 
ATOM     19  C   UNL     1      -9.016  17.761  67.475  0.00  0.00    +0.099 C 
ATOM     20  C   UNL     1      -7.890  18.648  66.671  0.00  0.00    +0.062 C 
ATOM     21  N   UNL     1      -6.935  18.936  67.840  0.00  0.00    +0.289 N 
ATOM     22  C   UNL     1      -5.962  17.765  67.992  0.00  0.00    +0.062 C 
ATOM     23  C   UNL     1      -5.771  17.660  66.357  0.00  0.00    +0.061 C 
ATOM     24  C   UNL     1      -6.040  19.898  67.172  0.00  0.00    +0.108 C 
ATOM     25  C   UNL     1      -5.192  20.418  68.319  0.00  0.00    +0.067 C 
ATOM     26  C   UNL     1      -6.107  20.180  69.503  0.00  0.00    +0.067 C 
ATOM     27  C   UNL     1      -7.370  19.591  68.899  0.00  0.00    +0.108 C 
ATOM     28  C   UNL     1      -7.145  17.320  66.046  0.00  0.00    +0.061 C 
ATOM     29  C   UNL     1      -7.037  16.525  68.059  0.00  0.00    +0.099 C 
ENDBRANCH  17  18
ENDBRANCH   2  17
TORSDOF 5
ENDMDL
MODEL 6
REMARK VINA RESULT:      -7.0      1.887      4.112
REMARK  Name = 
REMARK  5 active torsions:
REMARK  status: ('A' for Active; 'I' for Inactive)
REMARK    1  A    between atoms: C_2  and  O_3
REMARK    2  A    between atoms: C_2  and  C_16
REMARK    3  A    between atoms: O_3  and  C_4
REMARK    4  A    between atoms: C_16  and  C_18
REMARK    5  A    between atoms: C_16  and  C_24
REMARK                            x       y       z     vdW  Elec       q    Type
REMARK                         _______ _______ _______ _____ _____    ______ ____
ROOT
ATOM      1  O   UNL     1      -8.868  15.212  66.110  0.00  0.00    -0.247 OA
ATOM      2  C   UNL     1      -9.100  15.418  66.188  0.00  0.00    +0.353 C 
ENDROOT
BRANCH   2   3
ATOM      3  C   UNL     1     -10.536  15.097  66.092  0.00  0.00    +0.252 C 
ATOM      4  O   UNL     1     -11.174  16.133  65.388  0.00  0.00    -0.205 OA
BRANCH   3   5
ATOM      5  C   UNL     1     -11.043  15.029  67.477  0.00  0.00    +0.019 A 
ATOM      6  C   UNL     1     -11.664  13.940  68.024  0.00  0.00    -0.001 A 
ATOM      7  C   UNL     1     -11.988  13.929  69.362  0.00  0.00    -0.000 A 
ATOM      8  C   UNL     1     -12.026  15.143  70.015  0.00  0.00    -0.000 A 
ATOM      9  C   UNL     1     -11.396  16.272  69.504  0.00  0.00    -0.000 A 
ATOM     10  C   UNL     1     -11.013  16.198  68.197  0.00  0.00    -0.001 A 
ENDBRANCH   3   5
BRANCH   3  11
ATOM     11  C   UNL     1     -10.867  13.855  65.414  0.00  0.00    +0.019 A 
ATOM     12  C   UNL     1     -10.082  12.704  65.498  0.00  0.00    -0.001 A 
ATOM     13  C   UNL     1     -10.172  11.749  64.499  0.00  0.00    -0.000 A 
ATOM     14  C   UNL     1     -11.084  11.869  63.461  0.00  0.00    -0.000 A 
ATOM     15  C   UNL     1     -11.969  12.935  63.448  0.00  0.00    -0.000 A 
ATOM     16  C   UNL     1     -11.925  13.786  64.520  0.00  0.00    -0.001 A 
ENDBRANCH   3  11
ENDBRANCH   2   3
BRANCH   2  17
ATOM     17  O   UNL     1      -8.421  16.527  65.822  0.00  0.00    -0.450 OA
BRANCH  17  18
ATOM     18  C   UNL     1      -7.897  17.437  66.957  0.00  0.00    +0.180 C 
ATOM     19  C   UNL     1      -8.814  18.692  66.467  0.00  0.00    +0.099 C 
ATOM     20  C   UNL     1      -7.926  20.059  66.674  0.00  0.00    +0.062 C 
ATOM     21  N   UNL     1      -6.912  19.530  67.701  0.00  0.00    +0.289 N 
ATOM     22  C   UNL     1      -5.760  18.847  66.961  0.00  0.00    +0.062 C 
ATOM     23  C   UNL     1      -5.724  20.046  65.829  0.00  0.00    +0.061 C 
ATOM     24  C   UNL     1      -6.249  20.802  68.042  0.00  0.00    +0.108 C 
ATOM     25  C   UNL     1      -5.377  20.418  69.225  0.00  0.00    +0.067 C 
ATOM     26  C   UNL     1      -6.118  19.213  69.767  0.00  0.00    +0.067 C 
ATOM     27  C   UNL     1      -7.331  19.070  68.864  0.00  0.00    +0.108 C 
ATOM     28  C   UNL     1      -7.053  19.821  65.299  0.00  0.00    +0.061 C 
ATOM     29  C   UNL     1      -6.620  17.821  66.009  0.00  0.00    +0.099 C 
ENDBRANCH  17  18
ENDBRANCH   2  17
TORSDOF 5
ENDMDL
MODEL 7
REMARK VINA RESULT:      -6.9      2.280      7.679
REMARK  Name = 
REMARK  5 active torsions:
REMARK  status: ('A' for Active; 'I' for Inactive)
REMARK    1  A    between atoms: C_2  and  O_3
REMARK    2  A    between atoms: C_2  and  C_16
REMARK    3  A    between atoms: O_3  and  C_4
REMARK    4  A    between atoms: C_16  and  C_18
REMARK    5  A    between atoms: C_16  and  C_24
REMARK                            x       y       z     vdW  Elec       q    Type
REMARK                         _______ _______ _______ _____ _____    ______ ____
ROOT
ATOM      1  O   UNL     1      -6.798  16.496  66.583  0.00  0.00    -0.247 OA
ATOM      2  C   UNL     1      -7.022  16.699  66.685  0.00  0.00    +0.353 C 
ENDROOT
BRANCH   2   3
ATOM      3  C   UNL     1      -6.734  18.085  67.099  0.00  0.00    +0.252 C 
ATOM      4  O   UNL     1      -6.043  18.046  68.323  0.00  0.00    -0.205 OA
BRANCH   3   5
ATOM      5  C   UNL     1      -8.040  18.752  67.269  0.00  0.00    +0.019 A 
ATOM      6  C   UNL     1      -8.801  19.240  66.243  0.00  0.00    -0.001 A 
ATOM      7  C   UNL     1     -10.063  19.732  66.491  0.00  0.00    -0.000 A 
ATOM      8  C   UNL     1     -10.367  20.068  67.794  0.00  0.00    -0.000 A 
ATOM      9  C   UNL     1      -9.630  19.582  68.868  0.00  0.00    -0.000 A 
ATOM     10  C   UNL     1      -8.426  19.022  68.558  0.00  0.00    -0.001 A 
ENDBRANCH   3   5
BRANCH   3  11
ATOM     11  C   UNL     1      -5.926  18.869  66.180  0.00  0.00    +0.019 A 
ATOM     12  C   UNL     1      -5.246  20.029  66.556  0.00  0.00    -0.001 A 
ATOM     13  C   UNL     1      -4.906  20.957  65.587  0.00  0.00    -0.000 A 
ATOM     14  C   UNL     1      -5.150  20.725  64.242  0.00  0.00    -0.000 A 
ATOM     15  C   UNL     1      -5.691  19.513  63.845  0.00  0.00    -0.000 A 
ATOM     16  C   UNL     1      -5.896  18.579  64.824  0.00  0.00    -0.001 A 
ENDBRANCH   3  11
ENDBRANCH   2   3
BRANCH   2  17
ATOM     17  O   UNL     1      -7.804  15.757  67.256  0.00  0.00    -0.450 OA
BRANCH  17  18
ATOM     18  C   UNL     1      -8.995  15.232  66.421  0.00  0.00    +0.180 C 
ATOM     19  C   UNL     1     -10.085  15.858  67.458  0.00  0.00    +0.099 C 
ATOM     20  C   UNL     1     -11.327  14.787  67.572  0.00  0.00    +0.062 C 
ATOM     21  N   UNL     1     -11.091  14.011  66.268  0.00  0.00    +0.289 N 
ATOM     22  C   UNL     1     -10.062  12.907  66.521  0.00  0.00    +0.062 C 
ATOM     23  C   UNL     1     -10.762  12.531  67.966  0.00  0.00    +0.061 C 
ATOM     24  C   UNL     1     -12.316  13.192  66.265  0.00  0.00    +0.108 C 
ATOM     25  C   UNL     1     -12.287  12.550  64.889  0.00  0.00    +0.067 C 
ATOM     26  C   UNL     1     -11.449  13.543  64.111  0.00  0.00    +0.067 C 
ATOM     27  C   UNL     1     -11.130  14.642  65.110  0.00  0.00    +0.108 C 
ATOM     28  C   UNL     1     -10.513  13.804  68.613  0.00  0.00    +0.061 C 
ATOM     29  C   UNL     1      -8.866  13.801  67.204  0.00  0.00    +0.099 C 
ENDBRANCH  17  18
ENDBRANCH   2  17
TORSDOF 5
ENDMDL
MODEL 8
REMARK VINA RESULT:      -6.8      1.276      4.139
REMARK  Name = 
REMARK  5 active torsions:
REMARK  status: ('A' for Active; 'I' for Inactive)
REMARK    1  A    between atoms: C_2  and  O_3
REMARK    2  A    between atoms: C_2  and  C_16
REMARK    3  A    between atoms: O_3  and  C_4
REMARK    4  A    between atoms: C_16  and  C_18
REMARK    5  A    between atoms: C_16  and  C_24
REMARK                            x       y       z     vdW  Elec       q    Type
REMARK                         _______ _______ _______ _____ _____    ______ ____
ROOT
ATOM      1  O   UNL     1      -9.760  13.724  68.819  0.00  0.00    -0.247 OA
ATOM      2  C   UNL     1      -9.997  13.846  68.643  0.00  0.00    +0.353 C 
ENDROOT
BRANCH   2   3
ATOM      3  C   UNL     1     -11.291  13.168  68.444  0.00  0.00    +0.252 C 
ATOM      4  O   UNL     1     -12.302  13.976  68.991  0.00  0.00    -0.205 OA
BRANCH   3   5
ATOM      5  C   UNL     1     -11.209  11.885  69.169  0.00  0.00    +0.019 A 
ATOM      6  C   UNL     1     -10.314  10.890  68.888  0.00  0.00    -0.001 A 
ATOM      7  C   UNL     1     -10.232   9.783  69.704  0.00  0.00    -0.000 A 
ATOM      8  C   UNL     1     -11.299   9.534  70.542  0.00  0.00    -0.000 A 
ATOM      9  C   UNL     1     -12.223  10.520  70.868  0.00  0.00    -0.000 A 
ATOM     10  C   UNL     1     -12.202  11.636  70.084  0.00  0.00    -0.001 A 
ENDBRANCH   3   5
BRANCH   3  11
ATOM     11  C   UNL     1     -11.662  12.900  67.064  0.00  0.00    +0.019 A 
ATOM     12  C   UNL     1     -11.197  11.796  66.347  0.00  0.00    -0.001 A 
ATOM     13  C   UNL     1     -11.190  11.843  64.963  0.00  0.00    -0.000 A 
ATOM     14  C   UNL     1     -11.712  12.926  64.271  0.00  0.00    -0.000 A 
ATOM     15  C   UNL     1     -12.310  13.961  64.972  0.00  0.00    -0.000 A 
ATOM     16  C   UNL     1     -12.403  13.814  66.329  0.00  0.00    -0.001 A 
ENDBRANCH   3  11
ENDBRANCH   2   3
BRANCH   2  17
ATOM     17  O   UNL     1      -9.196  14.486  67.764  0.00  0.00    -0.450 OA
BRANCH  17  18
ATOM     18  C   UNL     1      -9.577  15.939  67.394  0.00  0.00    +0.180 C 
ATOM     19  C   UNL     1      -8.519  15.972  66.155  0.00  0.00    +0.099 C 
ATOM     20  C   UNL     1      -7.857  17.476  66.116  0.00  0.00    +0.062 C 
ATOM     21  N   UNL     1      -8.936  18.231  66.906  0.00  0.00    +0.289 N 
ATOM     22  C   UNL     1      -8.646  18.098  68.403  0.00  0.00    +0.062 C 
ATOM     23  C   UNL     1      -7.033  18.337  68.151  0.00  0.00    +0.061 C 
ATOM     24  C   UNL     1      -8.452  19.607  66.696  0.00  0.00    +0.108 C 
ATOM     25  C   UNL     1      -9.586  20.450  67.252  0.00  0.00    +0.067 C 
ATOM     26  C   UNL     1     -10.762  19.506  67.108  0.00  0.00    +0.067 C 
ATOM     27  C   UNL     1     -10.178  18.261  66.462  0.00  0.00    +0.108 C 
ATOM     28  C   UNL     1      -6.809  17.155  67.345  0.00  0.00    +0.061 C 
ATOM     29  C   UNL     1      -8.502  16.466  68.508  0.00  0.00    +0.099 C 
ENDBRANCH  17  18
ENDBRANCH   2  17
TORSDOF 5
ENDMDL
MODEL 9
REMARK VINA RESULT:      -6.7      1.253      2.551
REMARK  Name = 
REMARK  5 active torsions:
REMARK  status: ('A' for Active; 'I' for Inactive)
REMARK    1  A    between atoms: C_2  and  O_3
REMARK    2  A    between atoms: C_2  and  C_16
REMARK    3  A    between atoms: O_3  and  C_4
REMARK    4  A    between atoms: C_16  and  C_18
REMARK    5  A    between atoms: C_16  and  C_24
REMARK                            x       y       z     vdW  Elec       q    Type
REMARK                         _______ _______ _______ _____ _____    ______ ____
ROOT
ATOM      1  O   UNL     1      -9.182  13.750  68.622  0.00  0.00    -0.247 OA
ATOM      2  C   UNL     1      -9.457  13.854  68.497  0.00  0.00    +0.353 C 
ENDROOT
BRANCH   2   3
ATOM      3  C   UNL     1     -10.722  13.100  68.575  0.00  0.00    +0.252 C 
ATOM      4  O   UNL     1     -10.441  11.816  69.073  0.00  0.00    -0.205 OA
BRANCH   3   5
ATOM      5  C   UNL     1     -11.244  13.013  67.197  0.00  0.00    +0.019 A 
ATOM      6  C   UNL     1     -10.791  12.137  66.249  0.00  0.00    -0.001 A 
ATOM      7  C   UNL     1     -11.428  12.046  65.032  0.00  0.00    -0.000 A 
ATOM      8  C   UNL     1     -12.250  13.092  64.667  0.00  0.00    -0.000 A 
ATOM      9  C   UNL     1     -12.746  13.995  65.599  0.00  0.00    -0.000 A 
ATOM     10  C   UNL     1     -12.140  13.982  66.821  0.00  0.00    -0.001 A 
ENDBRANCH   3   5
BRANCH   3  11
ATOM     11  C   UNL     1     -11.751  13.670  69.428  0.00  0.00    +0.019 A 
ATOM     12  C   UNL     1     -11.997  15.041  69.519  0.00  0.00    -0.001 A 
ATOM     13  C   UNL     1     -12.624  15.542  70.648  0.00  0.00    -0.000 A 
ATOM     14  C   UNL     1     -13.089  14.706  71.651  0.00  0.00    -0.000 A 
ATOM     15  C   UNL     1     -12.980  13.333  71.502  0.00  0.00    -0.000 A 
ATOM     16  C   UNL     1     -12.466  12.880  70.316  0.00  0.00    -0.001 A 
ENDBRANCH   3  11
ENDBRANCH   2   3
BRANCH   2  17
ATOM     17  O   UNL     1      -8.891  14.515  67.463  0.00  0.00    -0.450 OA
BRANCH  17  18
ATOM     18  C   UNL     1      -9.363  15.966  67.214  0.00  0.00    +0.180 C 
ATOM     19  C   UNL     1      -8.247  16.200  66.050  0.00  0.00    +0.099 C 
ATOM     20  C   UNL     1      -7.701  17.743  66.196  0.00  0.00    +0.062 C 
ATOM     21  N   UNL     1      -8.875  18.336  66.990  0.00  0.00    +0.289 N 
ATOM     22  C   UNL     1      -8.654  18.073  68.482  0.00  0.00    +0.062 C 
ATOM     23  C   UNL     1      -7.054  18.451  68.351  0.00  0.00    +0.061 C 
ATOM     24  C   UNL     1      -8.488  19.758  66.943  0.00  0.00    +0.108 C 
ATOM     25  C   UNL     1      -9.711  20.457  67.510  0.00  0.00    +0.067 C 
ATOM     26  C   UNL     1     -10.802  19.450  67.205  0.00  0.00    +0.067 C 
ATOM     27  C   UNL     1     -10.091  18.322  66.478  0.00  0.00    +0.108 C 
ATOM     28  C   UNL     1      -6.698  17.375  67.448  0.00  0.00    +0.061 C 
ATOM     29  C   UNL     1      -8.392  16.453  68.436  0.00  0.00    +0.099 C 
ENDBRANCH  17  18
ENDBRANCH   2  17
TORSDOF 5
ENDMDL
