MODEL 1
REMARK VINA RESULT:      -4.8      0.000      0.000
REMARK  Name = 
REMARK  5 active torsions:
REMARK  status: ('A' for Active; 'I' for Inactive)
REMARK    1  A    between atoms: C_2  and  C_3
REMARK    2  A    between atoms: C_3  and  N_4
REMARK    3  A    between atoms: N_4  and  C_6
REMARK    4  A    between atoms: C_6  and  C_8
REMARK    5  A    between atoms: C_8  and  C_9
REMARK                            x       y       z     vdW  Elec       q    Type
REMARK                         _______ _______ _______ _____ _____    ______ ____
ROOT
ATOM      1  C   UNL     1     -10.632  15.292  68.796  0.00  0.00    +0.063 C 
ATOM      2  C   UNL     1      -9.032  15.694  69.074  0.00  0.00    +0.018 C 
ENDROOT
BRANCH   1   3
ATOM      3  N   UNL     1     -10.788  16.453  67.704  0.00  0.00    -0.261 NA
ATOM      4  C   UNL     1     -10.081  16.021  66.553  0.00  0.00    +0.090 C 
BRANCH   3   5
ATOM      5  C   UNL     1     -10.284  17.636  68.341  0.00  0.00    +0.151 C 
BRANCH   5   7
ATOM      6  C   UNL     1     -10.503  19.721  66.683  0.00  0.00    -0.013 C 
ATOM      7  C   UNL     1     -10.479  18.765  67.413  0.00  0.00    -0.060 C 
ENDBRANCH   5   7
ENDBRANCH   3   5
ENDBRANCH   1   3
BRANCH   1   8
ATOM      8  C   UNL     1     -11.147  16.291  70.035  0.00  0.00    +0.042 C 
BRANCH   8   9
ATOM      9  C   UNL     1     -11.703  15.368  71.046  0.00  0.00    -0.021 A 
ATOM     10  C   UNL     1     -12.137  14.112  70.696  0.00  0.00    -0.004 A 
ATOM     11  C   UNL     1     -13.002  13.439  71.546  0.00  0.00    -0.000 A 
ATOM     12  C   UNL     1     -13.582  14.087  72.606  0.00  0.00    -0.000 A 
ATOM     13  C   UNL     1     -13.050  15.277  73.020  0.00  0.00    -0.000 A 
ATOM     14  C   UNL     1     -12.062  15.881  72.277  0.00  0.00    -0.004 A 
ENDBRANCH   8   9
ENDBRANCH   1   8
TORSDOF 5
ENDMDL
MODEL 2
REMARK VINA RESULT:      -4.7      2.358      3.542
REMARK  Name = 
REMARK  5 active torsions:
REMARK  status: ('A' for Active; 'I' for Inactive)
REMARK    1  A    between atoms: C_2  and  C_3
REMARK    2  A    between atoms: C_3  and  N_4
REMARK    3  A    between atoms: N_4  and  C_6
REMARK    4  A    between atoms: C_6  and  C_8
REMARK    5  A    between atoms: C_8  and  C_9
REMARK                            x       y       z     vdW  Elec       q    Type
REMARK                         _______ _______ _______ _____ _____    ______ ____
ROOT
ATOM      1  C   UNL     1     -11.088  14.100  69.407  0.00  0.00    +0.063 C 
ATOM      2  C   UNL     1     -10.081  14.840  68.295  0.00  0.00    +0.018 C 
ENDROOT
BRANCH   1   3
ATOM      3  N   UNL     1     -11.892  13.340  68.249  0.00  0.00    -0.261 NA
ATOM      4  C   UNL     1     -11.766  11.953  68.516  0.00  0.00    +0.090 C 
BRANCH   3   5
ATOM      5  C   UNL     1     -11.306  13.798  67.022  0.00  0.00    +0.151 C 
BRANCH   5   7
ATOM      6  C   UNL     1     -12.546  12.713  64.920  0.00  0.00    -0.013 C 
ATOM      7  C   UNL     1     -12.051  13.184  65.909  0.00  0.00    -0.060 C 
ENDBRANCH   5   7
ENDBRANCH   3   5
ENDBRANCH   1   3
BRANCH   1   8
ATOM      8  C   UNL     1     -12.143  15.397  69.386  0.00  0.00    +0.042 C 
BRANCH   8   9
ATOM      9  C   UNL     1     -12.596  15.528  70.785  0.00  0.00    -0.021 A 
ATOM     10  C   UNL     1     -11.867  16.248  71.702  0.00  0.00    -0.004 A 
ATOM     11  C   UNL     1     -12.081  16.026  73.054  0.00  0.00    -0.000 A 
ATOM     12  C   UNL     1     -12.844  14.968  73.475  0.00  0.00    -0.000 A 
ATOM     13  C   UNL     1     -13.663  14.348  72.571  0.00  0.00    -0.000 A 
ATOM     14  C   UNL     1     -13.587  14.679  71.238  0.00  0.00    -0.004 A 
ENDBRANCH   8   9
ENDBRANCH   1   8
TORSDOF 5
ENDMDL
MODEL 3
REMARK VINA RESULT:      -4.7      1.975      3.134
REMARK  Name = 
REMARK  5 active torsions:
REMARK  status: ('A' for Active; 'I' for Inactive)
REMARK    1  A    between atoms: C_2  and  C_3
REMARK    2  A    between atoms: C_3  and  N_4
REMARK    3  A    between atoms: N_4  and  C_6
REMARK    4  A    between atoms: C_6  and  C_8
REMARK    5  A    between atoms: C_8  and  C_9
REMARK                            x       y       z     vdW  Elec       q    Type
REMARK                         _______ _______ _______ _____ _____    ______ ____
ROOT
ATOM      1  C   UNL     1     -10.518  14.775  68.849  0.00  0.00    +0.063 C 
ATOM      2  C   UNL     1     -10.770  16.153  67.935  0.00  0.00    +0.018 C 
ENDROOT
BRANCH   1   3
ATOM      3  N   UNL     1     -10.695  13.830  67.569  0.00  0.00    -0.261 NA
ATOM      4  C   UNL     1      -9.555  14.041  66.752  0.00  0.00    +0.090 C 
BRANCH   3   5
ATOM      5  C   UNL     1     -11.955  14.207  66.996  0.00  0.00    +0.151 C 
BRANCH   5   7
ATOM      6  C   UNL     1     -12.480  12.635  64.900  0.00  0.00    -0.013 C 
ATOM      7  C   UNL     1     -12.179  13.367  65.806  0.00  0.00    -0.060 C 
ENDBRANCH   5   7
ENDBRANCH   3   5
ENDBRANCH   1   3
BRANCH   1   8
ATOM      8  C   UNL     1     -12.142  14.676  69.235  0.00  0.00    +0.042 C 
BRANCH   8   9
ATOM      9  C   UNL     1     -12.172  14.684  70.712  0.00  0.00    -0.021 A 
ATOM     10  C   UNL     1     -12.966  13.805  71.410  0.00  0.00    -0.004 A 
ATOM     11  C   UNL     1     -13.283  14.089  72.729  0.00  0.00    -0.000 A 
ATOM     12  C   UNL     1     -12.995  15.315  73.268  0.00  0.00    -0.000 A 
ATOM     13  C   UNL     1     -12.099  16.122  72.621  0.00  0.00    -0.000 A 
ATOM     14  C   UNL     1     -11.635  15.770  71.375  0.00  0.00    -0.004 A 
ENDBRANCH   8   9
ENDBRANCH   1   8
TORSDOF 5
ENDMDL
MODEL 4
REMARK VINA RESULT:      -4.6      2.912      4.491
REMARK  Name = 
REMARK  5 active torsions:
REMARK  status: ('A' for Active; 'I' for Inactive)
REMARK    1  A    between atoms: C_2  and  C_3
REMARK    2  A    between atoms: C_3  and  N_4
REMARK    3  A    between atoms: N_4  and  C_6
REMARK    4  A    between atoms: C_6  and  C_8
REMARK    5  A    between atoms: C_8  and  C_9
REMARK                            x       y       z     vdW  Elec       q    Type
REMARK                         _______ _______ _______ _____ _____    ______ ____
ROOT
ATOM      1  C   UNL     1     -10.375  13.815  66.197  0.00  0.00    +0.063 C 
ATOM      2  C   UNL     1      -9.041  14.746  66.586  0.00  0.00    +0.018 C 
ENDROOT
BRANCH   1   3
ATOM      3  N   UNL     1     -10.755  14.777  64.974  0.00  0.00    -0.261 NA
ATOM      4  C   UNL     1     -10.551  16.105  65.429  0.00  0.00    +0.090 C 
BRANCH   3   5
ATOM      5  C   UNL     1     -12.105  14.433  64.631  0.00  0.00    +0.151 C 
BRANCH   5   7
ATOM      6  C   UNL     1     -12.198  12.014  63.500  0.00  0.00    -0.013 C 
ATOM      7  C   UNL     1     -12.091  13.079  64.046  0.00  0.00    -0.060 C 
ENDBRANCH   5   7
ENDBRANCH   3   5
ENDBRANCH   1   3
BRANCH   1   8
ATOM      8  C   UNL     1     -11.342  14.668  67.262  0.00  0.00    +0.042 C 
BRANCH   8   9
ATOM      9  C   UNL     1     -11.851  13.647  68.199  0.00  0.00    -0.021 A 
ATOM     10  C   UNL     1     -12.094  13.953  69.517  0.00  0.00    -0.004 A 
ATOM     11  C   UNL     1     -12.175  12.922  70.442  0.00  0.00    -0.000 A 
ATOM     12  C   UNL     1     -11.812  11.647  70.098  0.00  0.00    -0.000 A 
ATOM     13  C   UNL     1     -11.702  11.330  68.772  0.00  0.00    -0.000 A 
ATOM     14  C   UNL     1     -11.792  12.320  67.820  0.00  0.00    -0.004 A 
ENDBRANCH   8   9
ENDBRANCH   1   8
TORSDOF 5
ENDMDL
MODEL 5
REMARK VINA RESULT:      -4.6      1.602      5.453
REMARK  Name = 
REMARK  5 active torsions:
REMARK  status: ('A' for Active; 'I' for Inactive)
REMARK    1  A    between atoms: C_2  and  C_3
REMARK    2  A    between atoms: C_3  and  N_4
REMARK    3  A    between atoms: N_4  and  C_6
REMARK    4  A    between atoms: C_6  and  C_8
REMARK    5  A    between atoms: C_8  and  C_9
REMARK                            x       y       z     vdW  Elec       q    Type
REMARK                         _______ _______ _______ _____ _____    ______ ____
ROOT
ATOM      1  C   UNL     1     -10.062  15.593  69.349  0.00  0.00    +0.063 C 
ATOM      2  C   UNL     1      -9.413  14.312  68.491  0.00  0.00    +0.018 C 
ENDROOT
BRANCH   1   3
ATOM      3  N   UNL     1     -11.293  14.700  69.852  0.00  0.00    -0.261 NA
ATOM      4  C   UNL     1     -11.618  13.824  68.785  0.00  0.00    +0.090 C 
BRANCH   3   5
ATOM      5  C   UNL     1     -12.312  15.640  70.223  0.00  0.00    +0.151 C 
BRANCH   5   7
ATOM      6  C   UNL     1     -12.100  16.080  72.850  0.00  0.00    -0.013 C 
ATOM      7  C   UNL     1     -12.146  15.942  71.656  0.00  0.00    -0.060 C 
ENDBRANCH   5   7
ENDBRANCH   3   5
ENDBRANCH   1   3
BRANCH   1   8
ATOM      8  C   UNL     1     -10.906  16.127  68.008  0.00  0.00    +0.042 C 
BRANCH   8   9
ATOM      9  C   UNL     1     -10.293  17.430  67.681  0.00  0.00    -0.021 A 
ATOM     10  C   UNL     1      -9.938  18.315  68.672  0.00  0.00    -0.004 A 
ATOM     11  C   UNL     1      -9.753  19.650  68.346  0.00  0.00    -0.000 A 
ATOM     12  C   UNL     1     -10.118  20.124  67.113  0.00  0.00    -0.000 A 
ATOM     13  C   UNL     1     -10.339  19.227  66.104  0.00  0.00    -0.000 A 
ATOM     14  C   UNL     1     -10.357  17.879  66.376  0.00  0.00    -0.004 A 
ENDBRANCH   8   9
ENDBRANCH   1   8
TORSDOF 5
ENDMDL
MODEL 6
REMARK VINA RESULT:      -4.5      2.675      5.591
REMARK  Name = 
REMARK  5 active torsions:
REMARK  status: ('A' for Active; 'I' for Inactive)
REMARK    1  A    between atoms: C_2  and  C_3
REMARK    2  A    between atoms: C_3  and  N_4
REMARK    3  A    between atoms: N_4  and  C_6
REMARK    4  A    between atoms: C_6  and  C_8
REMARK    5  A    between atoms: C_8  and  C_9
REMARK                            x       y       z     vdW  Elec       q    Type
REMARK                         _______ _______ _______ _____ _____    ______ ____
ROOT
ATOM      1  C   UNL     1     -11.700  15.017  69.442  0.00  0.00    +0.063 C 
ATOM      2  C   UNL     1     -10.050  15.293  69.493  0.00  0.00    +0.018 C 
ENDROOT
BRANCH   1   3
ATOM      3  N   UNL     1     -11.753  14.733  71.017  0.00  0.00    -0.261 NA
ATOM      4  C   UNL     1     -12.667  13.665  71.203  0.00  0.00    +0.090 C 
BRANCH   3   5
ATOM      5  C   UNL     1     -12.124  15.985  71.612  0.00  0.00    +0.151 C 
BRANCH   5   7
ATOM      6  C   UNL     1     -12.481  15.571  74.227  0.00  0.00    -0.013 C 
ATOM      7  C   UNL     1     -12.397  15.743  73.040  0.00  0.00    -0.060 C 
ENDBRANCH   5   7
ENDBRANCH   3   5
ENDBRANCH   1   3
BRANCH   1   8
ATOM      8  C   UNL     1     -11.466  13.400  69.087  0.00  0.00    +0.042 C 
BRANCH   8   9
ATOM      9  C   UNL     1     -11.478  13.341  67.611  0.00  0.00    -0.021 A 
ATOM     10  C   UNL     1     -12.221  14.231  66.872  0.00  0.00    -0.004 A 
ATOM     11  C   UNL     1     -12.535  13.915  65.558  0.00  0.00    -0.000 A 
ATOM     12  C   UNL     1     -12.297  12.659  65.067  0.00  0.00    -0.000 A 
ATOM     13  C   UNL     1     -11.448  11.835  65.754  0.00  0.00    -0.000 A 
ATOM     14  C   UNL     1     -10.984  12.208  66.994  0.00  0.00    -0.004 A 
ENDBRANCH   8   9
ENDBRANCH   1   8
TORSDOF 5
ENDMDL
MODEL 7
REMARK VINA RESULT:      -4.5      3.387      5.959
REMARK  Name = 
REMARK  5 active torsions:
REMARK  status: ('A' for Active; 'I' for Inactive)
REMARK    1  A    between atoms: C_2  and  C_3
REMARK    2  A    between atoms: C_3  and  N_4
REMARK    3  A    between atoms: N_4  and  C_6
REMARK    4  A    between atoms: C_6  and  C_8
REMARK    5  A    between atoms: C_8  and  C_9
REMARK                            x       y       z     vdW  Elec       q    Type
REMARK                         _______ _______ _______ _____ _____    ______ ____
ROOT
ATOM      1  C   UNL     1     -10.913  14.493  67.119  0.00  0.00    +0.063 C 
ATOM      2  C   UNL     1      -9.708  14.075  68.201  0.00  0.00    +0.018 C 
ENDROOT
BRANCH   1   3
ATOM      3  N   UNL     1     -11.728  15.279  68.250  0.00  0.00    -0.261 NA
ATOM      4  C   UNL     1     -11.026  16.488  68.487  0.00  0.00    +0.090 C 
BRANCH   3   5
ATOM      5  C   UNL     1     -11.803  14.371  69.358  0.00  0.00    +0.151 C 
BRANCH   5   7
ATOM      6  C   UNL     1     -13.217  15.455  71.349  0.00  0.00    -0.013 C 
ATOM      7  C   UNL     1     -12.551  15.038  70.439  0.00  0.00    -0.060 C 
ENDBRANCH   5   7
ENDBRANCH   3   5
ENDBRANCH   1   3
BRANCH   1   8
ATOM      8  C   UNL     1     -11.738  13.069  67.414  0.00  0.00    +0.042 C 
BRANCH   8   9
ATOM      9  C   UNL     1     -11.718  12.356  66.121  0.00  0.00    -0.021 A 
ATOM     10  C   UNL     1     -10.759  11.409  65.848  0.00  0.00    -0.004 A 
ATOM     11  C   UNL     1     -10.516  11.060  64.528  0.00  0.00    -0.000 A 
ATOM     12  C   UNL     1     -11.061  11.788  63.503  0.00  0.00    -0.000 A 
ATOM     13  C   UNL     1     -12.104  12.629  63.777  0.00  0.00    -0.000 A 
ATOM     14  C   UNL     1     -12.477  12.857  65.081  0.00  0.00    -0.004 A 
ENDBRANCH   8   9
ENDBRANCH   1   8
TORSDOF 5
ENDMDL
MODEL 8
REMARK VINA RESULT:      -4.5      3.525      5.757
REMARK  Name = 
REMARK  5 active torsions:
REMARK  status: ('A' for Active; 'I' for Inactive)
REMARK    1  A    between atoms: C_2  and  C_3
REMARK    2  A    between atoms: C_3  and  N_4
REMARK    3  A    between atoms: N_4  and  C_6
REMARK    4  A    between atoms: C_6  and  C_8
REMARK    5  A    between atoms: C_8  and  C_9
REMARK                            x       y       z     vdW  Elec       q    Type
REMARK                         _______ _______ _______ _____ _____    ______ ____
ROOT
ATOM      1  C   UNL     1     -10.420  15.245  67.185  0.00  0.00    +0.063 C 
ATOM      2  C   UNL     1      -9.070  14.436  66.617  0.00  0.00    +0.018 C 
ENDROOT
BRANCH   1   3
ATOM      3  N   UNL     1     -11.400  14.328  66.311  0.00  0.00    -0.261 NA
ATOM      4  C   UNL     1     -11.737  13.213  67.120  0.00  0.00    +0.090 C 
BRANCH   3   5
ATOM      5  C   UNL     1     -10.668  14.033  65.112  0.00  0.00    +0.151 C 
BRANCH   5   7
ATOM      6  C   UNL     1     -12.188  12.583  63.461  0.00  0.00    -0.013 C 
ATOM      7  C   UNL     1     -11.563  13.287  64.208  0.00  0.00    -0.060 C 
ENDBRANCH   5   7
ENDBRANCH   3   5
ENDBRANCH   1   3
BRANCH   1   8
ATOM      8  C   UNL     1     -10.300  16.393  65.975  0.00  0.00    +0.042 C 
BRANCH   8   9
ATOM      9  C   UNL     1     -10.432  17.685  66.677  0.00  0.00    -0.021 A 
ATOM     10  C   UNL     1     -10.478  18.869  65.980  0.00  0.00    -0.004 A 
ATOM     11  C   UNL     1     -10.197  20.052  66.648  0.00  0.00    -0.000 A 
ATOM     12  C   UNL     1      -9.680  20.032  67.916  0.00  0.00    -0.000 A 
ATOM     13  C   UNL     1      -9.763  18.875  68.641  0.00  0.00    -0.000 A 
ATOM     14  C   UNL     1     -10.206  17.719  68.039  0.00  0.00    -0.004 A 
ENDBRANCH   8   9
ENDBRANCH   1   8
TORSDOF 5
ENDMDL
MODEL 9
REMARK VINA RESULT:      -4.5      3.337      5.401
REMARK  Name = 
REMARK  5 active torsions:
REMARK  status: ('A' for Active; 'I' for Inactive)
REMARK    1  A    between atoms: C_2  and  C_3
REMARK    2  A    between atoms: C_3  and  N_4
REMARK    3  A    between atoms: N_4  and  C_6
REMARK    4  A    between atoms: C_6  and  C_8
REMARK    5  A    between atoms: C_8  and  C_9
REMARK                            x       y       z     vdW  Elec       q    Type
REMARK                         _______ _______ _______ _____ _____    ______ ____
ROOT
ATOM      1  C   UNL     1     -10.824  14.356  67.388  0.00  0.00    +0.063 C 
ATOM      2  C   UNL     1     -11.685  14.865  68.729  0.00  0.00    +0.018 C 
ENDROOT
BRANCH   1   3
ATOM      3  N   UNL     1     -10.757  15.845  66.802  0.00  0.00    -0.261 NA
ATOM      4  C   UNL     1      -9.750  15.841  65.804  0.00  0.00    +0.090 C 
BRANCH   3   5
ATOM      5  C   UNL     1     -10.508  16.685  67.939  0.00  0.00    +0.151 C 
BRANCH   5   7
ATOM      6  C   UNL     1     -10.521  19.261  67.231  0.00  0.00    -0.013 C 
ATOM      7  C   UNL     1     -10.554  18.086  67.483  0.00  0.00    -0.060 C 
ENDBRANCH   5   7
ENDBRANCH   3   5
ENDBRANCH   1   3
BRANCH   1   8
ATOM      8  C   UNL     1     -12.232  14.015  66.554  0.00  0.00    +0.042 C 
BRANCH   8   9
ATOM      9  C   UNL     1     -11.926  12.781  65.802  0.00  0.00    -0.021 A 
ATOM     10  C   UNL     1     -10.989  11.886  66.261  0.00  0.00    -0.004 A 
ATOM     11  C   UNL     1     -10.438  10.976  65.371  0.00  0.00    -0.000 A 
ATOM     12  C   UNL     1     -10.657  11.097  64.024  0.00  0.00    -0.000 A 
ATOM     13  C   UNL     1     -11.682  11.895  63.594  0.00  0.00    -0.000 A 
ATOM     14  C   UNL     1     -12.361  12.683  64.495  0.00  0.00    -0.004 A 
ENDBRANCH   8   9
ENDBRANCH   1   8
TORSDOF 5
ENDMDL
