MODEL 1
REMARK VINA RESULT:      -6.1      0.000      0.000
REMARK  Name = 
REMARK  5 active torsions:
REMARK  status: ('A' for Active; 'I' for Inactive)
REMARK    1  A    between atoms: C_2  and  O_3
REMARK    2  A    between atoms: C_2  and  C_13
REMARK    3  A    between atoms: O_3  and  O_4
REMARK    4  A    between atoms: O_4  and  C_5
REMARK    5  A    between atoms: C_5  and  C_7
REMARK                            x       y       z     vdW  Elec       q    Type
REMARK                         _______ _______ _______ _____ _____    ______ ____
ROOT
ATOM      1  O   UNL     1     -12.593  14.835  64.064  0.00  0.00    -0.241 OA
ENDROOT
BRANCH   1   3
ATOM      2  O   UNL     1     -11.320  16.699  64.208  0.00  0.00    -0.241 OA
ATOM      3  C   UNL     1     -11.457  15.487  64.554  0.00  0.00    +0.388 C 
BRANCH   3   4
ATOM      4  C   UNL     1     -10.815  15.108  65.810  0.00  0.00    +0.080 A 
ATOM      5  C   UNL     1      -9.461  15.358  65.923  0.00  0.00    +0.007 A 
ATOM      6  C   UNL     1      -8.747  14.607  66.846  0.00  0.00    +0.000 A 
ATOM      7  C   UNL     1      -9.448  13.825  67.752  0.00  0.00    +0.000 A 
ATOM      8  C   UNL     1     -10.778  14.110  67.934  0.00  0.00    +0.000 A 
ATOM      9  C   UNL     1     -11.503  14.741  66.938  0.00  0.00    +0.007 A 
ENDBRANCH   3   4
ENDBRANCH   1   3
BRANCH   1  10
ATOM     10  O   UNL     1     -12.364  13.770  63.240  0.00  0.00    -0.241 OA
BRANCH  10  11
ATOM     11  C   UNL     1     -12.387  12.457  63.721  0.00  0.00    +0.388 C 
ATOM     12  O   UNL     1     -13.485  12.099  64.243  0.00  0.00    -0.241 OA
BRANCH  11  13
ATOM     13  C   UNL     1     -11.153  11.747  64.070  0.00  0.00    +0.080 A 
ATOM     14  C   UNL     1     -10.917  11.407  65.394  0.00  0.00    +0.007 A 
ATOM     15  C   UNL     1      -9.740  10.726  65.677  0.00  0.00    +0.000 A 
ATOM     16  C   UNL     1      -9.021  10.192  64.618  0.00  0.00    +0.000 A 
ATOM     17  C   UNL     1      -9.109  10.767  63.357  0.00  0.00    +0.000 A 
ATOM     18  C   UNL     1     -10.101  11.701  63.163  0.00  0.00    +0.007 A 
ENDBRANCH  11  13
ENDBRANCH  10  11
ENDBRANCH   1  10
TORSDOF 5
ENDMDL
MODEL 2
REMARK VINA RESULT:      -5.9      2.064      4.660
REMARK  Name = 
REMARK  5 active torsions:
REMARK  status: ('A' for Active; 'I' for Inactive)
REMARK    1  A    between atoms: C_2  and  O_3
REMARK    2  A    between atoms: C_2  and  C_13
REMARK    3  A    between atoms: O_3  and  O_4
REMARK    4  A    between atoms: O_4  and  C_5
REMARK    5  A    between atoms: C_5  and  C_7
REMARK                            x       y       z     vdW  Elec       q    Type
REMARK                         _______ _______ _______ _____ _____    ______ ____
ROOT
ATOM      1  O   UNL     1     -10.127  16.721  65.544  0.00  0.00    -0.241 OA
ENDROOT
BRANCH   1   3
ATOM      2  O   UNL     1     -11.637  16.652  63.861  0.00  0.00    -0.241 OA
ATOM      3  C   UNL     1     -11.175  16.068  64.889  0.00  0.00    +0.388 C 
BRANCH   3   4
ATOM      4  C   UNL     1     -11.342  14.617  64.923  0.00  0.00    +0.080 A 
ATOM      5  C   UNL     1     -10.202  13.851  64.769  0.00  0.00    +0.007 A 
ATOM      6  C   UNL     1     -10.364  12.548  64.320  0.00  0.00    +0.000 A 
ATOM      7  C   UNL     1     -11.644  12.015  64.272  0.00  0.00    +0.000 A 
ATOM      8  C   UNL     1     -12.620  12.651  65.000  0.00  0.00    +0.000 A 
ATOM      9  C   UNL     1     -12.496  13.992  65.319  0.00  0.00    +0.007 A 
ENDBRANCH   3   4
ENDBRANCH   1   3
BRANCH   1  10
ATOM     10  O   UNL     1     -10.483  17.532  66.583  0.00  0.00    -0.241 OA
BRANCH  10  11
ATOM     11  C   UNL     1     -10.433  17.086  67.908  0.00  0.00    +0.388 C 
ATOM     12  O   UNL     1      -9.814  17.851  68.706  0.00  0.00    -0.241 OA
BRANCH  11  13
ATOM     13  C   UNL     1     -10.601  15.669  68.246  0.00  0.00    +0.080 A 
ATOM     14  C   UNL     1     -11.807  15.236  68.778  0.00  0.00    +0.007 A 
ATOM     15  C   UNL     1     -11.924  13.884  69.073  0.00  0.00    +0.000 A 
ATOM     16  C   UNL     1     -10.962  13.018  68.576  0.00  0.00    +0.000 A 
ATOM     17  C   UNL     1      -9.678  13.481  68.315  0.00  0.00    +0.000 A 
ATOM     18  C   UNL     1      -9.487  14.843  68.337  0.00  0.00    +0.007 A 
ENDBRANCH  11  13
ENDBRANCH  10  11
ENDBRANCH   1  10
TORSDOF 5
ENDMDL
MODEL 3
REMARK VINA RESULT:      -5.9      4.670      5.992
REMARK  Name = 
REMARK  5 active torsions:
REMARK  status: ('A' for Active; 'I' for Inactive)
REMARK    1  A    between atoms: C_2  and  O_3
REMARK    2  A    between atoms: C_2  and  C_13
REMARK    3  A    between atoms: O_3  and  O_4
REMARK    4  A    between atoms: O_4  and  C_5
REMARK    5  A    between atoms: C_5  and  C_7
REMARK                            x       y       z     vdW  Elec       q    Type
REMARK                         _______ _______ _______ _____ _____    ______ ____
ROOT
ATOM      1  O   UNL     1     -11.888  14.350  68.478  0.00  0.00    -0.241 OA
ENDROOT
BRANCH   1   3
ATOM      2  O   UNL     1     -11.730  16.585  68.790  0.00  0.00    -0.241 OA
ATOM      3  C   UNL     1     -11.825  15.447  69.343  0.00  0.00    +0.388 C 
BRANCH   3   4
ATOM      4  C   UNL     1     -12.429  15.435  70.673  0.00  0.00    +0.080 A 
ATOM      5  C   UNL     1     -11.683  15.968  71.706  0.00  0.00    +0.007 A 
ATOM      6  C   UNL     1     -11.987  15.552  72.994  0.00  0.00    +0.000 A 
ATOM      7  C   UNL     1     -13.147  14.820  73.200  0.00  0.00    +0.000 A 
ATOM      8  C   UNL     1     -14.102  14.859  72.214  0.00  0.00    +0.000 A 
ATOM      9  C   UNL     1     -13.749  15.144  70.907  0.00  0.00    +0.007 A 
ENDBRANCH   3   4
ENDBRANCH   1   3
BRANCH   1  10
ATOM     10  O   UNL     1     -11.081  13.293  68.792  0.00  0.00    -0.241 OA
BRANCH  10  11
ATOM     11  C   UNL     1     -11.524  11.973  68.657  0.00  0.00    +0.388 C 
ATOM     12  O   UNL     1     -12.023  11.689  67.527  0.00  0.00    -0.241 OA
BRANCH  11  13
ATOM     13  C   UNL     1     -11.866  11.157  69.826  0.00  0.00    +0.080 A 
ATOM     14  C   UNL     1     -12.726  11.671  70.785  0.00  0.00    +0.007 A 
ATOM     15  C   UNL     1     -13.031  10.859  71.870  0.00  0.00    +0.000 A 
ATOM     16  C   UNL     1     -12.694   9.515  71.798  0.00  0.00    +0.000 A 
ATOM     17  C   UNL     1     -11.629   9.107  71.004  0.00  0.00    +0.000 A 
ATOM     18  C   UNL     1     -11.106  10.034  70.133  0.00  0.00    +0.007 A 
ENDBRANCH  11  13
ENDBRANCH  10  11
ENDBRANCH   1  10
TORSDOF 5
ENDMDL
MODEL 4
REMARK VINA RESULT:      -5.9      4.785      7.444
REMARK  Name = 
REMARK  5 active torsions:
REMARK  status: ('A' for Active; 'I' for Inactive)
REMARK    1  A    between atoms: C_2  and  O_3
REMARK    2  A    between atoms: C_2  and  C_13
REMARK    3  A    between atoms: O_3  and  O_4
REMARK    4  A    between atoms: O_4  and  C_5
REMARK    5  A    between atoms: C_5  and  C_7
REMARK                            x       y       z     vdW  Elec       q    Type
REMARK                         _______ _______ _______ _____ _____    ______ ____
ROOT
ATOM      1  O   UNL     1     -11.205  13.342  69.108  0.00  0.00    -0.241 OA
ENDROOT
BRANCH   1   3
ATOM      2  O   UNL     1     -11.971  11.628  67.845  0.00  0.00    -0.241 OA
ATOM      3  C   UNL     1     -11.902  12.134  69.006  0.00  0.00    +0.388 C 
BRANCH   3   4
ATOM      4  C   UNL     1     -12.006  11.191  70.117  0.00  0.00    +0.080 A 
ATOM      5  C   UNL     1     -11.038  10.209  70.199  0.00  0.00    +0.007 A 
ATOM      6  C   UNL     1     -11.356   9.056  70.903  0.00  0.00    +0.000 A 
ATOM      7  C   UNL     1     -12.513   9.041  71.667  0.00  0.00    +0.000 A 
ATOM      8  C   UNL     1     -13.076  10.253  71.982  0.00  0.00    +0.000 A 
ATOM      9  C   UNL     1     -12.852  11.360  71.183  0.00  0.00    +0.007 A 
ENDBRANCH   3   4
ENDBRANCH   1   3
BRANCH   1  10
ATOM     10  O   UNL     1     -11.778  14.418  68.493  0.00  0.00    -0.241 OA
BRANCH  10  11
ATOM     11  C   UNL     1     -12.055  15.596  69.195  0.00  0.00    +0.388 C 
ATOM     12  O   UNL     1     -11.496  16.636  68.735  0.00  0.00    -0.241 OA
BRANCH  11  13
ATOM     13  C   UNL     1     -12.498  15.569  70.592  0.00  0.00    +0.080 A 
ATOM     14  C   UNL     1     -11.589  15.860  71.599  0.00  0.00    +0.007 A 
ATOM     15  C   UNL     1     -12.055  15.833  72.907  0.00  0.00    +0.000 A 
ATOM     16  C   UNL     1     -13.427  15.794  73.113  0.00  0.00    +0.000 A 
ATOM     17  C   UNL     1     -14.259  15.235  72.152  0.00  0.00    +0.000 A 
ATOM     18  C   UNL     1     -13.702  14.959  70.925  0.00  0.00    +0.007 A 
ENDBRANCH  11  13
ENDBRANCH  10  11
ENDBRANCH   1  10
TORSDOF 5
ENDMDL
MODEL 5
REMARK VINA RESULT:      -5.9      0.953      4.037
REMARK  Name = 
REMARK  5 active torsions:
REMARK  status: ('A' for Active; 'I' for Inactive)
REMARK    1  A    between atoms: C_2  and  O_3
REMARK    2  A    between atoms: C_2  and  C_13
REMARK    3  A    between atoms: O_3  and  O_4
REMARK    4  A    between atoms: O_4  and  C_5
REMARK    5  A    between atoms: C_5  and  C_7
REMARK                            x       y       z     vdW  Elec       q    Type
REMARK                         _______ _______ _______ _____ _____    ______ ____
ROOT
ATOM      1  O   UNL     1     -13.005  13.958  64.705  0.00  0.00    -0.241 OA
ENDROOT
BRANCH   1   3
ATOM      2  O   UNL     1     -12.862  12.065  63.474  0.00  0.00    -0.241 OA
ATOM      3  C   UNL     1     -12.622  12.618  64.590  0.00  0.00    +0.388 C 
BRANCH   3   4
ATOM      4  C   UNL     1     -11.516  12.048  65.357  0.00  0.00    +0.080 A 
ATOM      5  C   UNL     1     -10.303  11.922  64.708  0.00  0.00    +0.007 A 
ATOM      6  C   UNL     1      -9.409  10.982  65.202  0.00  0.00    +0.000 A 
ATOM      7  C   UNL     1      -9.673  10.395  66.431  0.00  0.00    +0.000 A 
ATOM      8  C   UNL     1     -10.580  11.023  67.248  0.00  0.00    +0.000 A 
ATOM      9  C   UNL     1     -11.551  11.852  66.713  0.00  0.00    +0.007 A 
ENDBRANCH   3   4
ENDBRANCH   1   3
BRANCH   1  10
ATOM     10  O   UNL     1     -12.174  14.870  64.119  0.00  0.00    -0.241 OA
BRANCH  10  11
ATOM     11  C   UNL     1     -11.474  15.812  64.880  0.00  0.00    +0.388 C 
ATOM     12  O   UNL     1     -11.227  16.903  64.284  0.00  0.00    -0.241 OA
BRANCH  11  13
ATOM     13  C   UNL     1     -10.655  15.413  66.029  0.00  0.00    +0.080 A 
ATOM     14  C   UNL     1     -11.211  15.435  67.299  0.00  0.00    +0.007 A 
ATOM     15  C   UNL     1     -10.401  15.039  68.356  0.00  0.00    +0.000 A 
ATOM     16  C   UNL     1      -9.208  14.396  68.063  0.00  0.00    +0.000 A 
ATOM     17  C   UNL     1      -8.566  14.638  66.855  0.00  0.00    +0.000 A 
ATOM     18  C   UNL     1      -9.273  15.327  65.897  0.00  0.00    +0.007 A 
ENDBRANCH  11  13
ENDBRANCH  10  11
ENDBRANCH   1  10
TORSDOF 5
ENDMDL
MODEL 6
REMARK VINA RESULT:      -5.8      2.418      3.554
REMARK  Name = 
REMARK  5 active torsions:
REMARK  status: ('A' for Active; 'I' for Inactive)
REMARK    1  A    between atoms: C_2  and  O_3
REMARK    2  A    between atoms: C_2  and  C_13
REMARK    3  A    between atoms: O_3  and  O_4
REMARK    4  A    between atoms: O_4  and  C_5
REMARK    5  A    between atoms: C_5  and  C_7
REMARK                            x       y       z     vdW  Elec       q    Type
REMARK                         _______ _______ _______ _____ _____    ______ ____
ROOT
ATOM      1  O   UNL     1     -10.457  18.191  65.707  0.00  0.00    -0.241 OA
ENDROOT
BRANCH   1   3
ATOM      2  O   UNL     1     -11.124  19.385  67.509  0.00  0.00    -0.241 OA
ATOM      3  C   UNL     1     -10.354  18.476  67.072  0.00  0.00    +0.388 C 
BRANCH   3   4
ATOM      4  C   UNL     1      -9.926  17.481  68.052  0.00  0.00    +0.080 A 
ATOM      5  C   UNL     1      -8.594  17.494  68.418  0.00  0.00    +0.007 A 
ATOM      6  C   UNL     1      -8.062  16.322  68.937  0.00  0.00    +0.000 A 
ATOM      7  C   UNL     1      -8.927  15.291  69.272  0.00  0.00    +0.000 A 
ATOM      8  C   UNL     1     -10.255  15.605  69.422  0.00  0.00    +0.000 A 
ATOM      9  C   UNL     1     -10.792  16.708  68.780  0.00  0.00    +0.007 A 
ENDBRANCH   3   4
ENDBRANCH   1   3
BRANCH   1  10
ATOM     10  O   UNL     1     -10.027  16.954  65.319  0.00  0.00    -0.241 OA
BRANCH  10  11
ATOM     11  C   UNL     1     -10.877  16.060  64.660  0.00  0.00    +0.388 C 
ATOM     12  O   UNL     1     -11.756  16.602  63.925  0.00  0.00    -0.241 OA
BRANCH  11  13
ATOM     13  C   UNL     1     -11.087  14.697  65.156  0.00  0.00    +0.080 A 
ATOM     14  C   UNL     1     -10.156  14.135  66.017  0.00  0.00    +0.007 A 
ATOM     15  C   UNL     1     -10.402  12.845  66.469  0.00  0.00    +0.000 A 
ATOM     16  C   UNL     1     -11.665  12.309  66.266  0.00  0.00    +0.000 A 
ATOM     17  C   UNL     1     -12.443  12.745  65.202  0.00  0.00    +0.000 A 
ATOM     18  C   UNL     1     -12.017  13.870  64.534  0.00  0.00    +0.007 A 
ENDBRANCH  11  13
ENDBRANCH  10  11
ENDBRANCH   1  10
TORSDOF 5
ENDMDL
MODEL 7
REMARK VINA RESULT:      -5.8      3.603      6.787
REMARK  Name = 
REMARK  5 active torsions:
REMARK  status: ('A' for Active; 'I' for Inactive)
REMARK    1  A    between atoms: C_2  and  O_3
REMARK    2  A    between atoms: C_2  and  C_13
REMARK    3  A    between atoms: O_3  and  O_4
REMARK    4  A    between atoms: O_4  and  C_5
REMARK    5  A    between atoms: C_5  and  C_7
REMARK                            x       y       z     vdW  Elec       q    Type
REMARK                         _______ _______ _______ _____ _____    ______ ____
ROOT
ATOM      1  O   UNL     1     -12.105  13.959  67.561  0.00  0.00    -0.241 OA
ENDROOT
BRANCH   1   3
ATOM      2  O   UNL     1     -12.085  11.752  68.054  0.00  0.00    -0.241 OA
ATOM      3  C   UNL     1     -11.750  12.650  67.223  0.00  0.00    +0.388 C 
BRANCH   3   4
ATOM      4  C   UNL     1     -11.598  12.209  65.839  0.00  0.00    +0.080 A 
ATOM      5  C   UNL     1     -10.695  11.191  65.600  0.00  0.00    +0.007 A 
ATOM      6  C   UNL     1     -10.177  11.084  64.317  0.00  0.00    +0.000 A 
ATOM      7  C   UNL     1     -10.750  11.839  63.304  0.00  0.00    +0.000 A 
ATOM      8  C   UNL     1     -12.001  12.355  63.532  0.00  0.00    +0.000 A 
ATOM      9  C   UNL     1     -12.443  12.580  64.825  0.00  0.00    +0.007 A 
ENDBRANCH   3   4
ENDBRANCH   1   3
BRANCH   1  10
ATOM     10  O   UNL     1     -11.453  14.499  68.632  0.00  0.00    -0.241 OA
BRANCH  10  11
ATOM     11  C   UNL     1     -11.943  15.633  69.288  0.00  0.00    +0.388 C 
ATOM     12  O   UNL     1     -11.541  16.739  68.817  0.00  0.00    -0.241 OA
BRANCH  11  13
ATOM     13  C   UNL     1     -12.428  15.569  70.670  0.00  0.00    +0.080 A 
ATOM     14  C   UNL     1     -11.520  15.654  71.714  0.00  0.00    +0.007 A 
ATOM     15  C   UNL     1     -12.026  15.599  73.007  0.00  0.00    +0.000 A 
ATOM     16  C   UNL     1     -13.394  15.742  73.181  0.00  0.00    +0.000 A 
ATOM     17  C   UNL     1     -14.267  15.377  72.163  0.00  0.00    +0.000 A 
ATOM     18  C   UNL     1     -13.716  15.115  70.931  0.00  0.00    +0.007 A 
ENDBRANCH  11  13
ENDBRANCH  10  11
ENDBRANCH   1  10
TORSDOF 5
ENDMDL
MODEL 8
REMARK VINA RESULT:      -5.7      3.410      4.881
REMARK  Name = 
REMARK  5 active torsions:
REMARK  status: ('A' for Active; 'I' for Inactive)
REMARK    1  A    between atoms: C_2  and  O_3
REMARK    2  A    between atoms: C_2  and  C_13
REMARK    3  A    between atoms: O_3  and  O_4
REMARK    4  A    between atoms: O_4  and  C_5
REMARK    5  A    between atoms: C_5  and  C_7
REMARK                            x       y       z     vdW  Elec       q    Type
REMARK                         _______ _______ _______ _____ _____    ______ ____
ROOT
ATOM      1  O   UNL     1     -10.590  18.366  65.492  0.00  0.00    -0.241 OA
ENDROOT
BRANCH   1   3
ATOM      2  O   UNL     1     -11.099  19.189  67.537  0.00  0.00    -0.241 OA
ATOM      3  C   UNL     1     -10.241  19.138  66.604  0.00  0.00    +0.388 C 
BRANCH   3   4
ATOM      4  C   UNL     1      -8.853  19.355  67.006  0.00  0.00    +0.080 A 
ATOM      5  C   UNL     1      -8.485  18.905  68.259  0.00  0.00    +0.007 A 
ATOM      6  C   UNL     1      -7.378  19.498  68.850  0.00  0.00    +0.000 A 
ATOM      7  C   UNL     1      -6.576  20.326  68.080  0.00  0.00    +0.000 A 
ATOM      8  C   UNL     1      -6.695  20.229  66.715  0.00  0.00    +0.000 A 
ATOM      9  C   UNL     1      -7.866  19.761  66.145  0.00  0.00    +0.007 A 
ENDBRANCH   3   4
ENDBRANCH   1   3
BRANCH   1  10
ATOM     10  O   UNL     1     -10.272  17.039  65.560  0.00  0.00    -0.241 OA
BRANCH  10  11
ATOM     11  C   UNL     1     -10.983  16.081  64.831  0.00  0.00    +0.388 C 
ATOM     12  O   UNL     1     -11.645  16.538  63.851  0.00  0.00    -0.241 OA
BRANCH  11  13
ATOM     13  C   UNL     1     -11.358  14.792  65.420  0.00  0.00    +0.080 A 
ATOM     14  C   UNL     1     -11.909  13.810  64.611  0.00  0.00    +0.007 A 
ATOM     15  C   UNL     1     -12.240  12.601  65.210  0.00  0.00    +0.000 A 
ATOM     16  C   UNL     1     -11.758  12.349  66.486  0.00  0.00    +0.000 A 
ATOM     17  C   UNL     1     -11.477  13.404  67.345  0.00  0.00    +0.000 A 
ATOM     18  C   UNL     1     -11.463  14.667  66.801  0.00  0.00    +0.007 A 
ENDBRANCH  11  13
ENDBRANCH  10  11
ENDBRANCH   1  10
TORSDOF 5
ENDMDL
MODEL 9
REMARK VINA RESULT:      -5.7      2.611      5.443
REMARK  Name = 
REMARK  5 active torsions:
REMARK  status: ('A' for Active; 'I' for Inactive)
REMARK    1  A    between atoms: C_2  and  O_3
REMARK    2  A    between atoms: C_2  and  C_13
REMARK    3  A    between atoms: O_3  and  O_4
REMARK    4  A    between atoms: O_4  and  C_5
REMARK    5  A    between atoms: C_5  and  C_7
REMARK                            x       y       z     vdW  Elec       q    Type
REMARK                         _______ _______ _______ _____ _____    ______ ____
ROOT
ATOM      1  O   UNL     1     -10.932  14.193  64.815  0.00  0.00    -0.241 OA
ENDROOT
BRANCH   1   3
ATOM      2  O   UNL     1     -13.093  13.617  65.158  0.00  0.00    -0.241 OA
ATOM      3  C   UNL     1     -11.952  13.793  65.684  0.00  0.00    +0.388 C 
BRANCH   3   4
ATOM      4  C   UNL     1     -11.691  13.034  66.904  0.00  0.00    +0.080 A 
ATOM      5  C   UNL     1     -11.188  11.756  66.754  0.00  0.00    +0.007 A 
ATOM      6  C   UNL     1     -11.384  10.865  67.799  0.00  0.00    +0.000 A 
ATOM      7  C   UNL     1     -11.856  11.352  69.009  0.00  0.00    +0.000 A 
ATOM      8  C   UNL     1     -11.756  12.704  69.227  0.00  0.00    +0.000 A 
ATOM      9  C   UNL     1     -11.700  13.584  68.160  0.00  0.00    +0.007 A 
ENDBRANCH   3   4
ENDBRANCH   1   3
BRANCH   1  10
ATOM     10  O   UNL     1     -10.212  15.288  65.199  0.00  0.00    -0.241 OA
BRANCH  10  11
ATOM     11  C   UNL     1     -10.805  16.551  65.301  0.00  0.00    +0.388 C 
ATOM     12  O   UNL     1     -11.327  16.984  64.230  0.00  0.00    -0.241 OA
BRANCH  11  13
ATOM     13  C   UNL     1     -10.417  17.497  66.351  0.00  0.00    +0.080 A 
ATOM     14  C   UNL     1     -10.332  17.057  67.664  0.00  0.00    +0.007 A 
ATOM     15  C   UNL     1      -9.951  17.985  68.624  0.00  0.00    +0.000 A 
ATOM     16  C   UNL     1      -9.420  19.193  68.194  0.00  0.00    +0.000 A 
ATOM     17  C   UNL     1      -9.771  19.704  66.951  0.00  0.00    +0.000 A 
ATOM     18  C   UNL     1     -10.448  18.863  66.097  0.00  0.00    +0.007 A 
ENDBRANCH  11  13
ENDBRANCH  10  11
ENDBRANCH   1  10
TORSDOF 5
ENDMDL
