MODEL 1
REMARK VINA RESULT:      -5.9      0.000      0.000
REMARK  Name = 
REMARK  5 active torsions:
REMARK  status: ('A' for Active; 'I' for Inactive)
REMARK    1  A    between atoms: C_2  and  C_3
REMARK    2  A    between atoms: C_4  and  C_5
REMARK    3  A    between atoms: C_14  and  C_15
REMARK    4  A    between atoms: C_16  and  C_17
REMARK    5  A    between atoms: C_19  and  C_20
REMARK                            x       y       z     vdW  Elec       q    Type
REMARK                         _______ _______ _______ _____ _____    ______ ____
ROOT
ATOM      1  C   UNL     1     -10.939  16.134  69.901  0.00  0.00    +0.031 C 
ATOM      2  C   UNL     1     -11.020  15.586  68.528  0.00  0.00    -0.022 C 
ATOM      3  C   UNL     1     -11.000  14.278  68.261  0.00  0.00    -0.004 C 
ENDROOT
BRANCH   3   4
ATOM      4  C   UNL     1     -12.061  13.723  67.407  0.00  0.00    -0.001 C 
ATOM      5  C   UNL     1     -11.684  12.612  66.767  0.00  0.00    -0.004 C 
BRANCH   5   6
ATOM      6  C   UNL     1     -10.532  12.804  65.875  0.00  0.00    -0.015 C 
ATOM      7  C   UNL     1     -10.749  13.357  64.703  0.00  0.00    +0.082 C 
ATOM      8  C   UNL     1      -9.179  12.457  66.344  0.00  0.00    +0.031 C 
BRANCH   7   9
ATOM      9  C   UNL     1     -12.051  13.525  64.096  0.00  0.00    +0.388 C 
ATOM     10  O   UNL     1     -12.558  14.828  64.053  0.00  0.00    -0.241 OA
ATOM     11  O   UNL     1     -12.680  12.641  63.481  0.00  0.00    -0.241 OA
ENDBRANCH   7   9
ENDBRANCH   5   6
ENDBRANCH   3   4
BRANCH   2  12
ATOM     12  C   UNL     1     -11.135  16.417  67.326  0.00  0.00    -0.005 C 
ATOM     13  C   UNL     1      -9.967  16.689  66.738  0.00  0.00    -0.005 C 
BRANCH  13  14
ATOM     14  C   UNL     1      -9.043  17.431  67.609  0.00  0.00    -0.031 C 
ATOM     15  C   UNL     1      -7.614  16.985  67.591  0.00  0.00    +0.018 C 
ATOM     16  C   UNL     1      -7.468  15.501  67.764  0.00  0.00    +0.004 C 
ATOM     17  C   UNL     1      -7.036  17.326  66.221  0.00  0.00    +0.004 C 
ATOM     18  C   UNL     1      -6.830  17.677  68.672  0.00  0.00    +0.004 C 
ATOM     19  C   UNL     1      -7.121  19.148  68.775  0.00  0.00    +0.005 C 
ATOM     20  C   UNL     1      -7.999  19.664  67.671  0.00  0.00    +0.022 C 
ATOM     21  C   UNL     1      -9.190  18.759  67.587  0.00  0.00    -0.048 C 
ATOM     22  C   UNL     1     -10.419  19.403  67.022  0.00  0.00    +0.026 C 
ENDBRANCH  13  14
ENDBRANCH   2  12
TORSDOF 5
ENDMDL
MODEL 2
REMARK VINA RESULT:      -5.9      1.486      3.196
REMARK  Name = 
REMARK  5 active torsions:
REMARK  status: ('A' for Active; 'I' for Inactive)
REMARK    1  A    between atoms: C_2  and  C_3
REMARK    2  A    between atoms: C_4  and  C_5
REMARK    3  A    between atoms: C_14  and  C_15
REMARK    4  A    between atoms: C_16  and  C_17
REMARK    5  A    between atoms: C_19  and  C_20
REMARK                            x       y       z     vdW  Elec       q    Type
REMARK                         _______ _______ _______ _____ _____    ______ ____
ROOT
ATOM      1  C   UNL     1     -10.247  19.609  66.121  0.00  0.00    +0.031 C 
ATOM      2  C   UNL     1     -10.243  18.231  66.662  0.00  0.00    -0.022 C 
ATOM      3  C   UNL     1     -10.404  17.147  65.901  0.00  0.00    -0.004 C 
ENDROOT
BRANCH   3   4
ATOM      4  C   UNL     1      -9.420  16.060  66.014  0.00  0.00    -0.001 C 
ATOM      5  C   UNL     1      -9.907  14.877  65.628  0.00  0.00    -0.004 C 
BRANCH   5   6
ATOM      6  C   UNL     1     -11.067  14.429  66.410  0.00  0.00    -0.015 C 
ATOM      7  C   UNL     1     -12.139  14.048  65.753  0.00  0.00    +0.082 C 
ATOM      8  C   UNL     1     -10.968  14.339  67.878  0.00  0.00    +0.031 C 
BRANCH   7   9
ATOM      9  C   UNL     1     -12.386  14.304  64.352  0.00  0.00    +0.388 C 
ATOM     10  O   UNL     1     -12.431  13.187  63.510  0.00  0.00    -0.241 OA
ATOM     11  O   UNL     1     -12.708  15.407  63.865  0.00  0.00    -0.241 OA
ENDBRANCH   7   9
ENDBRANCH   5   6
ENDBRANCH   3   4
BRANCH   2  12
ATOM     12  C   UNL     1     -10.057  17.915  68.082  0.00  0.00    -0.005 C 
ATOM     13  C   UNL     1      -9.058  18.584  68.663  0.00  0.00    -0.005 C 
BRANCH  13  14
ATOM     14  C   UNL     1      -7.749  18.310  68.053  0.00  0.00    -0.031 C 
ATOM     15  C   UNL     1      -6.807  19.470  67.954  0.00  0.00    +0.018 C 
ATOM     16  C   UNL     1      -7.450  20.690  67.361  0.00  0.00    +0.004 C 
ATOM     17  C   UNL     1      -6.378  19.844  69.369  0.00  0.00    +0.004 C 
ATOM     18  C   UNL     1      -5.604  19.107  67.127  0.00  0.00    +0.004 C 
ATOM     19  C   UNL     1      -5.042  17.752  67.451  0.00  0.00    +0.005 C 
ATOM     20  C   UNL     1      -5.679  17.108  68.648  0.00  0.00    +0.022 C 
ATOM     21  C   UNL     1      -7.163  17.178  68.456  0.00  0.00    -0.048 C 
ATOM     22  C   UNL     1      -7.932  16.110  69.171  0.00  0.00    +0.026 C 
ENDBRANCH  13  14
ENDBRANCH   2  12
TORSDOF 5
ENDMDL
MODEL 3
REMARK VINA RESULT:      -5.6      4.705      7.948
REMARK  Name = 
REMARK  5 active torsions:
REMARK  status: ('A' for Active; 'I' for Inactive)
REMARK    1  A    between atoms: C_2  and  C_3
REMARK    2  A    between atoms: C_4  and  C_5
REMARK    3  A    between atoms: C_14  and  C_15
REMARK    4  A    between atoms: C_16  and  C_17
REMARK    5  A    between atoms: C_19  and  C_20
REMARK                            x       y       z     vdW  Elec       q    Type
REMARK                         _______ _______ _______ _____ _____    ______ ____
ROOT
ATOM      1  C   UNL     1     -11.659  10.256  68.116  0.00  0.00    +0.031 C 
ATOM      2  C   UNL     1     -11.655  11.211  69.248  0.00  0.00    -0.022 C 
ATOM      3  C   UNL     1     -10.946  12.342  69.245  0.00  0.00    -0.004 C 
ENDROOT
BRANCH   3   4
ATOM      4  C   UNL     1     -11.636  13.600  69.567  0.00  0.00    -0.001 C 
ATOM      5  C   UNL     1     -12.109  14.224  68.484  0.00  0.00    -0.004 C 
BRANCH   5   6
ATOM      6  C   UNL     1     -11.072  14.592  67.510  0.00  0.00    -0.015 C 
ATOM      7  C   UNL     1     -11.302  14.337  66.242  0.00  0.00    +0.082 C 
ATOM      8  C   UNL     1      -9.862  15.300  67.965  0.00  0.00    +0.031 C 
BRANCH   7   9
ATOM      9  C   UNL     1     -12.349  13.468  65.750  0.00  0.00    +0.388 C 
ATOM     10  O   UNL     1     -13.553  14.082  65.389  0.00  0.00    -0.241 OA
ATOM     11  O   UNL     1     -12.215  12.258  65.482  0.00  0.00    -0.241 OA
ENDBRANCH   7   9
ENDBRANCH   5   6
ENDBRANCH   3   4
BRANCH   2  12
ATOM     12  C   UNL     1     -12.428  11.019  70.479  0.00  0.00    -0.005 C 
ATOM     13  C   UNL     1     -11.824  10.247  71.385  0.00  0.00    -0.005 C 
BRANCH  13  14
ATOM     14  C   UNL     1     -11.563   8.884  70.900  0.00  0.00    -0.031 C 
ATOM     15  C   UNL     1     -10.171   8.367  71.092  0.00  0.00    +0.018 C 
ATOM     16  C   UNL     1      -9.124   9.332  70.620  0.00  0.00    +0.004 C 
ATOM     17  C   UNL     1      -9.947   8.174  72.588  0.00  0.00    +0.004 C 
ATOM     18  C   UNL     1      -9.987   7.061  70.368  0.00  0.00    +0.004 C 
ATOM     19  C   UNL     1     -11.136   6.110  70.546  0.00  0.00    +0.005 C 
ATOM     20  C   UNL     1     -12.152   6.578  71.547  0.00  0.00    +0.022 C 
ATOM     21  C   UNL     1     -12.512   7.989  71.193  0.00  0.00    -0.048 C 
ATOM     22  C   UNL     1     -13.877   8.412  71.641  0.00  0.00    +0.026 C 
ENDBRANCH  13  14
ENDBRANCH   2  12
TORSDOF 5
ENDMDL
MODEL 4
REMARK VINA RESULT:      -5.5      4.618      7.920
REMARK  Name = 
REMARK  5 active torsions:
REMARK  status: ('A' for Active; 'I' for Inactive)
REMARK    1  A    between atoms: C_2  and  C_3
REMARK    2  A    between atoms: C_4  and  C_5
REMARK    3  A    between atoms: C_14  and  C_15
REMARK    4  A    between atoms: C_16  and  C_17
REMARK    5  A    between atoms: C_19  and  C_20
REMARK                            x       y       z     vdW  Elec       q    Type
REMARK                         _______ _______ _______ _____ _____    ______ ____
ROOT
ATOM      1  C   UNL     1     -10.562   8.316  67.897  0.00  0.00    +0.031 C 
ATOM      2  C   UNL     1     -10.462   9.768  68.167  0.00  0.00    -0.022 C 
ATOM      3  C   UNL     1     -10.692  10.701  67.241  0.00  0.00    -0.004 C 
ENDROOT
BRANCH   3   4
ATOM      4  C   UNL     1     -11.636  11.783  67.558  0.00  0.00    -0.001 C 
ATOM      5  C   UNL     1     -11.897  12.568  66.508  0.00  0.00    -0.004 C 
BRANCH   5   6
ATOM      6  C   UNL     1     -10.711  13.240  65.959  0.00  0.00    -0.015 C 
ATOM      7  C   UNL     1     -10.568  13.264  64.654  0.00  0.00    +0.082 C 
ATOM      8  C   UNL     1      -9.777  13.929  66.868  0.00  0.00    +0.031 C 
BRANCH   7   9
ATOM      9  C   UNL     1     -11.313  12.443  63.725  0.00  0.00    +0.388 C 
ATOM     10  O   UNL     1     -12.425  13.036  63.118  0.00  0.00    -0.241 OA
ATOM     11  O   UNL     1     -10.961  11.320  63.312  0.00  0.00    -0.241 OA
ENDBRANCH   7   9
ENDBRANCH   5   6
ENDBRANCH   3   4
BRANCH   2  12
ATOM     12  C   UNL     1     -10.107  10.330  69.474  0.00  0.00    -0.005 C 
ATOM     13  C   UNL     1     -10.182   9.457  70.481  0.00  0.00    -0.005 C 
BRANCH  13  14
ATOM     14  C   UNL     1     -11.533   8.911  70.673  0.00  0.00    -0.031 C 
ATOM     15  C   UNL     1     -11.621   7.578  71.348  0.00  0.00    +0.018 C 
ATOM     16  C   UNL     1     -10.694   6.562  70.747  0.00  0.00    +0.004 C 
ATOM     17  C   UNL     1     -11.190   7.761  72.799  0.00  0.00    +0.004 C 
ATOM     18  C   UNL     1     -13.026   7.045  71.288  0.00  0.00    +0.004 C 
ATOM     19  C   UNL     1     -14.072   8.078  71.601  0.00  0.00    +0.005 C 
ATOM     20  C   UNL     1     -13.503   9.382  72.080  0.00  0.00    +0.022 C 
ATOM     21  C   UNL     1     -12.441   9.791  71.106  0.00  0.00    -0.048 C 
ATOM     22  C   UNL     1     -12.195  11.268  71.041  0.00  0.00    +0.026 C 
ENDBRANCH  13  14
ENDBRANCH   2  12
TORSDOF 5
ENDMDL
MODEL 5
REMARK VINA RESULT:      -5.4      4.894      7.699
REMARK  Name = 
REMARK  5 active torsions:
REMARK  status: ('A' for Active; 'I' for Inactive)
REMARK    1  A    between atoms: C_2  and  C_3
REMARK    2  A    between atoms: C_4  and  C_5
REMARK    3  A    between atoms: C_14  and  C_15
REMARK    4  A    between atoms: C_16  and  C_17
REMARK    5  A    between atoms: C_19  and  C_20
REMARK                            x       y       z     vdW  Elec       q    Type
REMARK                         _______ _______ _______ _____ _____    ______ ____
ROOT
ATOM      1  C   UNL     1     -10.690   7.868  67.055  0.00  0.00    +0.031 C 
ATOM      2  C   UNL     1     -10.326   9.161  67.678  0.00  0.00    -0.022 C 
ATOM      3  C   UNL     1     -11.024   9.713  68.673  0.00  0.00    -0.004 C 
ENDROOT
BRANCH   3   4
ATOM      4  C   UNL     1     -10.301  10.137  69.882  0.00  0.00    -0.001 C 
ATOM      5  C   UNL     1     -10.526   9.336  70.927  0.00  0.00    -0.004 C 
BRANCH   5   6
ATOM      6  C   UNL     1     -11.938   9.265  71.328  0.00  0.00    -0.015 C 
ATOM      7  C   UNL     1     -12.454   8.077  71.552  0.00  0.00    +0.082 C 
ATOM      8  C   UNL     1     -12.699  10.508  71.546  0.00  0.00    +0.031 C 
BRANCH   7   9
ATOM      9  C   UNL     1     -11.847   6.824  71.160  0.00  0.00    +0.388 C 
ATOM     10  O   UNL     1     -11.385   6.003  72.195  0.00  0.00    -0.241 OA
ATOM     11  O   UNL     1     -11.839   6.357  70.004  0.00  0.00    -0.241 OA
ENDBRANCH   7   9
ENDBRANCH   5   6
ENDBRANCH   3   4
BRANCH   2  12
ATOM     12  C   UNL     1      -9.167   9.962  67.273  0.00  0.00    -0.005 C 
ATOM     13  C   UNL     1      -9.459  11.230  66.976  0.00  0.00    -0.005 C 
BRANCH  13  14
ATOM     14  C   UNL     1     -10.401  11.358  65.855  0.00  0.00    -0.031 C 
ATOM     15  C   UNL     1     -11.262  12.583  65.848  0.00  0.00    +0.018 C 
ATOM     16  C   UNL     1     -11.936  12.824  67.168  0.00  0.00    +0.004 C 
ATOM     17  C   UNL     1     -10.361  13.785  65.588  0.00  0.00    +0.004 C 
ATOM     18  C   UNL     1     -12.316  12.483  64.779  0.00  0.00    +0.004 C 
ATOM     19  C   UNL     1     -11.792  11.968  63.468  0.00  0.00    +0.005 C 
ATOM     20  C   UNL     1     -10.298  11.822  63.435  0.00  0.00    +0.022 C 
ATOM     21  C   UNL     1      -9.897  11.052  64.655  0.00  0.00    -0.048 C 
ATOM     22  C   UNL     1      -8.612  10.294  64.515  0.00  0.00    +0.026 C 
ENDBRANCH  13  14
ENDBRANCH   2  12
TORSDOF 5
ENDMDL
MODEL 6
REMARK VINA RESULT:      -5.4      2.864      6.034
REMARK  Name = 
REMARK  5 active torsions:
REMARK  status: ('A' for Active; 'I' for Inactive)
REMARK    1  A    between atoms: C_2  and  C_3
REMARK    2  A    between atoms: C_4  and  C_5
REMARK    3  A    between atoms: C_14  and  C_15
REMARK    4  A    between atoms: C_16  and  C_17
REMARK    5  A    between atoms: C_19  and  C_20
REMARK                            x       y       z     vdW  Elec       q    Type
REMARK                         _______ _______ _______ _____ _____    ______ ____
ROOT
ATOM      1  C   UNL     1     -10.855  19.444  66.998  0.00  0.00    +0.031 C 
ATOM      2  C   UNL     1      -9.708  18.877  67.743  0.00  0.00    -0.022 C 
ATOM      3  C   UNL     1      -8.436  19.085  67.395  0.00  0.00    -0.004 C 
ENDROOT
BRANCH   3   4
ATOM      4  C   UNL     1      -7.501  19.569  68.422  0.00  0.00    -0.001 C 
ATOM      5  C   UNL     1      -6.222  19.461  68.050  0.00  0.00    -0.004 C 
BRANCH   5   6
ATOM      6  C   UNL     1      -5.801  18.083  67.765  0.00  0.00    -0.015 C 
ATOM      7  C   UNL     1      -5.243  17.841  66.600  0.00  0.00    +0.082 C 
ATOM      8  C   UNL     1      -5.934  17.049  68.806  0.00  0.00    +0.031 C 
BRANCH   7   9
ATOM      9  C   UNL     1      -5.272  18.738  65.466  0.00  0.00    +0.388 C 
ATOM     10  O   UNL     1      -6.419  18.698  64.666  0.00  0.00    -0.241 OA
ATOM     11  O   UNL     1      -4.438  19.636  65.236  0.00  0.00    -0.241 OA
ENDBRANCH   7   9
ENDBRANCH   5   6
ENDBRANCH   3   4
BRANCH   2  12
ATOM     12  C   UNL     1      -9.848  18.036  68.936  0.00  0.00    -0.005 C 
ATOM     13  C   UNL     1      -9.519  16.757  68.742  0.00  0.00    -0.005 C 
BRANCH  13  14
ATOM     14  C   UNL     1     -10.352  16.094  67.728  0.00  0.00    -0.031 C 
ATOM     15  C   UNL     1      -9.624  15.305  66.685  0.00  0.00    +0.018 C 
ATOM     16  C   UNL     1      -8.496  16.073  66.059  0.00  0.00    +0.004 C 
ATOM     17  C   UNL     1      -9.003  14.091  67.367  0.00  0.00    +0.004 C 
ATOM     18  C   UNL     1     -10.568  14.864  65.600  0.00  0.00    +0.004 C 
ATOM     19  C   UNL     1     -11.873  14.332  66.122  0.00  0.00    +0.005 C 
ATOM     20  C   UNL     1     -11.905  14.183  67.615  0.00  0.00    +0.022 C 
ATOM     21  C   UNL     1     -11.438  15.478  68.204  0.00  0.00    -0.048 C 
ATOM     22  C   UNL     1     -11.956  15.755  69.583  0.00  0.00    +0.026 C 
ENDBRANCH  13  14
ENDBRANCH   2  12
TORSDOF 5
ENDMDL
MODEL 7
REMARK VINA RESULT:      -5.3      4.624      7.893
REMARK  Name = 
REMARK  5 active torsions:
REMARK  status: ('A' for Active; 'I' for Inactive)
REMARK    1  A    between atoms: C_2  and  C_3
REMARK    2  A    between atoms: C_4  and  C_5
REMARK    3  A    between atoms: C_14  and  C_15
REMARK    4  A    between atoms: C_16  and  C_17
REMARK    5  A    between atoms: C_19  and  C_20
REMARK                            x       y       z     vdW  Elec       q    Type
REMARK                         _______ _______ _______ _____ _____    ______ ____
ROOT
ATOM      1  C   UNL     1     -12.050  10.978  69.283  0.00  0.00    +0.031 C 
ATOM      2  C   UNL     1     -10.811  10.929  68.473  0.00  0.00    -0.022 C 
ATOM      3  C   UNL     1     -10.787  11.173  67.161  0.00  0.00    -0.004 C 
ENDROOT
BRANCH   3   4
ATOM      4  C   UNL     1      -9.819  12.156  66.650  0.00  0.00    -0.001 C 
ATOM      5  C   UNL     1     -10.155  12.639  65.451  0.00  0.00    -0.004 C 
BRANCH   5   6
ATOM      6  C   UNL     1     -10.251  11.613  64.403  0.00  0.00    -0.015 C 
ATOM      7  C   UNL     1     -11.211  11.732  63.514  0.00  0.00    +0.082 C 
ATOM      8  C   UNL     1      -9.235  10.548  64.329  0.00  0.00    +0.031 C 
BRANCH   7   9
ATOM      9  C   UNL     1     -12.353  12.610  63.642  0.00  0.00    +0.388 C 
ATOM     10  O   UNL     1     -13.326  12.238  64.576  0.00  0.00    -0.241 OA
ATOM     11  O   UNL     1     -12.465  13.730  63.106  0.00  0.00    -0.241 OA
ENDBRANCH   7   9
ENDBRANCH   5   6
ENDBRANCH   3   4
BRANCH   2  12
ATOM     12  C   UNL     1      -9.490  10.615  69.025  0.00  0.00    -0.005 C 
ATOM     13  C   UNL     1      -9.031   9.408  68.684  0.00  0.00    -0.005 C 
BRANCH  13  14
ATOM     14  C   UNL     1      -9.892   8.311  69.149  0.00  0.00    -0.031 C 
ATOM     15  C   UNL     1     -10.112   7.187  68.185  0.00  0.00    +0.018 C 
ATOM     16  C   UNL     1     -10.512   7.665  66.819  0.00  0.00    +0.004 C 
ATOM     17  C   UNL     1      -8.789   6.447  68.020  0.00  0.00    +0.004 C 
ATOM     18  C   UNL     1     -11.170   6.249  68.698  0.00  0.00    +0.004 C 
ATOM     19  C   UNL     1     -11.026   5.923  70.158  0.00  0.00    +0.005 C 
ATOM     20  C   UNL     1      -9.761   6.455  70.768  0.00  0.00    +0.022 C 
ATOM     21  C   UNL     1      -9.663   7.904  70.401  0.00  0.00    -0.048 C 
ATOM     22  C   UNL     1      -8.866   8.734  71.361  0.00  0.00    +0.026 C 
ENDBRANCH  13  14
ENDBRANCH   2  12
TORSDOF 5
ENDMDL
MODEL 8
REMARK VINA RESULT:      -5.3      1.313      2.298
REMARK  Name = 
REMARK  5 active torsions:
REMARK  status: ('A' for Active; 'I' for Inactive)
REMARK    1  A    between atoms: C_2  and  C_3
REMARK    2  A    between atoms: C_4  and  C_5
REMARK    3  A    between atoms: C_14  and  C_15
REMARK    4  A    between atoms: C_16  and  C_17
REMARK    5  A    between atoms: C_19  and  C_20
REMARK                            x       y       z     vdW  Elec       q    Type
REMARK                         _______ _______ _______ _____ _____    ______ ____
ROOT
ATOM      1  C   UNL     1      -7.866  15.177  69.227  0.00  0.00    +0.031 C 
ATOM      2  C   UNL     1      -8.797  14.704  68.177  0.00  0.00    -0.022 C 
ATOM      3  C   UNL     1      -9.883  13.973  68.440  0.00  0.00    -0.004 C 
ENDROOT
BRANCH   3   4
ATOM      4  C   UNL     1     -11.174  14.418  67.896  0.00  0.00    -0.001 C 
ATOM      5  C   UNL     1     -12.036  13.413  67.716  0.00  0.00    -0.004 C 
BRANCH   5   6
ATOM      6  C   UNL     1     -11.560  12.382  66.784  0.00  0.00    -0.015 C 
ATOM      7  C   UNL     1     -11.736  12.589  65.498  0.00  0.00    +0.082 C 
ATOM      8  C   UNL     1     -10.835  11.208  67.301  0.00  0.00    +0.031 C 
BRANCH   7   9
ATOM      9  C   UNL     1     -12.612  13.593  64.934  0.00  0.00    +0.388 C 
ATOM     10  O   UNL     1     -12.402  13.922  63.591  0.00  0.00    -0.241 OA
ATOM     11  O   UNL     1     -13.619  14.069  65.495  0.00  0.00    -0.241 OA
ENDBRANCH   7   9
ENDBRANCH   5   6
ENDBRANCH   3   4
BRANCH   2  12
ATOM     12  C   UNL     1      -8.629  14.990  66.750  0.00  0.00    -0.005 C 
ATOM     13  C   UNL     1      -8.138  16.205  66.492  0.00  0.00    -0.005 C 
BRANCH  13  14
ATOM     14  C   UNL     1      -8.998  17.291  66.984  0.00  0.00    -0.031 C 
ATOM     15  C   UNL     1      -8.300  18.532  67.448  0.00  0.00    +0.018 C 
ATOM     16  C   UNL     1      -7.175  18.243  68.398  0.00  0.00    +0.004 C 
ATOM     17  C   UNL     1      -7.681  19.204  66.227  0.00  0.00    +0.004 C 
ATOM     18  C   UNL     1      -9.271  19.467  68.117  0.00  0.00    +0.004 C 
ATOM     19  C   UNL     1     -10.572  19.609  67.379  0.00  0.00    +0.005 C 
ATOM     20  C   UNL     1     -10.577  18.933  66.038  0.00  0.00    +0.022 C 
ATOM     21  C   UNL     1     -10.083  17.533  66.241  0.00  0.00    -0.048 C 
ATOM     22  C   UNL     1     -10.570  16.549  65.222  0.00  0.00    +0.026 C 
ENDBRANCH  13  14
ENDBRANCH   2  12
TORSDOF 5
ENDMDL
MODEL 9
REMARK VINA RESULT:      -5.2      1.824      2.253
REMARK  Name = 
REMARK  5 active torsions:
REMARK  status: ('A' for Active; 'I' for Inactive)
REMARK    1  A    between atoms: C_2  and  C_3
REMARK    2  A    between atoms: C_4  and  C_5
REMARK    3  A    between atoms: C_14  and  C_15
REMARK    4  A    between atoms: C_16  and  C_17
REMARK    5  A    between atoms: C_19  and  C_20
REMARK                            x       y       z     vdW  Elec       q    Type
REMARK                         _______ _______ _______ _____ _____    ______ ____
ROOT
ATOM      1  C   UNL     1     -10.939  15.927  70.270  0.00  0.00    +0.031 C 
ATOM      2  C   UNL     1     -11.041  15.678  68.814  0.00  0.00    -0.022 C 
ATOM      3  C   UNL     1     -10.995  14.456  68.278  0.00  0.00    -0.004 C 
ENDROOT
BRANCH   3   4
ATOM      4  C   UNL     1     -12.063  14.062  67.347  0.00  0.00    -0.001 C 
ATOM      5  C   UNL     1     -11.779  12.939  66.680  0.00  0.00    -0.004 C 
BRANCH   5   6
ATOM      6  C   UNL     1     -10.565  13.026  65.858  0.00  0.00    -0.015 C 
ATOM      7  C   UNL     1      -9.654  12.092  66.007  0.00  0.00    +0.082 C 
ATOM      8  C   UNL     1     -10.443  14.092  64.847  0.00  0.00    +0.031 C 
BRANCH   7   9
ATOM      9  C   UNL     1      -9.604  11.154  67.107  0.00  0.00    +0.388 C 
ATOM     10  O   UNL     1     -10.081   9.864  66.851  0.00  0.00    -0.241 OA
ATOM     11  O   UNL     1      -9.039  11.353  68.200  0.00  0.00    -0.241 OA
ENDBRANCH   7   9
ENDBRANCH   5   6
ENDBRANCH   3   4
BRANCH   2  12
ATOM     12  C   UNL     1     -11.207  16.739  67.816  0.00  0.00    -0.005 C 
ATOM     13  C   UNL     1     -10.102  17.004  67.115  0.00  0.00    -0.005 C 
BRANCH  13  14
ATOM     14  C   UNL     1      -8.983  17.461  67.952  0.00  0.00    -0.031 C 
ATOM     15  C   UNL     1      -7.633  16.909  67.613  0.00  0.00    +0.018 C 
ATOM     16  C   UNL     1      -7.639  15.415  67.463  0.00  0.00    +0.004 C 
ATOM     17  C   UNL     1      -7.219  17.484  66.263  0.00  0.00    +0.004 C 
ATOM     18  C   UNL     1      -6.627  17.285  68.667  0.00  0.00    +0.004 C 
ATOM     19  C   UNL     1      -6.727  18.719  69.106  0.00  0.00    +0.005 C 
ATOM     20  C   UNL     1      -7.685  19.531  68.284  0.00  0.00    +0.022 C 
ATOM     21  C   UNL     1      -8.974  18.771  68.218  0.00  0.00    -0.048 C 
ATOM     22  C   UNL     1     -10.187  19.623  68.000  0.00  0.00    +0.026 C 
ENDBRANCH  13  14
ENDBRANCH   2  12
TORSDOF 5
ENDMDL
