MODEL 1
REMARK VINA RESULT:      -5.0      0.000      0.000
REMARK  Name = 
REMARK  0 active torsions:
REMARK  status: ('A' for Active; 'I' for Inactive)
REMARK                            x       y       z     vdW  Elec       q    Type
REMARK                         _______ _______ _______ _____ _____    ______ ____
ROOT
ATOM      1  C   UNL     1     -12.083  15.632  69.794  0.00  0.00    +0.044 C 
ATOM      2  C   UNL     1     -11.325  15.912  68.404  0.00  0.00    +0.163 C 
ATOM      3  S   UNL     1      -9.669  15.149  69.013  0.00  0.00    -0.109 S 
ATOM      4  C   UNL     1      -8.675  16.648  68.697  0.00  0.00    +0.088 C 
ATOM      5  C   UNL     1      -9.775  17.509  68.084  0.00  0.00    +0.118 C 
ATOM      6  C   UNL     1      -9.394  18.943  68.431  0.00  0.00    +0.030 C 
ATOM      7  C   UNL     1      -7.995  19.198  67.906  0.00  0.00    +0.020 C 
ATOM      8  C   UNL     1      -8.040  18.888  66.418  0.00  0.00    +0.072 C 
ATOM      9  N   UNL     1      -9.361  18.530  65.968  0.00  0.00    -0.271 NA
ATOM     10  C   UNL     1     -10.317  19.599  66.219  0.00  0.00    +0.072 C 
ATOM     11  C   UNL     1     -10.410  19.825  67.723  0.00  0.00    +0.020 C 
ATOM     12  C   UNL     1      -9.884  17.342  66.604  0.00  0.00    +0.100 C 
ATOM     13  O   UNL     1     -10.925  17.275  68.792  0.00  0.00    -0.348 OA
ENDROOT
TORSDOF 0
ENDMDL
MODEL 2
REMARK VINA RESULT:      -4.8      4.680      5.749
REMARK  Name = 
REMARK  0 active torsions:
REMARK  status: ('A' for Active; 'I' for Inactive)
REMARK                            x       y       z     vdW  Elec       q    Type
REMARK                         _______ _______ _______ _____ _____    ______ ____
ROOT
ATOM      1  C   UNL     1     -12.031  10.702  69.116  0.00  0.00    +0.044 C 
ATOM      2  C   UNL     1     -11.020  11.631  68.281  0.00  0.00    +0.163 C 
ATOM      3  S   UNL     1     -11.594  13.248  69.149  0.00  0.00    -0.109 S 
ATOM      4  C   UNL     1     -12.063  14.102  67.604  0.00  0.00    +0.088 C 
ATOM      5  C   UNL     1     -11.625  13.022  66.620  0.00  0.00    +0.118 C 
ATOM      6  C   UNL     1     -12.553  13.179  65.423  0.00  0.00    +0.030 C 
ATOM      7  C   UNL     1     -12.437  14.605  64.921  0.00  0.00    +0.020 C 
ATOM      8  C   UNL     1     -10.962  14.829  64.625  0.00  0.00    +0.072 C 
ATOM      9  N   UNL     1     -10.171  13.644  64.834  0.00  0.00    -0.271 NA
ATOM     10  C   UNL     1     -10.622  12.546  63.992  0.00  0.00    +0.072 C 
ATOM     11  C   UNL     1     -12.054  12.193  64.378  0.00  0.00    +0.020 C 
ATOM     12  C   UNL     1     -10.199  13.165  66.198  0.00  0.00    +0.100 C 
ATOM     13  O   UNL     1     -11.962  11.809  67.163  0.00  0.00    -0.348 OA
ENDROOT
TORSDOF 0
ENDMDL
MODEL 3
REMARK VINA RESULT:      -4.6      1.666      2.410
REMARK  Name = 
REMARK  0 active torsions:
REMARK  status: ('A' for Active; 'I' for Inactive)
REMARK                            x       y       z     vdW  Elec       q    Type
REMARK                         _______ _______ _______ _____ _____    ______ ____
ROOT
ATOM      1  C   UNL     1     -11.303  15.139  64.985  0.00  0.00    +0.044 C 
ATOM      2  C   UNL     1      -9.989  15.666  65.746  0.00  0.00    +0.163 C 
ATOM      3  S   UNL     1     -10.612  15.099  67.474  0.00  0.00    -0.109 S 
ATOM      4  C   UNL     1     -10.493  16.753  68.239  0.00  0.00    +0.088 C 
ATOM      5  C   UNL     1      -9.904  17.499  67.046  0.00  0.00    +0.118 C 
ATOM      6  C   UNL     1     -10.403  18.931  67.190  0.00  0.00    +0.030 C 
ATOM      7  C   UNL     1      -9.981  19.442  68.554  0.00  0.00    +0.020 C 
ATOM      8  C   UNL     1      -8.470  19.279  68.615  0.00  0.00    +0.072 C 
ATOM      9  N   UNL     1      -7.918  18.778  67.383  0.00  0.00    -0.271 NA
ATOM     10  C   UNL     1      -8.215  19.662  66.267  0.00  0.00    +0.072 C 
ATOM     11  C   UNL     1      -9.727  19.720  66.080  0.00  0.00    +0.020 C 
ATOM     12  C   UNL     1      -8.411  17.467  67.023  0.00  0.00    +0.100 C 
ATOM     13  O   UNL     1     -10.524  17.027  65.919  0.00  0.00    -0.348 OA
ENDROOT
TORSDOF 0
ENDMDL
MODEL 4
REMARK VINA RESULT:      -4.4      2.441      4.194
REMARK  Name = 
REMARK  0 active torsions:
REMARK  status: ('A' for Active; 'I' for Inactive)
REMARK                            x       y       z     vdW  Elec       q    Type
REMARK                         _______ _______ _______ _____ _____    ______ ____
ROOT
ATOM      1  C   UNL     1      -5.815  19.352  64.511  0.00  0.00    +0.044 C 
ATOM      2  C   UNL     1      -6.359  19.318  66.024  0.00  0.00    +0.163 C 
ATOM      3  S   UNL     1      -5.954  17.452  66.256  0.00  0.00    -0.109 S 
ATOM      4  C   UNL     1      -7.660  16.972  66.697  0.00  0.00    +0.088 C 
ATOM      5  C   UNL     1      -8.287  18.362  66.676  0.00  0.00    +0.118 C 
ATOM      6  C   UNL     1      -9.742  18.134  66.286  0.00  0.00    +0.030 C 
ATOM      7  C   UNL     1     -10.347  17.159  67.277  0.00  0.00    +0.020 C 
ATOM      8  C   UNL     1     -10.140  17.774  68.652  0.00  0.00    +0.072 C 
ATOM      9  N   UNL     1      -9.522  19.073  68.589  0.00  0.00    -0.271 NA
ATOM     10  C   UNL     1     -10.323  20.007  67.812  0.00  0.00    +0.072 C 
ATOM     11  C   UNL     1     -10.415  19.494  66.380  0.00  0.00    +0.020 C 
ATOM     12  C   UNL     1      -8.204  19.056  67.996  0.00  0.00    +0.100 C 
ATOM     13  O   UNL     1      -7.746  19.041  65.616  0.00  0.00    -0.348 OA
ENDROOT
TORSDOF 0
ENDMDL
MODEL 5
REMARK VINA RESULT:      -4.4      2.376      3.702
REMARK  Name = 
REMARK  0 active torsions:
REMARK  status: ('A' for Active; 'I' for Inactive)
REMARK                            x       y       z     vdW  Elec       q    Type
REMARK                         _______ _______ _______ _____ _____    ______ ____
ROOT
ATOM      1  C   UNL     1      -5.348  17.802  69.582  0.00  0.00    +0.044 C 
ATOM      2  C   UNL     1      -6.102  17.865  68.164  0.00  0.00    +0.163 C 
ATOM      3  S   UNL     1      -5.640  19.707  67.863  0.00  0.00    -0.109 S 
ATOM      4  C   UNL     1      -7.364  20.276  67.669  0.00  0.00    +0.088 C 
ATOM      5  C   UNL     1      -8.052  18.920  67.789  0.00  0.00    +0.118 C 
ATOM      6  C   UNL     1      -9.422  19.223  68.384  0.00  0.00    +0.030 C 
ATOM      7  C   UNL     1     -10.113  20.229  67.484  0.00  0.00    +0.020 C 
ATOM      8  C   UNL     1     -10.138  19.606  66.097  0.00  0.00    +0.072 C 
ATOM      9  N   UNL     1      -9.585  18.276  66.079  0.00  0.00    -0.271 NA
ATOM     10  C   UNL     1     -10.313  17.384  66.970  0.00  0.00    +0.072 C 
ATOM     11  C   UNL     1     -10.171  17.901  68.397  0.00  0.00    +0.020 C 
ATOM     12  C   UNL     1      -8.196  18.224  66.476  0.00  0.00    +0.100 C 
ATOM     13  O   UNL     1      -7.400  18.213  68.765  0.00  0.00    -0.348 OA
ENDROOT
TORSDOF 0
ENDMDL
MODEL 6
REMARK VINA RESULT:      -4.4      3.262      4.912
REMARK  Name = 
REMARK  0 active torsions:
REMARK  status: ('A' for Active; 'I' for Inactive)
REMARK                            x       y       z     vdW  Elec       q    Type
REMARK                         _______ _______ _______ _____ _____    ______ ____
ROOT
ATOM      1  C   UNL     1      -9.590  18.538  66.412  0.00  0.00    +0.044 C 
ATOM      2  C   UNL     1     -10.297  17.281  67.122  0.00  0.00    +0.163 C 
ATOM      3  S   UNL     1      -8.630  16.496  67.669  0.00  0.00    -0.109 S 
ATOM      4  C   UNL     1      -8.919  14.901  66.828  0.00  0.00    +0.088 C 
ATOM      5  C   UNL     1     -10.323  15.187  66.303  0.00  0.00    +0.118 C 
ATOM      6  C   UNL     1     -10.442  14.367  65.025  0.00  0.00    +0.030 C 
ATOM      7  C   UNL     1     -10.155  12.918  65.368  0.00  0.00    +0.020 C 
ATOM      8  C   UNL     1     -11.138  12.542  66.466  0.00  0.00    +0.072 C 
ATOM      9  N   UNL     1     -12.049  13.612  66.780  0.00  0.00    -0.271 NA
ATOM     10  C   UNL     1     -12.828  14.008  65.616  0.00  0.00    +0.072 C 
ATOM     11  C   UNL     1     -11.876  14.540  64.552  0.00  0.00    +0.020 C 
ATOM     12  C   UNL     1     -11.393  14.803  67.271  0.00  0.00    +0.100 C 
ATOM     13  O   UNL     1     -10.346  16.491  65.881  0.00  0.00    -0.348 OA
ENDROOT
TORSDOF 0
ENDMDL
MODEL 7
REMARK VINA RESULT:      -4.3      4.785      6.136
REMARK  Name = 
REMARK  0 active torsions:
REMARK  status: ('A' for Active; 'I' for Inactive)
REMARK                            x       y       z     vdW  Elec       q    Type
REMARK                         _______ _______ _______ _____ _____    ______ ____
ROOT
ATOM      1  C   UNL     1      -9.964  10.975  63.076  0.00  0.00    +0.044 C 
ATOM      2  C   UNL     1     -10.866  11.252  64.378  0.00  0.00    +0.163 C 
ATOM      3  S   UNL     1     -12.056  12.443  63.449  0.00  0.00    -0.109 S 
ATOM      4  C   UNL     1     -11.783  13.854  64.576  0.00  0.00    +0.088 C 
ATOM      5  C   UNL     1     -10.855  13.161  65.567  0.00  0.00    +0.118 C 
ATOM      6  C   UNL     1      -9.960  14.267  66.111  0.00  0.00    +0.030 C 
ATOM      7  C   UNL     1     -10.849  15.347  66.695  0.00  0.00    +0.020 C 
ATOM      8  C   UNL     1     -11.723  14.659  67.732  0.00  0.00    +0.072 C 
ATOM      9  N   UNL     1     -11.401  13.264  67.887  0.00  0.00    -0.271 NA
ATOM     10  C   UNL     1     -10.016  13.078  68.293  0.00  0.00    +0.072 C 
ATOM     11  C   UNL     1      -9.110  13.620  67.193  0.00  0.00    +0.020 C 
ATOM     12  C   UNL     1     -11.592  12.491  66.680  0.00  0.00    +0.100 C 
ATOM     13  O   UNL     1     -10.011  12.355  64.847  0.00  0.00    -0.348 OA
ENDROOT
TORSDOF 0
ENDMDL
MODEL 8
REMARK VINA RESULT:      -4.3      5.360      6.469
REMARK  Name = 
REMARK  0 active torsions:
REMARK  status: ('A' for Active; 'I' for Inactive)
REMARK                            x       y       z     vdW  Elec       q    Type
REMARK                         _______ _______ _______ _____ _____    ______ ____
ROOT
ATOM      1  C   UNL     1      -7.958  12.014  68.230  0.00  0.00    +0.044 C 
ATOM      2  C   UNL     1      -9.507  11.833  67.842  0.00  0.00    +0.163 C 
ATOM      3  S   UNL     1      -9.215  10.153  66.954  0.00  0.00    -0.109 S 
ATOM      4  C   UNL     1      -9.918  10.691  65.357  0.00  0.00    +0.088 C 
ATOM      5  C   UNL     1     -10.355  12.091  65.775  0.00  0.00    +0.118 C 
ATOM      6  C   UNL     1     -10.269  12.928  64.505  0.00  0.00    +0.030 C 
ATOM      7  C   UNL     1     -11.128  12.264  63.446  0.00  0.00    +0.020 C 
ATOM      8  C   UNL     1     -12.521  12.147  64.045  0.00  0.00    +0.072 C 
ATOM      9  N   UNL     1     -12.610  12.742  65.354  0.00  0.00    -0.271 NA
ATOM     10  C   UNL     1     -12.269  14.157  65.320  0.00  0.00    +0.072 C 
ATOM     11  C   UNL     1     -10.819  14.297  64.872  0.00  0.00    +0.020 C 
ATOM     12  C   UNL     1     -11.741  12.124  66.330  0.00  0.00    +0.100 C 
ATOM     13  O   UNL     1      -9.379  12.600  66.592  0.00  0.00    -0.348 OA
ENDROOT
TORSDOF 0
ENDMDL
MODEL 9
REMARK VINA RESULT:      -4.2      3.708      5.528
REMARK  Name = 
REMARK  0 active torsions:
REMARK  status: ('A' for Active; 'I' for Inactive)
REMARK                            x       y       z     vdW  Elec       q    Type
REMARK                         _______ _______ _______ _____ _____    ______ ____
ROOT
ATOM      1  C   UNL     1      -7.323  16.072  67.009  0.00  0.00    +0.044 C 
ATOM      2  C   UNL     1      -8.665  16.001  66.126  0.00  0.00    +0.163 C 
ATOM      3  S   UNL     1      -9.798  16.538  67.584  0.00  0.00    -0.109 S 
ATOM      4  C   UNL     1     -10.870  15.061  67.506  0.00  0.00    +0.088 C 
ATOM      5  C   UNL     1     -10.231  14.395  66.292  0.00  0.00    +0.118 C 
ATOM      6  C   UNL     1     -10.445  12.902  66.502  0.00  0.00    +0.030 C 
ATOM      7  C   UNL     1     -11.932  12.659  66.673  0.00  0.00    +0.020 C 
ATOM      8  C   UNL     1     -12.598  13.236  65.433  0.00  0.00    +0.072 C 
ATOM      9  N   UNL     1     -11.645  13.750  64.483  0.00  0.00    -0.271 NA
ATOM     10  C   UNL     1     -10.723  12.715  64.039  0.00  0.00    +0.072 C 
ATOM     11  C   UNL     1      -9.925  12.227  65.242  0.00  0.00    +0.020 C 
ATOM     12  C   UNL     1     -10.841  14.834  65.002  0.00  0.00    +0.100 C 
ATOM     13  O   UNL     1      -8.875  14.569  66.394  0.00  0.00    -0.348 OA
ENDROOT
TORSDOF 0
ENDMDL
