MODEL 1
REMARK VINA RESULT:      -6.6      0.000      0.000
REMARK  Name = 
REMARK  6 active torsions:
REMARK  status: ('A' for Active; 'I' for Inactive)
REMARK    1  A    between atoms: C_9  and  O_10
REMARK    2  A    between atoms: O_10  and  C_11
REMARK    3  A    between atoms: N_13  and  C_14
REMARK    4  A    between atoms: N_13  and  C_17
REMARK    5  A    between atoms: C_14  and  C_15
REMARK    6  A    between atoms: C_17  and  C_18
REMARK                            x       y       z     vdW  Elec       q    Type
REMARK                         _______ _______ _______ _____ _____    ______ ____
ROOT
ATOM      1  C   UNL     1     -11.670   6.611  70.028  0.00  0.00    +0.003 C 
ATOM      2  C   UNL     1     -11.320   6.970  71.331  0.00  0.00    +0.028 C 
ATOM      3  C   UNL     1     -10.473   5.834  72.140  0.00  0.00    +0.152 C 
ATOM      4  O   UNL     1     -10.089   5.070  70.874  0.00  0.00    -0.223 OA
ATOM      5  C   UNL     1      -9.022   6.637  72.065  0.00  0.00    +0.033 C 
ATOM      6  C   UNL     1      -9.163   7.237  70.643  0.00  0.00    +0.003 C 
ATOM      7  C   UNL     1     -10.231   8.166  71.434  0.00  0.00    +0.003 C 
ATOM      8  C   UNL     1     -10.980   8.914  70.130  0.00  0.00    +0.004 C 
ATOM      9  C   UNL     1     -11.674   9.861  71.350  0.00  0.00    +0.022 C 
ATOM     10  C   UNL     1     -12.375  10.905  70.368  0.00  0.00    -0.026 A 
ATOM     11  C   UNL     1     -11.688  11.274  69.206  0.00  0.00    -0.023 A 
ATOM     12  C   UNL     1     -10.648  10.411  68.577  0.00  0.00    +0.026 C 
ATOM     13  C   UNL     1     -11.706  12.632  68.878  0.00  0.00    +0.033 A 
ATOM     14  C   UNL     1     -11.684  13.616  69.862  0.00  0.00    +0.150 A 
ATOM     15  C   UNL     1     -12.341  13.257  71.013  0.00  0.00    +0.037 A 
ATOM     16  C   UNL     1     -12.855  11.961  71.155  0.00  0.00    -0.001 A 
ATOM     17  C   UNL     1     -12.889   8.778  71.495  0.00  0.00    +0.004 C 
ATOM     18  C   UNL     1      -9.774   9.921  69.757  0.00  0.00    +0.005 C 
ATOM     19  C   UNL     1     -12.325   7.590  72.278  0.00  0.00    +0.003 C 
ENDROOT
BRANCH  14  20
ATOM     20  O   UNL     1     -10.855  14.740  69.719  0.00  0.00    -0.410 OA
BRANCH  20  21
ATOM     21  C   UNL     1     -11.058  15.525  68.595  0.00  0.00    +0.409 C 
ATOM     22  N   UNL     1     -10.167  15.730  67.515  0.00  0.00    -0.243 N 
ATOM     23  O   UNL     1     -12.075  16.279  68.530  0.00  0.00    -0.226 OA
BRANCH  22  24
ATOM     24  C   UNL     1      -9.236  16.844  67.741  0.00  0.00    +0.114 C 
BRANCH  24  25
ATOM     25  C   UNL     1      -9.512  17.919  66.692  0.00  0.00    +0.116 C 
ATOM     26 CL   UNL     1     -10.465  19.217  67.466  0.00  0.00    -0.112 Cl
ENDBRANCH  24  25
ENDBRANCH  22  24
BRANCH  22  27
ATOM     27  C   UNL     1     -10.719  15.819  66.159  0.00  0.00    +0.114 C 
BRANCH  27  28
ATOM     28  C   UNL     1     -10.919  14.492  65.513  0.00  0.00    +0.116 C 
ATOM     29 CL   UNL     1     -12.635  14.005  65.651  0.00  0.00    -0.112 Cl
ENDBRANCH  27  28
ENDBRANCH  22  27
ENDBRANCH  20  21
ENDBRANCH  14  20
TORSDOF 6
ENDMDL
MODEL 2
REMARK VINA RESULT:      -6.6      4.034      8.329
REMARK  Name = 
REMARK  6 active torsions:
REMARK  status: ('A' for Active; 'I' for Inactive)
REMARK    1  A    between atoms: C_9  and  O_10
REMARK    2  A    between atoms: O_10  and  C_11
REMARK    3  A    between atoms: N_13  and  C_14
REMARK    4  A    between atoms: N_13  and  C_17
REMARK    5  A    between atoms: C_14  and  C_15
REMARK    6  A    between atoms: C_17  and  C_18
REMARK                            x       y       z     vdW  Elec       q    Type
REMARK                         _______ _______ _______ _____ _____    ______ ____
ROOT
ATOM      1  C   UNL     1      -9.681  13.527  66.939  0.00  0.00    +0.003 C 
ATOM      2  C   UNL     1     -11.070  13.576  66.805  0.00  0.00    +0.028 C 
ATOM      3  C   UNL     1     -11.589  14.219  65.398  0.00  0.00    +0.152 C 
ATOM      4  O   UNL     1     -10.239  14.051  64.702  0.00  0.00    -0.223 OA
ATOM      5  C   UNL     1     -12.079  12.776  64.739  0.00  0.00    +0.033 C 
ATOM      6  C   UNL     1     -10.951  11.872  65.295  0.00  0.00    +0.003 C 
ATOM      7  C   UNL     1     -11.787  12.130  66.660  0.00  0.00    +0.003 C 
ATOM      8  C   UNL     1     -10.698  11.516  67.783  0.00  0.00    +0.004 C 
ATOM      9  C   UNL     1     -12.009  11.713  68.837  0.00  0.00    +0.022 C 
ATOM     10  C   UNL     1     -11.327  10.986  70.082  0.00  0.00    -0.026 A 
ATOM     11  C   UNL     1     -10.520   9.871  69.827  0.00  0.00    -0.023 A 
ATOM     12  C   UNL     1      -9.850   9.644  68.516  0.00  0.00    +0.026 C 
ATOM     13  C   UNL     1     -10.681   8.778  70.684  0.00  0.00    +0.033 A 
ATOM     14  C   UNL     1     -11.926   8.443  71.206  0.00  0.00    +0.150 A 
ATOM     15  C   UNL     1     -12.733   9.529  71.445  0.00  0.00    +0.037 A 
ATOM     16  C   UNL     1     -12.318  10.811  71.058  0.00  0.00    -0.001 A 
ATOM     17  C   UNL     1     -11.533  13.248  69.136  0.00  0.00    +0.004 C 
ATOM     18  C   UNL     1     -10.937   9.952  67.458  0.00  0.00    +0.005 C 
ATOM     19  C   UNL     1     -11.955  14.080  67.923  0.00  0.00    +0.003 C 
ENDROOT
BRANCH  14  20
ATOM     20  O   UNL     1     -12.342   7.103  71.239  0.00  0.00    -0.410 OA
BRANCH  20  21
ATOM     21  C   UNL     1     -11.457   6.188  71.787  0.00  0.00    +0.409 C 
ATOM     22  N   UNL     1     -10.138   5.903  71.361  0.00  0.00    -0.243 N 
ATOM     23  O   UNL     1     -11.858   5.386  72.684  0.00  0.00    -0.226 OA
BRANCH  22  24
ATOM     24  C   UNL     1     -10.080   4.865  70.323  0.00  0.00    +0.114 C 
BRANCH  24  25
ATOM     25  C   UNL     1      -9.624   5.517  69.020  0.00  0.00    +0.116 C 
ATOM     26 CL   UNL     1     -11.074   6.125  68.169  0.00  0.00    -0.112 Cl
ENDBRANCH  24  25
ENDBRANCH  22  24
BRANCH  22  27
ATOM     27  C   UNL     1      -9.116   5.637  72.379  0.00  0.00    +0.114 C 
BRANCH  27  28
ATOM     28  C   UNL     1      -8.162   6.767  72.570  0.00  0.00    +0.116 C 
ATOM     29 CL   UNL     1      -8.842   7.942  73.735  0.00  0.00    -0.112 Cl
ENDBRANCH  27  28
ENDBRANCH  22  27
ENDBRANCH  20  21
ENDBRANCH  14  20
TORSDOF 6
ENDMDL
MODEL 3
REMARK VINA RESULT:      -6.5      4.306      6.912
REMARK  Name = 
REMARK  6 active torsions:
REMARK  status: ('A' for Active; 'I' for Inactive)
REMARK    1  A    between atoms: C_9  and  O_10
REMARK    2  A    between atoms: O_10  and  C_11
REMARK    3  A    between atoms: N_13  and  C_14
REMARK    4  A    between atoms: N_13  and  C_17
REMARK    5  A    between atoms: C_14  and  C_15
REMARK    6  A    between atoms: C_17  and  C_18
REMARK                            x       y       z     vdW  Elec       q    Type
REMARK                         _______ _______ _______ _____ _____    ______ ____
ROOT
ATOM      1  C   UNL     1     -12.382  13.648  67.222  0.00  0.00    +0.003 C 
ATOM      2  C   UNL     1     -11.398  13.475  68.198  0.00  0.00    +0.028 C 
ATOM      3  C   UNL     1     -11.019  11.918  68.504  0.00  0.00    +0.152 C 
ATOM      4  O   UNL     1     -11.647  11.401  67.211  0.00  0.00    -0.223 OA
ATOM      5  C   UNL     1      -9.546  11.963  67.741  0.00  0.00    +0.033 C 
ATOM      6  C   UNL     1      -9.924  12.890  66.560  0.00  0.00    +0.003 C 
ATOM      7  C   UNL     1      -9.919  13.976  67.763  0.00  0.00    +0.003 C 
ATOM      8  C   UNL     1     -10.630  15.279  66.976  0.00  0.00    +0.004 C 
ATOM      9  C   UNL     1     -10.158  16.104  68.377  0.00  0.00    +0.022 C 
ATOM     10  C   UNL     1     -10.547  17.558  67.849  0.00  0.00    -0.026 A 
ATOM     11  C   UNL     1     -10.318  17.847  66.498  0.00  0.00    -0.023 A 
ATOM     12  C   UNL     1     -10.243  16.791  65.449  0.00  0.00    +0.026 C 
ATOM     13  C   UNL     1      -9.762  19.098  66.216  0.00  0.00    +0.033 A 
ATOM     14  C   UNL     1      -8.832  19.687  67.066  0.00  0.00    +0.150 A 
ATOM     15  C   UNL     1      -9.037  19.396  68.392  0.00  0.00    +0.037 A 
ATOM     16  C   UNL     1     -10.036  18.486  68.766  0.00  0.00    -0.001 A 
ATOM     17  C   UNL     1     -11.572  15.696  69.089  0.00  0.00    +0.004 C 
ATOM     18  C   UNL     1      -9.357  15.683  66.068  0.00  0.00    +0.005 C 
ATOM     19  C   UNL     1     -11.442  14.230  69.508  0.00  0.00    +0.003 C 
ENDROOT
BRANCH  14  20
ATOM     20  O   UNL     1      -7.687  20.306  66.541  0.00  0.00    -0.410 OA
BRANCH  20  21
ATOM     21  C   UNL     1      -6.713  19.473  66.014  0.00  0.00    +0.409 C 
ATOM     22  N   UNL     1      -5.682  18.802  66.713  0.00  0.00    -0.243 N 
ATOM     23  O   UNL     1      -6.590  19.367  64.756  0.00  0.00    -0.226 OA
BRANCH  22  24
ATOM     24  C   UNL     1      -4.465  19.612  66.861  0.00  0.00    +0.114 C 
BRANCH  24  25
ATOM     25  C   UNL     1      -4.165  19.756  68.351  0.00  0.00    +0.116 C 
ATOM     26 CL   UNL     1      -5.498  20.684  69.098  0.00  0.00    -0.112 Cl
ENDBRANCH  24  25
ENDBRANCH  22  24
BRANCH  22  27
ATOM     27  C   UNL     1      -5.320  17.444  66.293  0.00  0.00    +0.114 C 
BRANCH  27  28
ATOM     28  C   UNL     1      -5.369  16.449  67.401  0.00  0.00    +0.116 C 
ATOM     29 CL   UNL     1      -6.601  16.939  68.601  0.00  0.00    -0.112 Cl
ENDBRANCH  27  28
ENDBRANCH  22  27
ENDBRANCH  20  21
ENDBRANCH  14  20
TORSDOF 6
ENDMDL
MODEL 4
REMARK VINA RESULT:      -6.5      1.469      1.542
REMARK  Name = 
REMARK  6 active torsions:
REMARK  status: ('A' for Active; 'I' for Inactive)
REMARK    1  A    between atoms: C_9  and  O_10
REMARK    2  A    between atoms: O_10  and  C_11
REMARK    3  A    between atoms: N_13  and  C_14
REMARK    4  A    between atoms: N_13  and  C_17
REMARK    5  A    between atoms: C_14  and  C_15
REMARK    6  A    between atoms: C_17  and  C_18
REMARK                            x       y       z     vdW  Elec       q    Type
REMARK                         _______ _______ _______ _____ _____    ______ ____
ROOT
ATOM      1  C   UNL     1     -11.316   6.312  69.812  0.00  0.00    +0.003 C 
ATOM      2  C   UNL     1     -11.001   6.596  71.143  0.00  0.00    +0.028 C 
ATOM      3  C   UNL     1     -10.045   5.484  71.859  0.00  0.00    +0.152 C 
ATOM      4  O   UNL     1      -9.591   4.868  70.537  0.00  0.00    -0.223 OA
ATOM      5  C   UNL     1      -8.680   6.428  71.860  0.00  0.00    +0.033 C 
ATOM      6  C   UNL     1      -8.881   7.127  70.492  0.00  0.00    +0.003 C 
ATOM      7  C   UNL     1     -10.033   7.879  71.350  0.00  0.00    +0.003 C 
ATOM      8  C   UNL     1     -10.855   8.656  70.108  0.00  0.00    +0.004 C 
ATOM      9  C   UNL     1     -11.635   9.426  71.398  0.00  0.00    +0.022 C 
ATOM     10  C   UNL     1     -12.437  10.474  70.501  0.00  0.00    -0.026 A 
ATOM     11  C   UNL     1     -11.791  11.003  69.378  0.00  0.00    -0.023 A 
ATOM     12  C   UNL     1     -10.673  10.302  68.686  0.00  0.00    +0.026 C 
ATOM     13  C   UNL     1     -11.941  12.376  69.163  0.00  0.00    +0.033 A 
ATOM     14  C   UNL     1     -12.014  13.273  70.225  0.00  0.00    +0.150 A 
ATOM     15  C   UNL     1     -12.631  12.758  71.338  0.00  0.00    +0.037 A 
ATOM     16  C   UNL     1     -13.015  11.410  71.369  0.00  0.00    -0.001 A 
ATOM     17  C   UNL     1     -12.739   8.222  71.445  0.00  0.00    +0.004 C 
ATOM     18  C   UNL     1      -9.753   9.803  69.826  0.00  0.00    +0.005 C 
ATOM     19  C   UNL     1     -12.059   7.034  72.130  0.00  0.00    +0.003 C 
ENDROOT
BRANCH  14  20
ATOM     20  O   UNL     1     -11.299  14.480  70.180  0.00  0.00    -0.410 OA
BRANCH  20  21
ATOM     21  C   UNL     1     -11.350  15.192  68.992  0.00  0.00    +0.409 C 
ATOM     22  N   UNL     1     -10.601  14.960  67.815  0.00  0.00    -0.243 N 
ATOM     23  O   UNL     1     -12.021  16.266  68.932  0.00  0.00    -0.226 OA
BRANCH  22  24
ATOM     24  C   UNL     1      -9.306  15.654  67.811  0.00  0.00    +0.114 C 
BRANCH  24  25
ATOM     25  C   UNL     1      -8.252  14.698  67.256  0.00  0.00    +0.116 C 
ATOM     26 CL   UNL     1      -8.482  13.107  68.037  0.00  0.00    -0.112 Cl
ENDBRANCH  24  25
ENDBRANCH  22  24
BRANCH  22  27
ATOM     27  C   UNL     1     -11.259  15.143  66.517  0.00  0.00    +0.114 C 
BRANCH  27  28
ATOM     28  C   UNL     1     -12.120  13.993  66.123  0.00  0.00    +0.116 C 
ATOM     29 CL   UNL     1     -11.096  12.617  65.613  0.00  0.00    -0.112 Cl
ENDBRANCH  27  28
ENDBRANCH  22  27
ENDBRANCH  20  21
ENDBRANCH  14  20
TORSDOF 6
ENDMDL
MODEL 5
REMARK VINA RESULT:      -6.5      1.730      2.444
REMARK  Name = 
REMARK  6 active torsions:
REMARK  status: ('A' for Active; 'I' for Inactive)
REMARK    1  A    between atoms: C_9  and  O_10
REMARK    2  A    between atoms: O_10  and  C_11
REMARK    3  A    between atoms: N_13  and  C_14
REMARK    4  A    between atoms: N_13  and  C_17
REMARK    5  A    between atoms: C_14  and  C_15
REMARK    6  A    between atoms: C_17  and  C_18
REMARK                            x       y       z     vdW  Elec       q    Type
REMARK                         _______ _______ _______ _____ _____    ______ ____
ROOT
ATOM      1  C   UNL     1     -11.100   6.486  71.184  0.00  0.00    +0.003 C 
ATOM      2  C   UNL     1     -11.059   7.408  72.232  0.00  0.00    +0.028 C 
ATOM      3  C   UNL     1     -10.511   6.800  73.643  0.00  0.00    +0.152 C 
ATOM      4  O   UNL     1      -9.877   5.573  72.990  0.00  0.00    -0.223 OA
ATOM      5  C   UNL     1      -9.038   7.562  73.581  0.00  0.00    +0.033 C 
ATOM      6  C   UNL     1      -8.786   7.456  72.057  0.00  0.00    +0.003 C 
ATOM      7  C   UNL     1      -9.953   8.580  72.058  0.00  0.00    +0.003 C 
ATOM      8  C   UNL     1     -10.310   8.626  70.417  0.00  0.00    +0.004 C 
ATOM      9  C   UNL     1     -11.220   9.979  70.874  0.00  0.00    +0.022 C 
ATOM     10  C   UNL     1     -11.590  10.435  69.390  0.00  0.00    -0.026 A 
ATOM     11  C   UNL     1     -10.616  10.283  68.397  0.00  0.00    -0.023 A 
ATOM     12  C   UNL     1      -9.510   9.287  68.497  0.00  0.00    +0.026 C 
ATOM     13  C   UNL     1     -10.465  11.348  67.506  0.00  0.00    +0.033 A 
ATOM     14  C   UNL     1     -10.622  12.667  67.919  0.00  0.00    +0.150 A 
ATOM     15  C   UNL     1     -11.564  12.826  68.906  0.00  0.00    +0.037 A 
ATOM     16  C   UNL     1     -12.179  11.703  69.478  0.00  0.00    -0.001 A 
ATOM     17  C   UNL     1     -12.501   9.010  71.178  0.00  0.00    +0.004 C 
ATOM     18  C   UNL     1      -8.987   9.424  69.947  0.00  0.00    +0.005 C 
ATOM     19  C   UNL     1     -12.223   8.329  72.521  0.00  0.00    +0.003 C 
ENDROOT
BRANCH  14  20
ATOM     20  O   UNL     1      -9.714  13.652  67.501  0.00  0.00    -0.410 OA
BRANCH  20  21
ATOM     21  C   UNL     1     -10.253  14.818  66.980  0.00  0.00    +0.409 C 
ATOM     22  N   UNL     1     -10.172  16.122  67.520  0.00  0.00    -0.243 N 
ATOM     23  O   UNL     1     -11.034  14.757  65.983  0.00  0.00    -0.226 OA
BRANCH  22  24
ATOM     24  C   UNL     1     -11.252  16.420  68.471  0.00  0.00    +0.114 C 
BRANCH  24  25
ATOM     25  C   UNL     1     -10.736  16.146  69.882  0.00  0.00    +0.116 C 
ATOM     26 CL   UNL     1     -12.146  15.851  70.940  0.00  0.00    -0.112 Cl
ENDBRANCH  24  25
ENDBRANCH  22  24
BRANCH  22  27
ATOM     27  C   UNL     1     -10.003  17.253  66.601  0.00  0.00    +0.114 C 
BRANCH  27  28
ATOM     28  C   UNL     1     -10.492  18.546  67.156  0.00  0.00    +0.116 C 
ATOM     29 CL   UNL     1     -10.509  19.789  65.870  0.00  0.00    -0.112 Cl
ENDBRANCH  27  28
ENDBRANCH  22  27
ENDBRANCH  20  21
ENDBRANCH  14  20
TORSDOF 6
ENDMDL
MODEL 6
REMARK VINA RESULT:      -6.4      2.135      3.694
REMARK  Name = 
REMARK  6 active torsions:
REMARK  status: ('A' for Active; 'I' for Inactive)
REMARK    1  A    between atoms: C_9  and  O_10
REMARK    2  A    between atoms: O_10  and  C_11
REMARK    3  A    between atoms: N_13  and  C_14
REMARK    4  A    between atoms: N_13  and  C_17
REMARK    5  A    between atoms: C_14  and  C_15
REMARK    6  A    between atoms: C_17  and  C_18
REMARK                            x       y       z     vdW  Elec       q    Type
REMARK                         _______ _______ _______ _____ _____    ______ ____
ROOT
ATOM      1  C   UNL     1     -10.187   6.249  74.591  0.00  0.00    +0.003 C 
ATOM      2  C   UNL     1      -9.598   5.583  73.514  0.00  0.00    +0.028 C 
ATOM      3  C   UNL     1      -9.519   3.963  73.686  0.00  0.00    +0.152 C 
ATOM      4  O   UNL     1     -10.563   3.925  74.802  0.00  0.00    -0.223 OA
ATOM      5  C   UNL     1     -10.718   3.630  72.588  0.00  0.00    +0.033 C 
ATOM      6  C   UNL     1     -11.658   4.821  72.903  0.00  0.00    +0.003 C 
ATOM      7  C   UNL     1     -10.464   5.613  72.145  0.00  0.00    +0.003 C 
ATOM      8  C   UNL     1     -10.902   7.196  72.498  0.00  0.00    +0.004 C 
ATOM      9  C   UNL     1      -9.689   7.553  71.372  0.00  0.00    +0.022 C 
ATOM     10  C   UNL     1      -9.979   9.121  71.311  0.00  0.00    -0.026 A 
ATOM     11  C   UNL     1     -11.312   9.543  71.381  0.00  0.00    -0.023 A 
ATOM     12  C   UNL     1     -12.384   8.723  72.014  0.00  0.00    +0.026 C 
ATOM     13  C   UNL     1     -11.691  10.556  70.496  0.00  0.00    +0.033 A 
ATOM     14  C   UNL     1     -11.161  10.633  69.212  0.00  0.00    +0.150 A 
ATOM     15  C   UNL     1      -9.858  10.206  69.128  0.00  0.00    +0.037 A 
ATOM     16  C   UNL     1      -9.229   9.644  70.248  0.00  0.00    -0.001 A 
ATOM     17  C   UNL     1      -8.577   7.539  72.570  0.00  0.00    +0.004 C 
ATOM     18  C   UNL     1     -12.153   7.289  71.480  0.00  0.00    +0.005 C 
ATOM     19  C   UNL     1      -8.305   6.068  72.895  0.00  0.00    +0.003 C 
ENDROOT
BRANCH  14  20
ATOM     20  O   UNL     1     -11.996  10.903  68.117  0.00  0.00    -0.410 OA
BRANCH  20  21
ATOM     21  C   UNL     1     -11.678  12.011  67.348  0.00  0.00    +0.409 C 
ATOM     22  N   UNL     1     -11.083  13.219  67.781  0.00  0.00    -0.243 N 
ATOM     23  O   UNL     1     -12.063  12.069  66.141  0.00  0.00    -0.226 OA
BRANCH  22  24
ATOM     24  C   UNL     1     -12.063  14.211  68.243  0.00  0.00    +0.114 C 
BRANCH  24  25
ATOM     25  C   UNL     1     -12.028  14.244  69.769  0.00  0.00    +0.116 C 
ATOM     26 CL   UNL     1     -11.530  15.885  70.276  0.00  0.00    -0.112 Cl
ENDBRANCH  24  25
ENDBRANCH  22  24
BRANCH  22  27
ATOM     27  C   UNL     1     -10.101  13.870  66.906  0.00  0.00    +0.114 C 
BRANCH  27  28
ATOM     28  C   UNL     1     -10.501  15.242  66.485  0.00  0.00    +0.116 C 
ATOM     29 CL   UNL     1     -11.124  15.204  64.809  0.00  0.00    -0.112 Cl
ENDBRANCH  27  28
ENDBRANCH  22  27
ENDBRANCH  20  21
ENDBRANCH  14  20
TORSDOF 6
ENDMDL
MODEL 7
REMARK VINA RESULT:      -6.4      2.480      4.339
REMARK  Name = 
REMARK  6 active torsions:
REMARK  status: ('A' for Active; 'I' for Inactive)
REMARK    1  A    between atoms: C_9  and  O_10
REMARK    2  A    between atoms: O_10  and  C_11
REMARK    3  A    between atoms: N_13  and  C_14
REMARK    4  A    between atoms: N_13  and  C_17
REMARK    5  A    between atoms: C_14  and  C_15
REMARK    6  A    between atoms: C_17  and  C_18
REMARK                            x       y       z     vdW  Elec       q    Type
REMARK                         _______ _______ _______ _____ _____    ______ ____
ROOT
ATOM      1  C   UNL     1     -10.103   6.224  74.717  0.00  0.00    +0.003 C 
ATOM      2  C   UNL     1      -9.497   5.543  73.659  0.00  0.00    +0.028 C 
ATOM      3  C   UNL     1      -9.404   3.927  73.863  0.00  0.00    +0.152 C 
ATOM      4  O   UNL     1     -10.457   3.900  74.970  0.00  0.00    -0.223 OA
ATOM      5  C   UNL     1     -10.590   3.561  72.761  0.00  0.00    +0.033 C 
ATOM      6  C   UNL     1     -11.544   4.748  73.045  0.00  0.00    +0.003 C 
ATOM      7  C   UNL     1     -10.352   5.538  72.282  0.00  0.00    +0.003 C 
ATOM      8  C   UNL     1     -10.809   7.123  72.600  0.00  0.00    +0.004 C 
ATOM      9  C   UNL     1      -9.590   7.470  71.478  0.00  0.00    +0.022 C 
ATOM     10  C   UNL     1      -9.895   9.034  71.384  0.00  0.00    -0.026 A 
ATOM     11  C   UNL     1     -11.233   9.443  71.435  0.00  0.00    -0.023 A 
ATOM     12  C   UNL     1     -12.303   8.625  72.074  0.00  0.00    +0.026 C 
ATOM     13  C   UNL     1     -11.614  10.434  70.527  0.00  0.00    +0.033 A 
ATOM     14  C   UNL     1     -11.074  10.493  69.246  0.00  0.00    +0.150 A 
ATOM     15  C   UNL     1      -9.766  10.077  69.182  0.00  0.00    +0.037 A 
ATOM     16  C   UNL     1      -9.142   9.543  70.318  0.00  0.00    -0.001 A 
ATOM     17  C   UNL     1      -8.489   7.490  72.686  0.00  0.00    +0.004 C 
ATOM     18  C   UNL     1     -12.052   7.183  71.570  0.00  0.00    +0.005 C 
ATOM     19  C   UNL     1      -8.205   6.029  73.042  0.00  0.00    +0.003 C 
ENDROOT
BRANCH  14  20
ATOM     20  O   UNL     1     -11.902  10.733  68.139  0.00  0.00    -0.410 OA
BRANCH  20  21
ATOM     21  C   UNL     1     -11.680  11.906  67.436  0.00  0.00    +0.409 C 
ATOM     22  N   UNL     1     -11.618  12.071  66.032  0.00  0.00    -0.243 N 
ATOM     23  O   UNL     1     -11.351  12.959  68.060  0.00  0.00    -0.226 OA
BRANCH  22  24
ATOM     24  C   UNL     1     -10.270  11.858  65.487  0.00  0.00    +0.114 C 
BRANCH  24  25
ATOM     25  C   UNL     1     -10.296  10.595  64.628  0.00  0.00    +0.116 C 
ATOM     26 CL   UNL     1      -9.926   9.201  65.683  0.00  0.00    -0.112 Cl
ENDBRANCH  24  25
ENDBRANCH  22  24
BRANCH  22  27
ATOM     27  C   UNL     1     -12.199  13.282  65.443  0.00  0.00    +0.114 C 
BRANCH  27  28
ATOM     28  C   UNL     1     -11.216  14.101  64.680  0.00  0.00    +0.116 C 
ATOM     29 CL   UNL     1     -10.690  15.494  65.672  0.00  0.00    -0.112 Cl
ENDBRANCH  27  28
ENDBRANCH  22  27
ENDBRANCH  20  21
ENDBRANCH  14  20
TORSDOF 6
ENDMDL
MODEL 8
REMARK VINA RESULT:      -6.3      4.015      8.453
REMARK  Name = 
REMARK  6 active torsions:
REMARK  status: ('A' for Active; 'I' for Inactive)
REMARK    1  A    between atoms: C_9  and  O_10
REMARK    2  A    between atoms: O_10  and  C_11
REMARK    3  A    between atoms: N_13  and  C_14
REMARK    4  A    between atoms: N_13  and  C_17
REMARK    5  A    between atoms: C_14  and  C_15
REMARK    6  A    between atoms: C_17  and  C_18
REMARK                            x       y       z     vdW  Elec       q    Type
REMARK                         _______ _______ _______ _____ _____    ______ ____
ROOT
ATOM      1  C   UNL     1      -7.836  18.670  68.711  0.00  0.00    +0.003 C 
ATOM      2  C   UNL     1      -6.961  17.972  67.877  0.00  0.00    +0.028 C 
ATOM      3  C   UNL     1      -5.384  18.154  68.252  0.00  0.00    +0.152 C 
ATOM      4  O   UNL     1      -5.671  18.679  69.658  0.00  0.00    -0.223 OA
ATOM      5  C   UNL     1      -5.196  16.632  68.887  0.00  0.00    +0.033 C 
ATOM      6  C   UNL     1      -6.579  16.494  69.571  0.00  0.00    +0.003 C 
ATOM      7  C   UNL     1      -7.032  16.359  68.020  0.00  0.00    +0.003 C 
ATOM      8  C   UNL     1      -8.698  16.483  68.196  0.00  0.00    +0.004 C 
ATOM      9  C   UNL     1      -8.686  16.026  66.566  0.00  0.00    +0.022 C 
ATOM     10  C   UNL     1     -10.267  15.847  66.435  0.00  0.00    -0.026 A 
ATOM     11  C   UNL     1     -10.957  15.311  67.529  0.00  0.00    -0.023 A 
ATOM     12  C   UNL     1     -10.441  15.389  68.925  0.00  0.00    +0.026 C 
ATOM     13  C   UNL     1     -11.933  14.354  67.239  0.00  0.00    +0.033 A 
ATOM     14  C   UNL     1     -11.773  13.447  66.196  0.00  0.00    +0.150 A 
ATOM     15  C   UNL     1     -11.082  13.958  65.124  0.00  0.00    +0.037 A 
ATOM     16  C   UNL     1     -10.517  15.239  65.198  0.00  0.00    -0.001 A 
ATOM     17  C   UNL     1      -8.563  17.597  66.131  0.00  0.00    +0.004 C 
ATOM     18  C   UNL     1      -8.944  15.011  68.814  0.00  0.00    +0.005 C 
ATOM     19  C   UNL     1      -7.107  18.003  66.371  0.00  0.00    +0.003 C 
ENDROOT
BRANCH  14  20
ATOM     20  O   UNL     1     -12.098  12.094  66.379  0.00  0.00    -0.410 OA
BRANCH  20  21
ATOM     21  C   UNL     1     -11.496  11.446  67.446  0.00  0.00    +0.409 C 
ATOM     22  N   UNL     1     -10.250  10.778  67.457  0.00  0.00    -0.243 N 
ATOM     23  O   UNL     1     -12.143  11.278  68.524  0.00  0.00    -0.226 OA
BRANCH  22  24
ATOM     24  C   UNL     1     -10.351   9.366  67.063  0.00  0.00    +0.114 C 
BRANCH  24  25
ATOM     25  C   UNL     1      -9.439   9.139  65.859  0.00  0.00    +0.116 C 
ATOM     26 CL   UNL     1     -10.014  10.179  64.524  0.00  0.00    -0.112 Cl
ENDBRANCH  24  25
ENDBRANCH  22  24
BRANCH  22  27
ATOM     27  C   UNL     1      -9.402  10.895  68.648  0.00  0.00    +0.114 C 
BRANCH  27  28
ATOM     28  C   UNL     1      -8.039  11.422  68.355  0.00  0.00    +0.116 C 
ATOM     29 CL   UNL     1      -8.071  12.372  66.840  0.00  0.00    -0.112 Cl
ENDBRANCH  27  28
ENDBRANCH  22  27
ENDBRANCH  20  21
ENDBRANCH  14  20
TORSDOF 6
ENDMDL
MODEL 9
REMARK VINA RESULT:      -6.3      5.215      9.365
REMARK  Name = 
REMARK  6 active torsions:
REMARK  status: ('A' for Active; 'I' for Inactive)
REMARK    1  A    between atoms: C_9  and  O_10
REMARK    2  A    between atoms: O_10  and  C_11
REMARK    3  A    between atoms: N_13  and  C_14
REMARK    4  A    between atoms: N_13  and  C_17
REMARK    5  A    between atoms: C_14  and  C_15
REMARK    6  A    between atoms: C_17  and  C_18
REMARK                            x       y       z     vdW  Elec       q    Type
REMARK                         _______ _______ _______ _____ _____    ______ ____
ROOT
ATOM      1  C   UNL     1      -5.316  18.303  70.682  0.00  0.00    +0.003 C 
ATOM      2  C   UNL     1      -5.062  19.199  69.641  0.00  0.00    +0.028 C 
ATOM      3  C   UNL     1      -3.515  19.711  69.555  0.00  0.00    +0.152 C 
ATOM      4  O   UNL     1      -2.982  18.578  70.431  0.00  0.00    -0.223 OA
ATOM      5  C   UNL     1      -3.130  18.817  68.209  0.00  0.00    +0.033 C 
ATOM      6  C   UNL     1      -3.951  17.544  68.533  0.00  0.00    +0.003 C 
ATOM      7  C   UNL     1      -5.161  18.556  68.157  0.00  0.00    +0.003 C 
ATOM      8  C   UNL     1      -6.471  17.642  68.678  0.00  0.00    +0.004 C 
ATOM      9  C   UNL     1      -7.352  18.846  67.877  0.00  0.00    +0.022 C 
ATOM     10  C   UNL     1      -8.772  18.134  68.022  0.00  0.00    -0.026 A 
ATOM     11  C   UNL     1      -8.819  16.740  67.908  0.00  0.00    -0.023 A 
ATOM     12  C   UNL     1      -7.641  15.868  68.181  0.00  0.00    +0.026 C 
ATOM     13  C   UNL     1      -9.867  16.214  67.147  0.00  0.00    +0.033 A 
ATOM     14  C   UNL     1     -10.344  16.871  66.018  0.00  0.00    +0.150 A 
ATOM     15  C   UNL     1     -10.287  18.240  66.112  0.00  0.00    +0.037 A 
ATOM     16  C   UNL     1      -9.678  18.843  67.222  0.00  0.00    -0.001 A 
ATOM     17  C   UNL     1      -7.365  19.741  69.245  0.00  0.00    +0.004 C 
ATOM     18  C   UNL     1      -6.458  16.568  67.471  0.00  0.00    +0.005 C 
ATOM     19  C   UNL     1      -5.976  20.372  69.367  0.00  0.00    +0.003 C 
ENDROOT
BRANCH  14  20
ATOM     20  O   UNL     1     -10.619  16.152  64.844  0.00  0.00    -0.410 OA
BRANCH  20  21
ATOM     21  C   UNL     1     -11.406  15.018  64.977  0.00  0.00    +0.409 C 
ATOM     22  N   UNL     1     -11.010  13.745  65.451  0.00  0.00    -0.243 N 
ATOM     23  O   UNL     1     -12.584  15.014  64.510  0.00  0.00    -0.226 OA
BRANCH  22  24
ATOM     24  C   UNL     1     -10.484  12.874  64.391  0.00  0.00    +0.114 C 
BRANCH  24  25
ATOM     25  C   UNL     1     -11.339  11.610  64.342  0.00  0.00    +0.116 C 
ATOM     26 CL   UNL     1     -12.618  11.854  63.117  0.00  0.00    -0.112 Cl
ENDBRANCH  24  25
ENDBRANCH  22  24
BRANCH  22  27
ATOM     27  C   UNL     1     -11.946  12.988  66.288  0.00  0.00    +0.114 C 
BRANCH  27  28
ATOM     28  C   UNL     1     -11.630  13.058  67.743  0.00  0.00    +0.116 C 
ATOM     29 CL   UNL     1      -9.903  12.674  68.005  0.00  0.00    -0.112 Cl
ENDBRANCH  27  28
ENDBRANCH  22  27
ENDBRANCH  20  21
ENDBRANCH  14  20
TORSDOF 6
ENDMDL
