MODEL 1
REMARK VINA RESULT:      -6.4      0.000      0.000
REMARK  Name = 
REMARK  4 active torsions:
REMARK  status: ('A' for Active; 'I' for Inactive)
REMARK    1  A    between atoms: N_2  and  C_3
REMARK    2  A    between atoms: C_3  and  C_4
REMARK    3  A    between atoms: C_4  and  C_5
REMARK    4  A    between atoms: C_5  and  N_6
REMARK                            x       y       z     vdW  Elec       q    Type
REMARK                         _______ _______ _______ _____ _____    ______ ____
ROOT
ATOM      1  N   UNL     1     -11.777  12.881  69.730  0.00  0.00    -0.287 N 
ATOM      2  C   UNL     1     -12.092  13.736  70.836  0.00  0.00    +0.048 A 
ATOM      3  C   UNL     1     -11.800  15.093  70.890  0.00  0.00    -0.008 A 
ATOM      4  C   UNL     1     -12.357  15.841  71.902  0.00  0.00    -0.003 A 
ATOM      5  C   UNL     1     -13.420  15.350  72.646  0.00  0.00    -0.000 A 
ATOM      6  C   UNL     1     -13.881  14.057  72.448  0.00  0.00    +0.001 A 
ATOM      7  C   UNL     1     -11.076  15.904  69.864  0.00  0.00    +0.032 C 
ATOM      8  C   UNL     1     -11.751  15.831  68.513  0.00  0.00    +0.032 C 
ATOM      9  C   UNL     1     -11.467  14.542  67.810  0.00  0.00    -0.008 A 
ATOM     10  C   UNL     1     -11.166  14.715  66.468  0.00  0.00    -0.003 A 
ATOM     11  C   UNL     1     -11.264  13.609  65.641  0.00  0.00    -0.000 A 
ATOM     12  C   UNL     1     -11.652  12.392  66.166  0.00  0.00    +0.001 A 
ATOM     13  C   UNL     1     -11.555  12.208  67.522  0.00  0.00    +0.015 A 
ATOM     14  C   UNL     1     -13.082  13.239  71.661  0.00  0.00    +0.015 A 
ATOM     15  C   UNL     1     -11.441  13.281  68.396  0.00  0.00    +0.048 A 
ENDROOT
BRANCH   1  16
ATOM     16  C   UNL     1     -12.362  11.551  69.849  0.00  0.00    +0.097 C 
BRANCH  16  17
ATOM     17  C   UNL     1     -11.340  10.516  70.244  0.00  0.00    +0.041 C 
BRANCH  17  18
ATOM     18  C   UNL     1     -11.944   9.722  71.394  0.00  0.00    +0.091 C 
BRANCH  18  20
ATOM     19  C   UNL     1     -13.987   8.721  72.146  0.00  0.00    +0.107 C 
ATOM     20  N   UNL     1     -13.379   9.676  71.239  0.00  0.00    -0.216 NA
ENDBRANCH  18  20
ENDBRANCH  17  18
ENDBRANCH  16  17
ENDBRANCH   1  16
TORSDOF 4
ENDMDL
MODEL 2
REMARK VINA RESULT:      -6.3      2.031      6.485
REMARK  Name = 
REMARK  4 active torsions:
REMARK  status: ('A' for Active; 'I' for Inactive)
REMARK    1  A    between atoms: N_2  and  C_3
REMARK    2  A    between atoms: C_3  and  C_4
REMARK    3  A    between atoms: C_4  and  C_5
REMARK    4  A    between atoms: C_5  and  N_6
REMARK                            x       y       z     vdW  Elec       q    Type
REMARK                         _______ _______ _______ _____ _____    ______ ____
ROOT
ATOM      1  N   UNL     1     -11.212  14.940  69.355  0.00  0.00    -0.287 N 
ATOM      2  C   UNL     1     -11.206  14.012  68.264  0.00  0.00    +0.048 A 
ATOM      3  C   UNL     1     -11.396  12.642  68.395  0.00  0.00    -0.008 A 
ATOM      4  C   UNL     1     -11.596  11.900  67.253  0.00  0.00    -0.003 A 
ATOM      5  C   UNL     1     -11.924  12.514  66.053  0.00  0.00    -0.000 A 
ATOM      6  C   UNL     1     -11.961  13.897  65.958  0.00  0.00    +0.001 A 
ATOM      7  C   UNL     1     -11.587  11.872  69.660  0.00  0.00    +0.032 C 
ATOM      8  C   UNL     1     -12.770  12.381  70.453  0.00  0.00    +0.032 C 
ATOM      9  C   UNL     1     -12.458  13.650  71.179  0.00  0.00    -0.008 A 
ATOM     10  C   UNL     1     -12.933  13.657  72.481  0.00  0.00    -0.003 A 
ATOM     11  C   UNL     1     -13.050  14.882  73.115  0.00  0.00    -0.000 A 
ATOM     12  C   UNL     1     -12.700  16.038  72.444  0.00  0.00    +0.001 A 
ATOM     13  C   UNL     1     -11.894  15.929  71.340  0.00  0.00    +0.015 A 
ATOM     14  C   UNL     1     -11.433  14.597  67.034  0.00  0.00    +0.015 A 
ATOM     15  C   UNL     1     -11.730  14.721  70.674  0.00  0.00    +0.048 A 
ENDROOT
BRANCH   1  16
ATOM     16  C   UNL     1     -11.182  16.332  68.925  0.00  0.00    +0.097 C 
BRANCH  16  17
ATOM     17  C   UNL     1      -9.776  16.870  68.841  0.00  0.00    +0.041 C 
BRANCH  17  18
ATOM     18  C   UNL     1      -9.896  18.366  68.582  0.00  0.00    +0.091 C 
BRANCH  18  20
ATOM     19  C   UNL     1     -10.497  19.563  66.597  0.00  0.00    +0.107 C 
ATOM     20  N   UNL     1     -10.920  18.597  67.592  0.00  0.00    -0.216 NA
ENDBRANCH  18  20
ENDBRANCH  17  18
ENDBRANCH  16  17
ENDBRANCH   1  16
TORSDOF 4
ENDMDL
MODEL 3
REMARK VINA RESULT:      -6.1      2.214      4.821
REMARK  Name = 
REMARK  4 active torsions:
REMARK  status: ('A' for Active; 'I' for Inactive)
REMARK    1  A    between atoms: N_2  and  C_3
REMARK    2  A    between atoms: C_3  and  C_4
REMARK    3  A    between atoms: C_4  and  C_5
REMARK    4  A    between atoms: C_5  and  N_6
REMARK                            x       y       z     vdW  Elec       q    Type
REMARK                         _______ _______ _______ _____ _____    ______ ____
ROOT
ATOM      1  N   UNL     1     -11.444  15.273  68.654  0.00  0.00    -0.287 N 
ATOM      2  C   UNL     1     -11.676  13.957  68.136  0.00  0.00    +0.048 A 
ATOM      3  C   UNL     1     -11.682  13.633  66.785  0.00  0.00    -0.008 A 
ATOM      4  C   UNL     1     -11.688  12.303  66.433  0.00  0.00    -0.003 A 
ATOM      5  C   UNL     1     -11.373  11.320  67.361  0.00  0.00    -0.000 A 
ATOM      6  C   UNL     1     -11.139  11.653  68.687  0.00  0.00    +0.001 A 
ATOM      7  C   UNL     1     -11.504  14.565  65.631  0.00  0.00    +0.032 C 
ATOM      8  C   UNL     1     -10.197  15.322  65.717  0.00  0.00    +0.032 C 
ATOM      9  C   UNL     1     -10.257  16.438  66.711  0.00  0.00    -0.008 A 
ATOM     10  C   UNL     1      -9.681  17.608  66.242  0.00  0.00    -0.003 A 
ATOM     11  C   UNL     1      -9.332  18.570  67.175  0.00  0.00    -0.000 A 
ATOM     12  C   UNL     1      -9.561  18.338  68.517  0.00  0.00    +0.001 A 
ATOM     13  C   UNL     1     -10.462  17.364  68.864  0.00  0.00    +0.015 A 
ATOM     14  C   UNL     1     -11.467  12.950  69.057  0.00  0.00    +0.015 A 
ATOM     15  C   UNL     1     -10.857  16.383  67.963  0.00  0.00    +0.048 A 
ENDROOT
BRANCH   1  16
ATOM     16  C   UNL     1     -11.302  15.301  70.104  0.00  0.00    +0.097 C 
BRANCH  16  17
ATOM     17  C   UNL     1     -12.616  15.560  70.798  0.00  0.00    +0.041 C 
BRANCH  17  18
ATOM     18  C   UNL     1     -12.291  15.833  72.260  0.00  0.00    +0.091 C 
BRANCH  18  20
ATOM     19  C   UNL     1     -13.687  13.892  72.404  0.00  0.00    +0.107 C 
ATOM     20  N   UNL     1     -13.176  15.059  73.097  0.00  0.00    -0.216 NA
ENDBRANCH  18  20
ENDBRANCH  17  18
ENDBRANCH  16  17
ENDBRANCH   1  16
TORSDOF 4
ENDMDL
MODEL 4
REMARK VINA RESULT:      -6.0      1.282      4.429
REMARK  Name = 
REMARK  4 active torsions:
REMARK  status: ('A' for Active; 'I' for Inactive)
REMARK    1  A    between atoms: N_2  and  C_3
REMARK    2  A    between atoms: C_3  and  C_4
REMARK    3  A    between atoms: C_4  and  C_5
REMARK    4  A    between atoms: C_5  and  N_6
REMARK                            x       y       z     vdW  Elec       q    Type
REMARK                         _______ _______ _______ _____ _____    ______ ____
ROOT
ATOM      1  N   UNL     1     -11.987  12.063  69.058  0.00  0.00    -0.287 N 
ATOM      2  C   UNL     1     -11.608  11.509  67.792  0.00  0.00    +0.048 A 
ATOM      3  C   UNL     1     -11.594  12.215  66.596  0.00  0.00    -0.008 A 
ATOM      4  C   UNL     1     -10.994  11.634  65.502  0.00  0.00    -0.003 A 
ATOM      5  C   UNL     1     -10.151  10.542  65.650  0.00  0.00    -0.000 A 
ATOM      6  C   UNL     1      -9.973   9.953  66.893  0.00  0.00    +0.001 A 
ATOM      7  C   UNL     1     -12.007  13.635  66.379  0.00  0.00    +0.032 C 
ATOM      8  C   UNL     1     -11.226  14.586  67.258  0.00  0.00    +0.032 C 
ATOM      9  C   UNL     1     -11.714  14.577  68.671  0.00  0.00    -0.008 A 
ATOM     10  C   UNL     1     -11.825  15.849  69.211  0.00  0.00    -0.003 A 
ATOM     11  C   UNL     1     -11.890  15.957  70.590  0.00  0.00    -0.000 A 
ATOM     12  C   UNL     1     -11.841  14.818  71.371  0.00  0.00    +0.001 A 
ATOM     13  C   UNL     1     -12.119  13.612  70.779  0.00  0.00    +0.015 A 
ATOM     14  C   UNL     1     -10.846  10.361  67.892  0.00  0.00    +0.015 A 
ATOM     15  C   UNL     1     -12.082  13.452  69.400  0.00  0.00    +0.048 A 
ENDROOT
BRANCH   1  16
ATOM     16  C   UNL     1     -11.729  11.166  70.177  0.00  0.00    +0.097 C 
BRANCH  16  17
ATOM     17  C   UNL     1     -12.964  10.406  70.590  0.00  0.00    +0.041 C 
BRANCH  17  18
ATOM     18  C   UNL     1     -12.536   9.443  71.690  0.00  0.00    +0.091 C 
BRANCH  18  20
ATOM     19  C   UNL     1     -14.490   8.059  71.670  0.00  0.00    +0.107 C 
ATOM     20  N   UNL     1     -13.701   9.013  72.426  0.00  0.00    -0.216 NA
ENDBRANCH  18  20
ENDBRANCH  17  18
ENDBRANCH  16  17
ENDBRANCH   1  16
TORSDOF 4
ENDMDL
MODEL 5
REMARK VINA RESULT:      -5.9      2.538      7.014
REMARK  Name = 
REMARK  4 active torsions:
REMARK  status: ('A' for Active; 'I' for Inactive)
REMARK    1  A    between atoms: N_2  and  C_3
REMARK    2  A    between atoms: C_3  and  C_4
REMARK    3  A    between atoms: C_4  and  C_5
REMARK    4  A    between atoms: C_5  and  N_6
REMARK                            x       y       z     vdW  Elec       q    Type
REMARK                         _______ _______ _______ _____ _____    ______ ____
ROOT
ATOM      1  N   UNL     1     -10.567  13.704  66.941  0.00  0.00    -0.287 N 
ATOM      2  C   UNL     1     -10.301  12.778  65.880  0.00  0.00    +0.048 A 
ATOM      3  C   UNL     1     -10.122  11.411  66.054  0.00  0.00    -0.008 A 
ATOM      4  C   UNL     1     -10.103  10.609  64.936  0.00  0.00    -0.003 A 
ATOM      5  C   UNL     1     -10.566  11.078  63.715  0.00  0.00    -0.000 A 
ATOM      6  C   UNL     1     -10.968  12.398  63.576  0.00  0.00    +0.001 A 
ATOM      7  C   UNL     1     -10.118  10.657  67.343  0.00  0.00    +0.032 C 
ATOM      8  C   UNL     1     -11.404  10.857  68.114  0.00  0.00    +0.032 C 
ATOM      9  C   UNL     1     -11.449  12.185  68.800  0.00  0.00    -0.008 A 
ATOM     10  C   UNL     1     -11.925  12.104  70.099  0.00  0.00    -0.003 A 
ATOM     11  C   UNL     1     -12.371  13.273  70.693  0.00  0.00    -0.000 A 
ATOM     12  C   UNL     1     -12.332  14.459  69.986  0.00  0.00    +0.001 A 
ATOM     13  C   UNL     1     -11.512  14.535  68.889  0.00  0.00    +0.015 A 
ATOM     14  C   UNL     1     -10.659  13.245  64.631  0.00  0.00    +0.015 A 
ATOM     15  C   UNL     1     -11.025  13.395  68.263  0.00  0.00    +0.048 A 
ENDROOT
BRANCH   1  16
ATOM     16  C   UNL     1     -10.901  15.040  66.466  0.00  0.00    +0.097 C 
BRANCH  16  17
ATOM     17  C   UNL     1      -9.688  15.930  66.374  0.00  0.00    +0.041 C 
BRANCH  17  18
ATOM     18  C   UNL     1     -10.123  17.312  66.846  0.00  0.00    +0.091 C 
BRANCH  18  20
ATOM     19  C   UNL     1     -10.433  19.547  66.044  0.00  0.00    +0.107 C 
ATOM     20  N   UNL     1     -10.406  18.139  65.697  0.00  0.00    -0.216 NA
ENDBRANCH  18  20
ENDBRANCH  17  18
ENDBRANCH  16  17
ENDBRANCH   1  16
TORSDOF 4
ENDMDL
MODEL 6
REMARK VINA RESULT:      -5.8      1.983      4.721
REMARK  Name = 
REMARK  4 active torsions:
REMARK  status: ('A' for Active; 'I' for Inactive)
REMARK    1  A    between atoms: N_2  and  C_3
REMARK    2  A    between atoms: C_3  and  C_4
REMARK    3  A    between atoms: C_4  and  C_5
REMARK    4  A    between atoms: C_5  and  N_6
REMARK                            x       y       z     vdW  Elec       q    Type
REMARK                         _______ _______ _______ _____ _____    ______ ____
ROOT
ATOM      1  N   UNL     1     -11.749  14.227  68.732  0.00  0.00    -0.287 N 
ATOM      2  C   UNL     1     -11.723  12.830  68.419  0.00  0.00    +0.048 A 
ATOM      3  C   UNL     1     -11.588  12.313  67.136  0.00  0.00    -0.008 A 
ATOM      4  C   UNL     1     -11.347  10.965  66.998  0.00  0.00    -0.003 A 
ATOM      5  C   UNL     1     -10.929  10.202  68.079  0.00  0.00    -0.000 A 
ATOM      6  C   UNL     1     -10.839  10.765  69.344  0.00  0.00    +0.001 A 
ATOM      7  C   UNL     1     -11.498  13.080  65.857  0.00  0.00    +0.032 C 
ATOM      8  C   UNL     1     -10.346  14.060  65.870  0.00  0.00    +0.032 C 
ATOM      9  C   UNL     1     -10.657  15.282  66.674  0.00  0.00    -0.008 A 
ATOM     10  C   UNL     1     -10.259  16.453  66.048  0.00  0.00    -0.003 A 
ATOM     11  C   UNL     1     -10.137  17.589  66.830  0.00  0.00    -0.000 A 
ATOM     12  C   UNL     1     -10.407  17.523  68.184  0.00  0.00    +0.001 A 
ATOM     13  C   UNL     1     -11.150  16.466  68.646  0.00  0.00    +0.015 A 
ATOM     14  C   UNL     1     -11.405  12.023  69.493  0.00  0.00    +0.015 A 
ATOM     15  C   UNL     1     -11.317  15.309  67.897  0.00  0.00    +0.048 A 
ENDROOT
BRANCH   1  16
ATOM     16  C   UNL     1     -11.706  14.495  70.164  0.00  0.00    +0.097 C 
BRANCH  16  17
ATOM     17  C   UNL     1     -13.084  14.656  70.753  0.00  0.00    +0.041 C 
BRANCH  17  18
ATOM     18  C   UNL     1     -12.970  15.704  71.852  0.00  0.00    +0.091 C 
BRANCH  18  20
ATOM     19  C   UNL     1     -12.469  15.608  74.192  0.00  0.00    +0.107 C 
ATOM     20  N   UNL     1     -12.042  15.241  72.856  0.00  0.00    -0.216 NA
ENDBRANCH  18  20
ENDBRANCH  17  18
ENDBRANCH  16  17
ENDBRANCH   1  16
TORSDOF 4
ENDMDL
MODEL 7
REMARK VINA RESULT:      -5.8      1.957      6.245
REMARK  Name = 
REMARK  4 active torsions:
REMARK  status: ('A' for Active; 'I' for Inactive)
REMARK    1  A    between atoms: N_2  and  C_3
REMARK    2  A    between atoms: C_3  and  C_4
REMARK    3  A    between atoms: C_4  and  C_5
REMARK    4  A    between atoms: C_5  and  N_6
REMARK                            x       y       z     vdW  Elec       q    Type
REMARK                         _______ _______ _______ _____ _____    ______ ____
ROOT
ATOM      1  N   UNL     1     -11.162  12.728  67.477  0.00  0.00    -0.287 N 
ATOM      2  C   UNL     1     -10.906  12.432  66.099  0.00  0.00    +0.048 A 
ATOM      3  C   UNL     1     -10.298  11.269  65.642  0.00  0.00    -0.008 A 
ATOM      4  C   UNL     1     -10.321  11.009  64.291  0.00  0.00    -0.003 A 
ATOM      5  C   UNL     1     -11.186  11.693  63.449  0.00  0.00    -0.000 A 
ATOM      6  C   UNL     1     -11.978  12.721  63.938  0.00  0.00    +0.001 A 
ATOM      7  C   UNL     1      -9.757  10.148  66.468  0.00  0.00    +0.032 C 
ATOM      8  C   UNL     1     -10.815   9.557  67.373  0.00  0.00    +0.032 C 
ATOM      9  C   UNL     1     -11.076  10.416  68.569  0.00  0.00    -0.008 A 
ATOM     10  C   UNL     1     -11.174   9.687  69.744  0.00  0.00    -0.003 A 
ATOM     11  C   UNL     1     -11.782  10.297  70.828  0.00  0.00    -0.000 A 
ATOM     12  C   UNL     1     -12.266  11.586  70.708  0.00  0.00    +0.001 A 
ATOM     13  C   UNL     1     -11.799  12.361  69.677  0.00  0.00    +0.015 A 
ATOM     14  C   UNL     1     -11.680  13.163  65.220  0.00  0.00    +0.015 A 
ATOM     15  C   UNL     1     -11.170  11.803  68.572  0.00  0.00    +0.048 A 
ENDROOT
BRANCH   1  16
ATOM     16  C   UNL     1     -11.978  13.919  67.667  0.00  0.00    +0.097 C 
BRANCH  16  17
ATOM     17  C   UNL     1     -11.196  15.186  67.434  0.00  0.00    +0.041 C 
BRANCH  17  18
ATOM     18  C   UNL     1     -10.892  15.771  68.807  0.00  0.00    +0.091 C 
BRANCH  18  20
ATOM     19  C   UNL     1     -11.952  15.905  70.951  0.00  0.00    +0.107 C 
ATOM     20  N   UNL     1     -12.130  15.994  69.514  0.00  0.00    -0.216 NA
ENDBRANCH  18  20
ENDBRANCH  17  18
ENDBRANCH  16  17
ENDBRANCH   1  16
TORSDOF 4
ENDMDL
MODEL 8
REMARK VINA RESULT:      -5.8      2.578      5.473
REMARK  Name = 
REMARK  4 active torsions:
REMARK  status: ('A' for Active; 'I' for Inactive)
REMARK    1  A    between atoms: N_2  and  C_3
REMARK    2  A    between atoms: C_3  and  C_4
REMARK    3  A    between atoms: C_4  and  C_5
REMARK    4  A    between atoms: C_5  and  N_6
REMARK                            x       y       z     vdW  Elec       q    Type
REMARK                         _______ _______ _______ _____ _____    ______ ____
ROOT
ATOM      1  N   UNL     1     -11.225  14.197  66.689  0.00  0.00    -0.287 N 
ATOM      2  C   UNL     1     -10.813  15.555  66.882  0.00  0.00    +0.048 A 
ATOM      3  C   UNL     1     -11.029  16.287  68.043  0.00  0.00    -0.008 A 
ATOM      4  C   UNL     1     -10.385  17.495  68.183  0.00  0.00    -0.003 A 
ATOM      5  C   UNL     1      -9.315  17.829  67.365  0.00  0.00    -0.000 A 
ATOM      6  C   UNL     1      -8.935  16.993  66.327  0.00  0.00    +0.001 A 
ATOM      7  C   UNL     1     -11.757  15.841  69.270  0.00  0.00    +0.032 C 
ATOM      8  C   UNL     1     -11.151  14.585  69.856  0.00  0.00    +0.032 C 
ATOM      9  C   UNL     1     -11.537  13.362  69.086  0.00  0.00    -0.008 A 
ATOM     10  C   UNL     1     -11.892  12.301  69.904  0.00  0.00    -0.003 A 
ATOM     11  C   UNL     1     -11.893  11.033  69.346  0.00  0.00    -0.000 A 
ATOM     12  C   UNL     1     -11.546  10.867  68.020  0.00  0.00    +0.001 A 
ATOM     13  C   UNL     1     -11.588  11.963  67.195  0.00  0.00    +0.015 A 
ATOM     14  C   UNL     1      -9.813  15.962  66.021  0.00  0.00    +0.015 A 
ATOM     15  C   UNL     1     -11.603  13.256  67.702  0.00  0.00    +0.048 A 
ENDROOT
BRANCH   1  16
ATOM     16  C   UNL     1     -10.708  13.609  65.460  0.00  0.00    +0.097 C 
BRANCH  16  17
ATOM     17  C   UNL     1     -11.716  13.656  64.340  0.00  0.00    +0.041 C 
BRANCH  17  18
ATOM     18  C   UNL     1     -11.509  12.394  63.513  0.00  0.00    +0.091 C 
BRANCH  18  20
ATOM     19  C   UNL     1      -9.932  10.596  63.401  0.00  0.00    +0.107 C 
ATOM     20  N   UNL     1     -10.113  12.027  63.546  0.00  0.00    -0.216 NA
ENDBRANCH  18  20
ENDBRANCH  17  18
ENDBRANCH  16  17
ENDBRANCH   1  16
TORSDOF 4
ENDMDL
MODEL 9
REMARK VINA RESULT:      -5.8      1.815      5.000
REMARK  Name = 
REMARK  4 active torsions:
REMARK  status: ('A' for Active; 'I' for Inactive)
REMARK    1  A    between atoms: N_2  and  C_3
REMARK    2  A    between atoms: C_3  and  C_4
REMARK    3  A    between atoms: C_4  and  C_5
REMARK    4  A    between atoms: C_5  and  N_6
REMARK                            x       y       z     vdW  Elec       q    Type
REMARK                         _______ _______ _______ _____ _____    ______ ____
ROOT
ATOM      1  N   UNL     1     -11.889  13.967  69.799  0.00  0.00    -0.287 N 
ATOM      2  C   UNL     1     -12.466  14.680  70.900  0.00  0.00    +0.048 A 
ATOM      3  C   UNL     1     -13.335  14.123  71.830  0.00  0.00    -0.008 A 
ATOM      4  C   UNL     1     -13.632  14.849  72.961  0.00  0.00    -0.003 A 
ATOM      5  C   UNL     1     -12.858  15.940  73.330  0.00  0.00    -0.000 A 
ATOM      6  C   UNL     1     -11.826  16.379  72.514  0.00  0.00    +0.001 A 
ATOM      7  C   UNL     1     -13.872  12.729  71.845  0.00  0.00    +0.032 C 
ATOM      8  C   UNL     1     -12.762  11.702  71.871  0.00  0.00    +0.032 C 
ATOM      9  C   UNL     1     -12.125  11.527  70.530  0.00  0.00    -0.008 A 
ATOM     10  C   UNL     1     -11.909  10.196  70.206  0.00  0.00    -0.003 A 
ATOM     11  C   UNL     1     -11.001   9.921  69.197  0.00  0.00    -0.000 A 
ATOM     12  C   UNL     1     -10.349  10.959  68.559  0.00  0.00    +0.001 A 
ATOM     13  C   UNL     1     -10.883  12.218  68.655  0.00  0.00    +0.015 A 
ATOM     14  C   UNL     1     -11.780  15.829  71.241  0.00  0.00    +0.015 A 
ATOM     15  C   UNL     1     -11.808  12.545  69.638  0.00  0.00    +0.048 A 
ENDROOT
BRANCH   1  16
ATOM     16  C   UNL     1     -10.868  14.729  69.093  0.00  0.00    +0.097 C 
BRANCH  16  17
ATOM     17  C   UNL     1     -11.429  15.460  67.900  0.00  0.00    +0.041 C 
BRANCH  17  18
ATOM     18  C   UNL     1     -10.407  16.521  67.517  0.00  0.00    +0.091 C 
BRANCH  18  20
ATOM     19  C   UNL     1     -10.621  18.884  67.188  0.00  0.00    +0.107 C 
ATOM     20  N   UNL     1     -10.780  17.780  68.115  0.00  0.00    -0.216 NA
ENDBRANCH  18  20
ENDBRANCH  17  18
ENDBRANCH  16  17
ENDBRANCH   1  16
TORSDOF 4
ENDMDL
