MODEL 1
REMARK VINA RESULT:      -6.8      0.000      0.000
REMARK  Name = 
REMARK  9 active torsions:
REMARK  status: ('A' for Active; 'I' for Inactive)
REMARK    1  A    between atoms: C_3  and  C_4
REMARK    2  A    between atoms: C_4  and  C_5
REMARK    3  A    between atoms: C_5  and  C_7
REMARK    4  A    between atoms: C_7  and  C_9
REMARK    5  A    between atoms: C_10  and  C_11
REMARK    6  A    between atoms: C_18  and  C_19
REMARK    7  A    between atoms: C_19  and  C_20
REMARK    8  A    between atoms: C_20  and  C_21
REMARK    9  A    between atoms: C_21  and  C_22
REMARK                            x       y       z     vdW  Elec       q    Type
REMARK                         _______ _______ _______ _____ _____    ______ ____
ROOT
ATOM      1  C   UNL     1     -11.038  14.387  65.957  0.00  0.00    +0.052 C 
ATOM      2  C   UNL     1      -9.983  13.394  65.158  0.00  0.00    +0.011 C 
ATOM      3  C   UNL     1     -11.059  12.115  64.976  0.00  0.00    +0.007 C 
ATOM      4  C   UNL     1     -11.777  12.373  66.401  0.00  0.00    +0.022 C 
ATOM      5  C   UNL     1     -10.707  12.449  67.291  0.00  0.00    -0.048 C 
ATOM      6  C   UNL     1     -10.934  12.314  68.585  0.00  0.00    -0.035 C 
ATOM      7  C   UNL     1     -12.086  12.972  64.109  0.00  0.00    +0.034 C 
ATOM      8  C   UNL     1      -9.464  12.811  66.566  0.00  0.00    +0.022 C 
ATOM      9  C   UNL     1     -12.229  14.473  64.740  0.00  0.00    +0.156 C 
ATOM     10  O   UNL     1     -13.377  13.971  65.701  0.00  0.00    -0.223 OA
ENDROOT
BRANCH   1  12
ATOM     11  C   UNL     1      -9.469  16.347  66.175  0.00  0.00    +0.002 C 
ATOM     12  C   UNL     1     -10.312  15.697  65.347  0.00  0.00    -0.026 C 
BRANCH  11  13
ATOM     13  C   UNL     1      -9.685  17.953  66.323  0.00  0.00    +0.175 C 
ATOM     14  O   UNL     1     -10.532  17.762  67.573  0.00  0.00    -0.218 OA
BRANCH  13  15
ATOM     15  C   UNL     1      -8.283  18.234  67.256  0.00  0.00    +0.048 C 
ATOM     16  C   UNL     1      -7.310  18.086  65.974  0.00  0.00    +0.004 C 
BRANCH  15  17
ATOM     17  C   UNL     1      -8.455  19.836  67.106  0.00  0.00    +0.079 C 
BRANCH  17  20
ATOM     18  C   UNL     1      -5.204  20.877  68.901  0.00  0.00    +0.090 C 
ATOM     19  C   UNL     1      -6.197  20.730  68.230  0.00  0.00    -0.090 C 
ATOM     20  C   UNL     1      -7.234  20.458  67.645  0.00  0.00    -0.091 C 
ENDBRANCH  17  20
ENDBRANCH  15  17
ENDBRANCH  13  15
ENDBRANCH  11  13
ENDBRANCH   1  12
BRANCH   6  21
ATOM     21  C   UNL     1     -12.131  12.843  69.261  0.00  0.00    +0.026 C 
BRANCH  21  22
ATOM     22  C   UNL     1     -12.116  14.171  69.855  0.00  0.00    +0.016 C 
BRANCH  22  23
ATOM     23  C   UNL     1     -12.396  14.430  71.249  0.00  0.00    +0.114 C 
BRANCH  23  24
ATOM     24  C   UNL     1     -13.777  14.397  71.718  0.00  0.00    +0.365 C 
ATOM     25  O   UNL     1     -14.439  15.624  71.745  0.00  0.00    -0.246 OA
ATOM     26  O   UNL     1     -14.175  13.535  72.527  0.00  0.00    -0.246 OA
ENDBRANCH  23  24
ENDBRANCH  22  23
ENDBRANCH  21  22
ENDBRANCH   6  21
TORSDOF 9
ENDMDL
MODEL 2
REMARK VINA RESULT:      -6.7      2.172      6.809
REMARK  Name = 
REMARK  9 active torsions:
REMARK  status: ('A' for Active; 'I' for Inactive)
REMARK    1  A    between atoms: C_3  and  C_4
REMARK    2  A    between atoms: C_4  and  C_5
REMARK    3  A    between atoms: C_5  and  C_7
REMARK    4  A    between atoms: C_7  and  C_9
REMARK    5  A    between atoms: C_10  and  C_11
REMARK    6  A    between atoms: C_18  and  C_19
REMARK    7  A    between atoms: C_19  and  C_20
REMARK    8  A    between atoms: C_20  and  C_21
REMARK    9  A    between atoms: C_21  and  C_22
REMARK                            x       y       z     vdW  Elec       q    Type
REMARK                         _______ _______ _______ _____ _____    ______ ____
ROOT
ATOM      1  C   UNL     1     -10.030  16.117  67.908  0.00  0.00    +0.052 C 
ATOM      2  C   UNL     1      -8.617  16.574  68.640  0.00  0.00    +0.011 C 
ATOM      3  C   UNL     1      -7.742  16.757  67.216  0.00  0.00    +0.007 C 
ATOM      4  C   UNL     1      -8.483  15.528  66.472  0.00  0.00    +0.022 C 
ATOM      5  C   UNL     1      -8.380  14.486  67.393  0.00  0.00    -0.048 C 
ATOM      6  C   UNL     1      -8.575  13.245  66.986  0.00  0.00    -0.035 C 
ATOM      7  C   UNL     1      -8.700  17.901  66.655  0.00  0.00    +0.034 C 
ATOM      8  C   UNL     1      -8.179  15.030  68.759  0.00  0.00    +0.022 C 
ATOM      9  C   UNL     1     -10.259  17.521  66.968  0.00  0.00    +0.156 C 
ATOM     10  O   UNL     1     -10.345  16.712  65.616  0.00  0.00    -0.223 OA
ENDROOT
BRANCH   1  12
ATOM     11  C   UNL     1     -10.983  16.044  70.239  0.00  0.00    +0.002 C 
ATOM     12  C   UNL     1     -10.895  16.772  69.107  0.00  0.00    -0.026 C 
BRANCH  11  13
ATOM     13  C   UNL     1     -12.477  15.806  70.840  0.00  0.00    +0.175 C 
ATOM     14  O   UNL     1     -12.747  14.699  69.830  0.00  0.00    -0.218 OA
BRANCH  13  15
ATOM     15  C   UNL     1     -12.009  14.674  72.029  0.00  0.00    +0.048 C 
ATOM     16  C   UNL     1     -12.362  15.686  73.238  0.00  0.00    +0.004 C 
BRANCH  15  17
ATOM     17  C   UNL     1     -13.473  13.983  72.005  0.00  0.00    +0.079 C 
BRANCH  17  20
ATOM     18  C   UNL     1     -13.231  10.158  71.586  0.00  0.00    +0.090 C 
ATOM     19  C   UNL     1     -13.203  11.324  71.898  0.00  0.00    -0.090 C 
ATOM     20  C   UNL     1     -13.271  12.528  72.091  0.00  0.00    -0.091 C 
ENDBRANCH  17  20
ENDBRANCH  15  17
ENDBRANCH  13  15
ENDBRANCH  11  13
ENDBRANCH   1  12
BRANCH   6  21
ATOM     21  C   UNL     1      -9.579  12.867  65.977  0.00  0.00    +0.026 C 
BRANCH  21  22
ATOM     22  C   UNL     1     -10.956  12.610  66.367  0.00  0.00    +0.016 C 
BRANCH  22  23
ATOM     23  C   UNL     1     -12.031  13.561  66.193  0.00  0.00    +0.114 C 
BRANCH  23  24
ATOM     24  C   UNL     1     -12.756  13.596  64.928  0.00  0.00    +0.365 C 
ATOM     25  O   UNL     1     -13.227  12.368  64.464  0.00  0.00    -0.246 OA
ATOM     26  O   UNL     1     -12.523  14.463  64.062  0.00  0.00    -0.246 OA
ENDBRANCH  23  24
ENDBRANCH  22  23
ENDBRANCH  21  22
ENDBRANCH   6  21
TORSDOF 9
ENDMDL
MODEL 3
REMARK VINA RESULT:      -6.1      3.484      6.917
REMARK  Name = 
REMARK  9 active torsions:
REMARK  status: ('A' for Active; 'I' for Inactive)
REMARK    1  A    between atoms: C_3  and  C_4
REMARK    2  A    between atoms: C_4  and  C_5
REMARK    3  A    between atoms: C_5  and  C_7
REMARK    4  A    between atoms: C_7  and  C_9
REMARK    5  A    between atoms: C_10  and  C_11
REMARK    6  A    between atoms: C_18  and  C_19
REMARK    7  A    between atoms: C_19  and  C_20
REMARK    8  A    between atoms: C_20  and  C_21
REMARK    9  A    between atoms: C_21  and  C_22
REMARK                            x       y       z     vdW  Elec       q    Type
REMARK                         _______ _______ _______ _____ _____    ______ ____
ROOT
ATOM      1  C   UNL     1     -10.056  13.305  67.081  0.00  0.00    +0.052 C 
ATOM      2  C   UNL     1     -11.280  12.369  66.478  0.00  0.00    +0.011 C 
ATOM      3  C   UNL     1     -12.307  13.650  66.115  0.00  0.00    +0.007 C 
ATOM      4  C   UNL     1     -11.849  14.525  67.393  0.00  0.00    +0.022 C 
ATOM      5  C   UNL     1     -11.967  13.629  68.455  0.00  0.00    -0.048 C 
ATOM      6  C   UNL     1     -12.000  14.095  69.690  0.00  0.00    -0.035 C 
ATOM      7  C   UNL     1     -11.287  14.307  65.081  0.00  0.00    +0.034 C 
ATOM      8  C   UNL     1     -11.905  12.234  67.954  0.00  0.00    +0.022 C 
ATOM      9  C   UNL     1      -9.766  14.228  65.676  0.00  0.00    +0.156 C 
ATOM     10  O   UNL     1      -9.976  15.601  66.425  0.00  0.00    -0.223 OA
ENDROOT
BRANCH   1  12
ATOM     11  C   UNL     1      -9.417  10.982  66.344  0.00  0.00    +0.002 C 
ATOM     12  C   UNL     1      -8.954  12.222  66.603  0.00  0.00    -0.026 C 
BRANCH  11  13
ATOM     13  C   UNL     1      -8.635   9.747  67.059  0.00  0.00    +0.175 C 
ATOM     14  O   UNL     1      -8.267  10.620  68.251  0.00  0.00    -0.218 OA
BRANCH  13  15
ATOM     15  C   UNL     1     -10.000   9.124  67.874  0.00  0.00    +0.048 C 
ATOM     16  C   UNL     1     -10.275   8.021  66.726  0.00  0.00    +0.004 C 
BRANCH  15  17
ATOM     17  C   UNL     1      -9.070   8.150  68.772  0.00  0.00    +0.079 C 
BRANCH  17  20
ATOM     18  C   UNL     1     -11.813   6.532  70.946  0.00  0.00    +0.090 C 
ATOM     19  C   UNL     1     -10.832   7.018  70.436  0.00  0.00    -0.090 C 
ATOM     20  C   UNL     1      -9.934   7.545  69.799  0.00  0.00    -0.091 C 
ENDBRANCH  17  20
ENDBRANCH  15  17
ENDBRANCH  13  15
ENDBRANCH  11  13
ENDBRANCH   1  12
BRANCH   6  21
ATOM     21  C   UNL     1     -11.204  15.246  70.149  0.00  0.00    +0.026 C 
BRANCH  21  22
ATOM     22  C   UNL     1     -11.659  16.058  71.266  0.00  0.00    +0.016 C 
BRANCH  22  23
ATOM     23  C   UNL     1     -12.061  15.514  72.544  0.00  0.00    +0.114 C 
BRANCH  23  24
ATOM     24  C   UNL     1     -13.463  15.187  72.771  0.00  0.00    +0.365 C 
ATOM     25  O   UNL     1     -13.775  13.828  72.789  0.00  0.00    -0.246 OA
ATOM     26  O   UNL     1     -14.382  15.961  72.433  0.00  0.00    -0.246 OA
ENDBRANCH  23  24
ENDBRANCH  22  23
ENDBRANCH  21  22
ENDBRANCH   6  21
TORSDOF 9
ENDMDL
MODEL 4
REMARK VINA RESULT:      -6.1      1.866      2.122
REMARK  Name = 
REMARK  9 active torsions:
REMARK  status: ('A' for Active; 'I' for Inactive)
REMARK    1  A    between atoms: C_3  and  C_4
REMARK    2  A    between atoms: C_4  and  C_5
REMARK    3  A    between atoms: C_5  and  C_7
REMARK    4  A    between atoms: C_7  and  C_9
REMARK    5  A    between atoms: C_10  and  C_11
REMARK    6  A    between atoms: C_18  and  C_19
REMARK    7  A    between atoms: C_19  and  C_20
REMARK    8  A    between atoms: C_20  and  C_21
REMARK    9  A    between atoms: C_21  and  C_22
REMARK                            x       y       z     vdW  Elec       q    Type
REMARK                         _______ _______ _______ _____ _____    ______ ____
ROOT
ATOM      1  C   UNL     1     -10.895  13.866  65.582  0.00  0.00    +0.052 C 
ATOM      2  C   UNL     1      -9.997  13.000  64.495  0.00  0.00    +0.011 C 
ATOM      3  C   UNL     1     -11.224  11.927  64.080  0.00  0.00    +0.007 C 
ATOM      4  C   UNL     1     -11.849  11.894  65.569  0.00  0.00    +0.022 C 
ATOM      5  C   UNL     1     -10.743  11.632  66.376  0.00  0.00    -0.048 C 
ATOM      6  C   UNL     1     -10.933  11.202  67.610  0.00  0.00    -0.035 C 
ATOM      7  C   UNL     1     -12.176  13.077  63.519  0.00  0.00    +0.034 C 
ATOM      8  C   UNL     1      -9.496  12.032  65.678  0.00  0.00    +0.022 C 
ATOM      9  C   UNL     1     -12.116  14.378  64.507  0.00  0.00    +0.156 C 
ATOM     10  O   UNL     1     -13.275  13.775  65.392  0.00  0.00    -0.223 OA
ENDROOT
BRANCH   1  12
ATOM     11  C   UNL     1      -9.576  15.877  66.333  0.00  0.00    +0.002 C 
ATOM     12  C   UNL     1     -10.045  15.203  65.262  0.00  0.00    -0.026 C 
BRANCH  11  13
ATOM     13  C   UNL     1      -9.886  17.474  66.382  0.00  0.00    +0.175 C 
ATOM     14  O   UNL     1     -10.734  17.310  67.635  0.00  0.00    -0.218 OA
BRANCH  13  15
ATOM     15  C   UNL     1      -8.513  17.892  67.307  0.00  0.00    +0.048 C 
ATOM     16  C   UNL     1      -7.536  17.830  66.021  0.00  0.00    +0.004 C 
BRANCH  15  17
ATOM     17  C   UNL     1      -8.836  19.469  67.151  0.00  0.00    +0.079 C 
BRANCH  17  20
ATOM     18  C   UNL     1      -5.519  21.427  67.345  0.00  0.00    +0.090 C 
ATOM     19  C   UNL     1      -6.563  20.837  67.494  0.00  0.00    -0.090 C 
ATOM     20  C   UNL     1      -7.607  20.203  67.491  0.00  0.00    -0.091 C 
ENDBRANCH  17  20
ENDBRANCH  15  17
ENDBRANCH  13  15
ENDBRANCH  11  13
ENDBRANCH   1  12
BRANCH   6  21
ATOM     21  C   UNL     1     -12.031  11.666  68.475  0.00  0.00    +0.026 C 
BRANCH  21  22
ATOM     22  C   UNL     1     -11.769  12.062  69.850  0.00  0.00    +0.016 C 
BRANCH  22  23
ATOM     23  C   UNL     1     -12.400  11.448  70.997  0.00  0.00    +0.114 C 
BRANCH  23  24
ATOM     24  C   UNL     1     -12.349   9.999  71.149  0.00  0.00    +0.365 C 
ATOM     25  O   UNL     1     -13.569   9.371  71.395  0.00  0.00    -0.246 OA
ATOM     26  O   UNL     1     -11.331   9.420  71.580  0.00  0.00    -0.246 OA
ENDBRANCH  23  24
ENDBRANCH  22  23
ENDBRANCH  21  22
ENDBRANCH   6  21
TORSDOF 9
ENDMDL
MODEL 5
REMARK VINA RESULT:      -6.0      2.994      8.666
REMARK  Name = 
REMARK  9 active torsions:
REMARK  status: ('A' for Active; 'I' for Inactive)
REMARK    1  A    between atoms: C_3  and  C_4
REMARK    2  A    between atoms: C_4  and  C_5
REMARK    3  A    between atoms: C_5  and  C_7
REMARK    4  A    between atoms: C_7  and  C_9
REMARK    5  A    between atoms: C_10  and  C_11
REMARK    6  A    between atoms: C_18  and  C_19
REMARK    7  A    between atoms: C_19  and  C_20
REMARK    8  A    between atoms: C_20  and  C_21
REMARK    9  A    between atoms: C_21  and  C_22
REMARK                            x       y       z     vdW  Elec       q    Type
REMARK                         _______ _______ _______ _____ _____    ______ ____
ROOT
ATOM      1  C   UNL     1      -9.046  17.886  67.673  0.00  0.00    +0.052 C 
ATOM      2  C   UNL     1      -9.151  19.136  68.752  0.00  0.00    +0.011 C 
ATOM      3  C   UNL     1      -9.424  20.330  67.601  0.00  0.00    +0.007 C 
ATOM      4  C   UNL     1      -8.465  19.641  66.498  0.00  0.00    +0.022 C 
ATOM      5  C   UNL     1      -7.284  19.407  67.200  0.00  0.00    -0.048 C 
ATOM      6  C   UNL     1      -6.172  19.167  66.530  0.00  0.00    -0.035 C 
ATOM      7  C   UNL     1     -10.780  19.667  67.089  0.00  0.00    +0.034 C 
ATOM      8  C   UNL     1      -7.559  19.351  68.657  0.00  0.00    +0.022 C 
ATOM      9  C   UNL     1     -10.604  18.044  66.996  0.00  0.00    +0.156 C 
ATOM     10  O   UNL     1     -10.050  18.177  65.524  0.00  0.00    -0.223 OA
ENDROOT
BRANCH   1  12
ATOM     11  C   UNL     1      -9.164  15.585  68.693  0.00  0.00    +0.002 C 
ATOM     12  C   UNL     1      -9.624  16.850  68.773  0.00  0.00    -0.026 C 
BRANCH  11  13
ATOM     13  C   UNL     1     -10.282  14.402  68.681  0.00  0.00    +0.175 C 
ATOM     14  O   UNL     1     -11.412  15.415  68.801  0.00  0.00    -0.218 OA
BRANCH  13  15
ATOM     15  C   UNL     1     -10.453  14.339  66.983  0.00  0.00    +0.048 C 
ATOM     16  C   UNL     1      -9.281  13.238  66.831  0.00  0.00    +0.004 C 
BRANCH  15  17
ATOM     17  C   UNL     1     -11.643  13.249  67.103  0.00  0.00    +0.079 C 
BRANCH  17  20
ATOM     18  C   UNL     1     -12.428  12.086  63.510  0.00  0.00    +0.090 C 
ATOM     19  C   UNL     1     -12.353  12.572  64.614  0.00  0.00    -0.090 C 
ATOM     20  C   UNL     1     -12.137  12.991  65.741  0.00  0.00    -0.091 C 
ENDBRANCH  17  20
ENDBRANCH  15  17
ENDBRANCH  13  15
ENDBRANCH  11  13
ENDBRANCH   1  12
BRANCH   6  21
ATOM     21  C   UNL     1      -6.125  18.385  65.283  0.00  0.00    +0.026 C 
BRANCH  21  22
ATOM     22  C   UNL     1      -5.777  19.025  64.024  0.00  0.00    +0.016 C 
BRANCH  22  23
ATOM     23  C   UNL     1      -5.893  20.446  63.786  0.00  0.00    +0.114 C 
BRANCH  23  24
ATOM     24  C   UNL     1      -5.752  20.957  62.428  0.00  0.00    +0.365 C 
ATOM     25  O   UNL     1      -6.376  22.177  62.169  0.00  0.00    -0.246 OA
ATOM     26  O   UNL     1      -5.601  20.195  61.451  0.00  0.00    -0.246 OA
ENDBRANCH  23  24
ENDBRANCH  22  23
ENDBRANCH  21  22
ENDBRANCH   6  21
TORSDOF 9
ENDMDL
MODEL 6
REMARK VINA RESULT:      -6.0      3.058      7.154
REMARK  Name = 
REMARK  9 active torsions:
REMARK  status: ('A' for Active; 'I' for Inactive)
REMARK    1  A    between atoms: C_3  and  C_4
REMARK    2  A    between atoms: C_4  and  C_5
REMARK    3  A    between atoms: C_5  and  C_7
REMARK    4  A    between atoms: C_7  and  C_9
REMARK    5  A    between atoms: C_10  and  C_11
REMARK    6  A    between atoms: C_18  and  C_19
REMARK    7  A    between atoms: C_19  and  C_20
REMARK    8  A    between atoms: C_20  and  C_21
REMARK    9  A    between atoms: C_21  and  C_22
REMARK                            x       y       z     vdW  Elec       q    Type
REMARK                         _______ _______ _______ _____ _____    ______ ____
ROOT
ATOM      1  C   UNL     1      -9.578  13.688  67.614  0.00  0.00    +0.052 C 
ATOM      2  C   UNL     1     -10.470  13.907  66.237  0.00  0.00    +0.011 C 
ATOM      3  C   UNL     1     -10.510  15.586  66.329  0.00  0.00    +0.007 C 
ATOM      4  C   UNL     1     -10.584  15.606  67.943  0.00  0.00    +0.022 C 
ATOM      5  C   UNL     1     -11.626  14.725  68.228  0.00  0.00    -0.048 C 
ATOM      6  C   UNL     1     -12.186  14.754  69.424  0.00  0.00    -0.035 C 
ATOM      7  C   UNL     1      -8.926  15.730  66.227  0.00  0.00    +0.034 C 
ATOM      8  C   UNL     1     -11.825  13.787  67.096  0.00  0.00    +0.022 C 
ATOM      9  C   UNL     1      -8.204  14.578  67.135  0.00  0.00    +0.156 C 
ATOM     10  O   UNL     1      -8.263  15.522  68.399  0.00  0.00    -0.223 OA
ENDROOT
BRANCH   1  12
ATOM     11  C   UNL     1      -9.681  11.227  67.083  0.00  0.00    +0.002 C 
ATOM     12  C   UNL     1      -8.922  12.340  67.009  0.00  0.00    -0.026 C 
BRANCH  11  13
ATOM     13  C   UNL     1      -8.977   9.905  67.721  0.00  0.00    +0.175 C 
ATOM     14  O   UNL     1      -8.845  10.584  69.078  0.00  0.00    -0.218 OA
BRANCH  13  15
ATOM     15  C   UNL     1     -10.430   9.141  68.190  0.00  0.00    +0.048 C 
ATOM     16  C   UNL     1     -10.504   8.279  66.825  0.00  0.00    +0.004 C 
BRANCH  15  17
ATOM     17  C   UNL     1      -9.617   8.011  69.015  0.00  0.00    +0.079 C 
BRANCH  17  20
ATOM     18  C   UNL     1     -12.436   6.825  71.365  0.00  0.00    +0.090 C 
ATOM     19  C   UNL     1     -11.426   7.156  70.792  0.00  0.00    -0.090 C 
ATOM     20  C   UNL     1     -10.498   7.542  70.097  0.00  0.00    -0.091 C 
ENDBRANCH  17  20
ENDBRANCH  15  17
ENDBRANCH  13  15
ENDBRANCH  11  13
ENDBRANCH   1  12
BRANCH   6  21
ATOM     21  C   UNL     1     -11.437  14.996  70.669  0.00  0.00    +0.026 C 
BRANCH  21  22
ATOM     22  C   UNL     1     -11.853  16.044  71.588  0.00  0.00    +0.016 C 
BRANCH  22  23
ATOM     23  C   UNL     1     -12.751  15.826  72.700  0.00  0.00    +0.114 C 
BRANCH  23  24
ATOM     24  C   UNL     1     -14.032  15.171  72.466  0.00  0.00    +0.365 C 
ATOM     25  O   UNL     1     -14.054  13.791  72.663  0.00  0.00    -0.246 OA
ATOM     26  O   UNL     1     -14.866  15.628  71.657  0.00  0.00    -0.246 OA
ENDBRANCH  23  24
ENDBRANCH  22  23
ENDBRANCH  21  22
ENDBRANCH   6  21
TORSDOF 9
ENDMDL
MODEL 7
REMARK VINA RESULT:      -5.9      2.563      7.386
REMARK  Name = 
REMARK  9 active torsions:
REMARK  status: ('A' for Active; 'I' for Inactive)
REMARK    1  A    between atoms: C_3  and  C_4
REMARK    2  A    between atoms: C_4  and  C_5
REMARK    3  A    between atoms: C_5  and  C_7
REMARK    4  A    between atoms: C_7  and  C_9
REMARK    5  A    between atoms: C_10  and  C_11
REMARK    6  A    between atoms: C_18  and  C_19
REMARK    7  A    between atoms: C_19  and  C_20
REMARK    8  A    between atoms: C_20  and  C_21
REMARK    9  A    between atoms: C_21  and  C_22
REMARK                            x       y       z     vdW  Elec       q    Type
REMARK                         _______ _______ _______ _____ _____    ______ ____
ROOT
ATOM      1  C   UNL     1      -9.228  17.880  67.998  0.00  0.00    +0.052 C 
ATOM      2  C   UNL     1      -9.602  19.309  68.743  0.00  0.00    +0.011 C 
ATOM      3  C   UNL     1      -9.463  20.260  67.363  0.00  0.00    +0.007 C 
ATOM      4  C   UNL     1      -8.246  19.391  66.753  0.00  0.00    +0.022 C 
ATOM      5  C   UNL     1      -7.343  19.313  67.812  0.00  0.00    -0.048 C 
ATOM      6  C   UNL     1      -6.091  18.969  67.569  0.00  0.00    -0.035 C 
ATOM      7  C   UNL     1     -10.627  19.489  66.594  0.00  0.00    +0.034 C 
ATOM      8  C   UNL     1      -8.048  19.529  69.100  0.00  0.00    +0.022 C 
ATOM      9  C   UNL     1     -10.500  17.882  66.862  0.00  0.00    +0.156 C 
ATOM     10  O   UNL     1      -9.522  17.743  65.631  0.00  0.00    -0.223 OA
ENDROOT
BRANCH   1  12
ATOM     11  C   UNL     1      -9.748  15.811  69.339  0.00  0.00    +0.002 C 
ATOM     12  C   UNL     1     -10.155  17.062  69.041  0.00  0.00    -0.026 C 
BRANCH  11  13
ATOM     13  C   UNL     1     -10.860  14.630  69.206  0.00  0.00    +0.175 C 
ATOM     14  O   UNL     1     -11.941  15.638  68.838  0.00  0.00    -0.218 OA
BRANCH  13  15
ATOM     15  C   UNL     1     -10.554  14.285  67.562  0.00  0.00    +0.048 C 
ATOM     16  C   UNL     1      -9.489  13.126  67.927  0.00  0.00    +0.004 C 
BRANCH  15  17
ATOM     17  C   UNL     1     -11.822  13.282  67.494  0.00  0.00    +0.079 C 
BRANCH  17  20
ATOM     18  C   UNL     1     -12.100  12.243  63.791  0.00  0.00    +0.090 C 
ATOM     19  C   UNL     1     -12.184  12.684  64.911  0.00  0.00    -0.090 C 
ATOM     20  C   UNL     1     -12.130  13.063  66.072  0.00  0.00    -0.091 C 
ENDBRANCH  17  20
ENDBRANCH  15  17
ENDBRANCH  13  15
ENDBRANCH  11  13
ENDBRANCH   1  12
BRANCH   6  21
ATOM     21  C   UNL     1      -5.703  17.967  66.563  0.00  0.00    +0.026 C 
BRANCH  21  22
ATOM     22  C   UNL     1      -5.428  16.594  66.958  0.00  0.00    +0.016 C 
BRANCH  22  23
ATOM     23  C   UNL     1      -6.439  15.678  67.437  0.00  0.00    +0.114 C 
BRANCH  23  24
ATOM     24  C   UNL     1      -6.030  14.440  68.090  0.00  0.00    +0.365 C 
ATOM     25  O   UNL     1      -5.834  13.346  67.248  0.00  0.00    -0.246 OA
ATOM     26  O   UNL     1      -6.349  14.182  69.268  0.00  0.00    -0.246 OA
ENDBRANCH  23  24
ENDBRANCH  22  23
ENDBRANCH  21  22
ENDBRANCH   6  21
TORSDOF 9
ENDMDL
MODEL 8
REMARK VINA RESULT:      -5.9      2.464      7.360
REMARK  Name = 
REMARK  9 active torsions:
REMARK  status: ('A' for Active; 'I' for Inactive)
REMARK    1  A    between atoms: C_3  and  C_4
REMARK    2  A    between atoms: C_4  and  C_5
REMARK    3  A    between atoms: C_5  and  C_7
REMARK    4  A    between atoms: C_7  and  C_9
REMARK    5  A    between atoms: C_10  and  C_11
REMARK    6  A    between atoms: C_18  and  C_19
REMARK    7  A    between atoms: C_19  and  C_20
REMARK    8  A    between atoms: C_20  and  C_21
REMARK    9  A    between atoms: C_21  and  C_22
REMARK                            x       y       z     vdW  Elec       q    Type
REMARK                         _______ _______ _______ _____ _____    ______ ____
ROOT
ATOM      1  C   UNL     1     -10.938  15.516  67.483  0.00  0.00    +0.052 C 
ATOM      2  C   UNL     1      -9.791  14.356  67.761  0.00  0.00    +0.011 C 
ATOM      3  C   UNL     1      -9.045  15.160  69.035  0.00  0.00    +0.007 C 
ATOM      4  C   UNL     1      -9.285  16.625  68.398  0.00  0.00    +0.022 C 
ATOM      5  C   UNL     1      -8.807  16.491  67.095  0.00  0.00    -0.048 C 
ATOM      6  C   UNL     1      -8.534  17.576  66.394  0.00  0.00    -0.035 C 
ATOM      7  C   UNL     1     -10.356  15.149  69.941  0.00  0.00    +0.034 C 
ATOM      8  C   UNL     1      -8.817  15.063  66.692  0.00  0.00    +0.022 C 
ATOM      9  C   UNL     1     -11.668  15.482  69.024  0.00  0.00    +0.156 C 
ATOM     10  O   UNL     1     -11.453  17.028  69.259  0.00  0.00    -0.223 OA
ENDROOT
BRANCH   1  12
ATOM     11  C   UNL     1     -11.467  13.175  66.714  0.00  0.00    +0.002 C 
ATOM     12  C   UNL     1     -11.982  14.397  66.959  0.00  0.00    -0.026 C 
BRANCH  11  13
ATOM     13  C   UNL     1     -11.811  12.514  65.268  0.00  0.00    +0.175 C 
ATOM     14  O   UNL     1     -11.699  13.867  64.580  0.00  0.00    -0.218 OA
BRANCH  13  15
ATOM     15  C   UNL     1     -10.199  12.120  64.866  0.00  0.00    +0.048 C 
ATOM     16  C   UNL     1     -10.289  10.682  65.596  0.00  0.00    +0.004 C 
BRANCH  15  17
ATOM     17  C   UNL     1     -10.654  11.560  63.417  0.00  0.00    +0.079 C 
BRANCH  17  20
ATOM     18  C   UNL     1      -7.425  10.981  61.390  0.00  0.00    +0.090 C 
ATOM     19  C   UNL     1      -8.410  10.963  62.088  0.00  0.00    -0.090 C 
ATOM     20  C   UNL     1      -9.441  11.086  62.732  0.00  0.00    -0.091 C 
ENDBRANCH  17  20
ENDBRANCH  15  17
ENDBRANCH  13  15
ENDBRANCH  11  13
ENDBRANCH   1  12
BRANCH   6  21
ATOM     21  C   UNL     1      -9.330  18.813  66.464  0.00  0.00    +0.026 C 
BRANCH  21  22
ATOM     22  C   UNL     1      -8.776  20.013  67.072  0.00  0.00    +0.016 C 
BRANCH  22  23
ATOM     23  C   UNL     1      -7.368  20.341  67.064  0.00  0.00    +0.114 C 
BRANCH  23  24
ATOM     24  C   UNL     1      -6.591  20.181  68.287  0.00  0.00    +0.365 C 
ATOM     25  O   UNL     1      -7.209  19.463  69.310  0.00  0.00    -0.246 OA
ATOM     26  O   UNL     1      -5.737  21.021  68.637  0.00  0.00    -0.246 OA
ENDBRANCH  23  24
ENDBRANCH  22  23
ENDBRANCH  21  22
ENDBRANCH   6  21
TORSDOF 9
ENDMDL
MODEL 9
REMARK VINA RESULT:      -5.9      2.895      7.993
REMARK  Name = 
REMARK  9 active torsions:
REMARK  status: ('A' for Active; 'I' for Inactive)
REMARK    1  A    between atoms: C_3  and  C_4
REMARK    2  A    between atoms: C_4  and  C_5
REMARK    3  A    between atoms: C_5  and  C_7
REMARK    4  A    between atoms: C_7  and  C_9
REMARK    5  A    between atoms: C_10  and  C_11
REMARK    6  A    between atoms: C_18  and  C_19
REMARK    7  A    between atoms: C_19  and  C_20
REMARK    8  A    between atoms: C_20  and  C_21
REMARK    9  A    between atoms: C_21  and  C_22
REMARK                            x       y       z     vdW  Elec       q    Type
REMARK                         _______ _______ _______ _____ _____    ______ ____
ROOT
ATOM      1  C   UNL     1      -8.788  17.695  66.890  0.00  0.00    +0.052 C 
ATOM      2  C   UNL     1      -9.916  17.421  68.070  0.00  0.00    +0.011 C 
ATOM      3  C   UNL     1      -9.864  18.973  68.715  0.00  0.00    +0.007 C 
ATOM      4  C   UNL     1      -8.281  19.152  68.446  0.00  0.00    +0.022 C 
ATOM      5  C   UNL     1      -7.729  17.996  68.995  0.00  0.00    -0.048 C 
ATOM      6  C   UNL     1      -6.435  17.961  69.257  0.00  0.00    -0.035 C 
ATOM      7  C   UNL     1     -10.348  19.661  67.361  0.00  0.00    +0.034 C 
ATOM      8  C   UNL     1      -8.753  16.924  69.066  0.00  0.00    +0.022 C 
ATOM      9  C   UNL     1      -9.609  18.956  66.085  0.00  0.00    +0.156 C 
ATOM     10  O   UNL     1      -8.395  19.955  66.222  0.00  0.00    -0.223 OA
ENDROOT
BRANCH   1  12
ATOM     11  C   UNL     1     -10.428  15.823  66.497  0.00  0.00    +0.002 C 
ATOM     12  C   UNL     1      -9.496  16.610  65.922  0.00  0.00    -0.026 C 
BRANCH  11  13
ATOM     13  C   UNL     1     -10.275  14.220  66.264  0.00  0.00    +0.175 C 
ATOM     14  O   UNL     1      -9.428  14.079  67.521  0.00  0.00    -0.218 OA
BRANCH  13  15
ATOM     15  C   UNL     1     -11.692  13.782  67.110  0.00  0.00    +0.048 C 
ATOM     16  C   UNL     1     -12.609  13.901  65.785  0.00  0.00    +0.004 C 
BRANCH  15  17
ATOM     17  C   UNL     1     -11.375  12.208  66.909  0.00  0.00    +0.079 C 
BRANCH  17  20
ATOM     18  C   UNL     1     -12.438  10.562  70.230  0.00  0.00    +0.090 C 
ATOM     19  C   UNL     1     -11.908  11.033  69.252  0.00  0.00    -0.090 C 
ATOM     20  C   UNL     1     -11.516  11.563  68.224  0.00  0.00    -0.091 C 
ENDBRANCH  17  20
ENDBRANCH  15  17
ENDBRANCH  13  15
ENDBRANCH  11  13
ENDBRANCH   1  12
BRANCH   6  21
ATOM     21  C   UNL     1      -5.414  18.596  68.406  0.00  0.00    +0.026 C 
BRANCH  21  22
ATOM     22  C   UNL     1      -4.789  19.845  68.813  0.00  0.00    +0.016 C 
BRANCH  22  23
ATOM     23  C   UNL     1      -5.308  20.701  69.856  0.00  0.00    +0.114 C 
BRANCH  23  24
ATOM     24  C   UNL     1      -4.559  20.847  71.099  0.00  0.00    +0.365 C 
ATOM     25  O   UNL     1      -4.554  19.734  71.939  0.00  0.00    -0.246 OA
ATOM     26  O   UNL     1      -4.410  21.957  71.649  0.00  0.00    -0.246 OA
ENDBRANCH  23  24
ENDBRANCH  22  23
ENDBRANCH  21  22
ENDBRANCH   6  21
TORSDOF 9
ENDMDL
