MODEL 1
REMARK VINA RESULT:      -9.0      0.000      0.000
REMARK  Name = 
REMARK  6 active torsions:
REMARK  status: ('A' for Active; 'I' for Inactive)
REMARK    1  A    between atoms: C_2  and  C_5
REMARK    2  A    between atoms: C_5  and  N_6
REMARK    3  A    between atoms: N_10  and  C_11
REMARK    4  A    between atoms: C_15  and  C_16
REMARK    5  A    between atoms: C_22  and  C_23
REMARK    6  A    between atoms: C_27  and  C_28
REMARK                            x       y       z     vdW  Elec       q    Type
REMARK                         _______ _______ _______ _____ _____    ______ ____
ROOT
ATOM      1  N   UNL     1     -10.226  15.058  65.025  0.00  0.00    -0.201 NA
ATOM      2  C   UNL     1      -9.294  15.462  66.038  0.00  0.00    +0.240 A 
ATOM      3  N   UNL     1      -8.457  16.509  65.833  0.00  0.00    -0.192 NA
ATOM      4  C   UNL     1      -8.226  17.464  66.734  0.00  0.00    +0.186 A 
ATOM      5  N   UNL     1      -8.458  17.162  68.024  0.00  0.00    -0.191 NA
ATOM      6  C   UNL     1      -9.262  16.111  68.316  0.00  0.00    +0.245 A 
ATOM      7  N   UNL     1      -9.462  15.679  69.647  0.00  0.00    -0.177 NA
ATOM      8  N   UNL     1      -9.770  15.365  67.305  0.00  0.00    -0.178 NA
ENDROOT
BRANCH   4   9
ATOM      9  C   UNL     1      -7.805  18.811  66.321  0.00  0.00    +0.117 A 
ATOM     10  N   UNL     1      -7.168  19.036  65.173  0.00  0.00    -0.238 NA
ATOM     11  C   UNL     1      -6.439  20.173  65.077  0.00  0.00    +0.153 A 
ATOM     12  C   UNL     1      -6.153  20.956  66.188  0.00  0.00    +0.023 A 
ATOM     13  C   UNL     1      -6.963  20.839  67.310  0.00  0.00    +0.003 A 
ATOM     14  C   UNL     1      -7.932  19.843  67.245  0.00  0.00    +0.022 A 
BRANCH  11  15
ATOM     15  C   UNL     1      -5.962  20.708  63.767  0.00  0.00    +0.435 C 
ATOM     16  F   UNL     1      -4.766  21.369  63.996  0.00  0.00    -0.164 F 
ATOM     17  F   UNL     1      -5.673  19.675  62.890  0.00  0.00    -0.164 F 
ATOM     18  F   UNL     1      -6.880  21.594  63.261  0.00  0.00    -0.164 F 
ENDBRANCH  11  15
ENDBRANCH   4   9
BRANCH   7  19
ATOM     19  C   UNL     1     -10.658  15.111  70.139  0.00  0.00    +0.077 A 
ATOM     20  C   UNL     1     -11.306  15.773  71.171  0.00  0.00    +0.040 A 
ATOM     21  C   UNL     1     -12.488  15.325  71.719  0.00  0.00    +0.154 A 
ATOM     22  N   UNL     1     -13.153  14.349  71.079  0.00  0.00    -0.240 NA
ATOM     23  C   UNL     1     -12.669  13.872  69.927  0.00  0.00    +0.100 A 
ATOM     24  C   UNL     1     -11.405  14.177  69.444  0.00  0.00    +0.037 A 
BRANCH  21  25
ATOM     25  C   UNL     1     -12.880  15.825  73.058  0.00  0.00    +0.435 C 
ATOM     26  F   UNL     1     -12.727  14.839  74.004  0.00  0.00    -0.164 F 
ATOM     27  F   UNL     1     -14.187  16.241  73.058  0.00  0.00    -0.164 F 
ATOM     28  F   UNL     1     -12.067  16.878  73.394  0.00  0.00    -0.164 F 
ENDBRANCH  21  25
ENDBRANCH   7  19
BRANCH   1  29
ATOM     29  C   UNL     1     -10.526  13.698  64.702  0.00  0.00    +0.146 C 
BRANCH  29  31
ATOM     30  C   UNL     1     -12.683  13.459  65.858  0.00  0.00    +0.035 C 
ATOM     31  C   UNL     1     -12.028  13.579  64.505  0.00  0.00    +0.147 C 
ATOM     32  O   UNL     1     -12.493  14.754  63.926  0.00  0.00    -0.224 OA
ATOM     33  C   UNL     1     -12.345  12.407  63.616  0.00  0.00    +0.035 C 
ENDBRANCH  29  31
ENDBRANCH   1  29
TORSDOF 6
ENDMDL
MODEL 2
REMARK VINA RESULT:      -8.8      3.108      8.377
REMARK  Name = 
REMARK  6 active torsions:
REMARK  status: ('A' for Active; 'I' for Inactive)
REMARK    1  A    between atoms: C_2  and  C_5
REMARK    2  A    between atoms: C_5  and  N_6
REMARK    3  A    between atoms: N_10  and  C_11
REMARK    4  A    between atoms: C_15  and  C_16
REMARK    5  A    between atoms: C_22  and  C_23
REMARK    6  A    between atoms: C_27  and  C_28
REMARK                            x       y       z     vdW  Elec       q    Type
REMARK                         _______ _______ _______ _____ _____    ______ ____
ROOT
ATOM      1  N   UNL     1     -10.329  13.759  66.162  0.00  0.00    -0.201 NA
ATOM      2  C   UNL     1     -11.168  14.576  66.990  0.00  0.00    +0.240 A 
ATOM      3  N   UNL     1     -11.866  14.033  68.019  0.00  0.00    -0.192 NA
ATOM      4  C   UNL     1     -11.942  14.578  69.234  0.00  0.00    +0.186 A 
ATOM      5  N   UNL     1     -11.712  15.900  69.332  0.00  0.00    -0.191 NA
ATOM      6  C   UNL     1     -11.046  16.524  68.331  0.00  0.00    +0.245 A 
ATOM      7  N   UNL     1     -10.864  17.926  68.324  0.00  0.00    -0.177 NA
ATOM      8  N   UNL     1     -10.671  15.813  67.240  0.00  0.00    -0.178 NA
ENDROOT
BRANCH   4   9
ATOM      9  C   UNL     1     -12.194  13.749  70.422  0.00  0.00    +0.117 A 
ATOM     10  N   UNL     1     -12.273  12.421  70.358  0.00  0.00    -0.238 NA
ATOM     11  C   UNL     1     -12.931  11.787  71.357  0.00  0.00    +0.153 A 
ATOM     12  C   UNL     1     -13.705  12.479  72.279  0.00  0.00    +0.023 A 
ATOM     13  C   UNL     1     -13.464  13.834  72.466  0.00  0.00    +0.003 A 
ATOM     14  C   UNL     1     -12.525  14.396  71.607  0.00  0.00    +0.022 A 
BRANCH  11  15
ATOM     15  C   UNL     1     -12.808  10.316  71.588  0.00  0.00    +0.435 C 
ATOM     16  F   UNL     1     -13.290   9.675  70.457  0.00  0.00    -0.164 F 
ATOM     17  F   UNL     1     -11.478   9.947  71.708  0.00  0.00    -0.164 F 
ATOM     18  F   UNL     1     -13.563   9.949  72.673  0.00  0.00    -0.164 F 
ENDBRANCH  11  15
ENDBRANCH   4   9
BRANCH   7  19
ATOM     19  C   UNL     1      -9.740  18.590  67.788  0.00  0.00    +0.077 A 
ATOM     20  C   UNL     1      -8.527  18.432  68.443  0.00  0.00    +0.040 A 
ATOM     21  C   UNL     1      -7.359  19.016  68.003  0.00  0.00    +0.154 A 
ATOM     22  N   UNL     1      -7.347  19.560  66.775  0.00  0.00    -0.240 NA
ATOM     23  C   UNL     1      -8.446  19.491  66.016  0.00  0.00    +0.100 A 
ATOM     24  C   UNL     1      -9.679  19.068  66.491  0.00  0.00    +0.037 A 
BRANCH  21  25
ATOM     25  C   UNL     1      -6.235  19.154  68.958  0.00  0.00    +0.435 C 
ATOM     26  F   UNL     1      -5.081  19.500  68.296  0.00  0.00    -0.164 F 
ATOM     27  F   UNL     1      -6.023  17.979  69.633  0.00  0.00    -0.164 F 
ATOM     28  F   UNL     1      -6.535  20.147  69.856  0.00  0.00    -0.164 F 
ENDBRANCH  21  25
ENDBRANCH   7  19
BRANCH   1  29
ATOM     29  C   UNL     1     -10.221  13.894  64.742  0.00  0.00    +0.146 C 
BRANCH  29  31
ATOM     30  C   UNL     1     -12.058  12.844  63.489  0.00  0.00    +0.035 C 
ATOM     31  C   UNL     1     -10.703  12.601  64.106  0.00  0.00    +0.147 C 
ATOM     32  O   UNL     1      -9.836  12.265  63.074  0.00  0.00    -0.224 OA
ATOM     33  C   UNL     1     -10.736  11.499  65.130  0.00  0.00    +0.035 C 
ENDBRANCH  29  31
ENDBRANCH   1  29
TORSDOF 6
ENDMDL
MODEL 3
REMARK VINA RESULT:      -8.5      3.724      5.679
REMARK  Name = 
REMARK  6 active torsions:
REMARK  status: ('A' for Active; 'I' for Inactive)
REMARK    1  A    between atoms: C_2  and  C_5
REMARK    2  A    between atoms: C_5  and  N_6
REMARK    3  A    between atoms: N_10  and  C_11
REMARK    4  A    between atoms: C_15  and  C_16
REMARK    5  A    between atoms: C_22  and  C_23
REMARK    6  A    between atoms: C_27  and  C_28
REMARK                            x       y       z     vdW  Elec       q    Type
REMARK                         _______ _______ _______ _____ _____    ______ ____
ROOT
ATOM      1  N   UNL     1     -11.257  15.205  70.951  0.00  0.00    -0.201 NA
ATOM      2  C   UNL     1     -11.541  15.311  69.549  0.00  0.00    +0.240 A 
ATOM      3  N   UNL     1     -11.286  16.461  68.875  0.00  0.00    -0.192 NA
ATOM      4  C   UNL     1     -10.697  16.506  67.679  0.00  0.00    +0.186 A 
ATOM      5  N   UNL     1     -10.765  15.399  66.918  0.00  0.00    -0.191 NA
ATOM      6  C   UNL     1     -11.044  14.213  67.510  0.00  0.00    +0.245 A 
ATOM      7  N   UNL     1     -11.231  13.034  66.754  0.00  0.00    -0.177 NA
ATOM      8  N   UNL     1     -11.294  14.180  68.841  0.00  0.00    -0.178 NA
ENDROOT
BRANCH   4   9
ATOM      9  C   UNL     1      -9.947  17.694  67.248  0.00  0.00    +0.117 A 
ATOM     10  N   UNL     1      -8.875  18.135  67.905  0.00  0.00    -0.238 NA
ATOM     11  C   UNL     1      -8.526  19.431  67.729  0.00  0.00    +0.153 A 
ATOM     12  C   UNL     1      -9.368  20.338  67.101  0.00  0.00    +0.023 A 
ATOM     13  C   UNL     1     -10.361  19.851  66.260  0.00  0.00    +0.003 A 
ATOM     14  C   UNL     1     -10.484  18.466  66.224  0.00  0.00    +0.022 A 
BRANCH  11  15
ATOM     15  C   UNL     1      -7.185  19.958  68.125  0.00  0.00    +0.435 C 
ATOM     16  F   UNL     1      -6.227  19.154  67.525  0.00  0.00    -0.164 F 
ATOM     17  F   UNL     1      -6.990  21.234  67.623  0.00  0.00    -0.164 F 
ATOM     18  F   UNL     1      -7.040  19.894  69.487  0.00  0.00    -0.164 F 
ENDBRANCH  11  15
ENDBRANCH   4   9
BRANCH   7  19
ATOM     19  C   UNL     1     -10.886  11.735  67.188  0.00  0.00    +0.077 A 
ATOM     20  C   UNL     1     -11.363  11.324  68.424  0.00  0.00    +0.040 A 
ATOM     21  C   UNL     1     -11.109  10.073  68.944  0.00  0.00    +0.154 A 
ATOM     22  N   UNL     1     -10.582   9.144  68.129  0.00  0.00    -0.240 NA
ATOM     23  C   UNL     1     -10.355   9.449  66.847  0.00  0.00    +0.100 A 
ATOM     24  C   UNL     1     -10.437  10.738  66.341  0.00  0.00    +0.037 A 
BRANCH  21  25
ATOM     25  C   UNL     1     -11.278   9.867  70.402  0.00  0.00    +0.435 C 
ATOM     26  F   UNL     1     -11.878  10.961  70.976  0.00  0.00    -0.164 F 
ATOM     27  F   UNL     1     -10.065   9.657  71.007  0.00  0.00    -0.164 F 
ATOM     28  F   UNL     1     -12.083   8.774  70.604  0.00  0.00    -0.164 F 
ENDBRANCH  21  25
ENDBRANCH   7  19
BRANCH   1  29
ATOM     29  C   UNL     1     -12.104  14.547  71.897  0.00  0.00    +0.146 C 
BRANCH  29  31
ATOM     30  C   UNL     1     -12.403  15.138  74.265  0.00  0.00    +0.035 C 
ATOM     31  C   UNL     1     -12.652  15.595  72.849  0.00  0.00    +0.147 C 
ATOM     32  O   UNL     1     -11.941  16.775  72.666  0.00  0.00    -0.224 OA
ATOM     33  C   UNL     1     -14.114  15.829  72.579  0.00  0.00    +0.035 C 
ENDBRANCH  29  31
ENDBRANCH   1  29
TORSDOF 6
ENDMDL
MODEL 4
REMARK VINA RESULT:      -8.5      3.171      4.836
REMARK  Name = 
REMARK  6 active torsions:
REMARK  status: ('A' for Active; 'I' for Inactive)
REMARK    1  A    between atoms: C_2  and  C_5
REMARK    2  A    between atoms: C_5  and  N_6
REMARK    3  A    between atoms: N_10  and  C_11
REMARK    4  A    between atoms: C_15  and  C_16
REMARK    5  A    between atoms: C_22  and  C_23
REMARK    6  A    between atoms: C_27  and  C_28
REMARK                            x       y       z     vdW  Elec       q    Type
REMARK                         _______ _______ _______ _____ _____    ______ ____
ROOT
ATOM      1  N   UNL     1     -12.091  15.958  70.195  0.00  0.00    -0.201 NA
ATOM      2  C   UNL     1     -11.759  16.002  68.801  0.00  0.00    +0.240 A 
ATOM      3  N   UNL     1     -11.135  17.084  68.270  0.00  0.00    -0.192 NA
ATOM      4  C   UNL     1     -10.104  17.008  67.428  0.00  0.00    +0.186 A 
ATOM      5  N   UNL     1      -9.961  15.866  66.731  0.00  0.00    -0.191 NA
ATOM      6  C   UNL     1     -10.577  14.745  67.178  0.00  0.00    +0.245 A 
ATOM      7  N   UNL     1     -10.551  13.541  66.438  0.00  0.00    -0.177 NA
ATOM      8  N   UNL     1     -11.356  14.814  68.284  0.00  0.00    -0.178 NA
ENDROOT
BRANCH   4   9
ATOM      9  C   UNL     1      -9.127  18.102  67.323  0.00  0.00    +0.117 A 
ATOM     10  N   UNL     1      -8.350  18.261  66.254  0.00  0.00    -0.238 NA
ATOM     11  C   UNL     1      -7.211  18.977  66.412  0.00  0.00    +0.153 A 
ATOM     12  C   UNL     1      -6.733  19.324  67.668  0.00  0.00    +0.023 A 
ATOM     13  C   UNL     1      -7.621  19.339  68.737  0.00  0.00    +0.003 A 
ATOM     14  C   UNL     1      -8.903  18.882  68.453  0.00  0.00    +0.022 A 
BRANCH  11  15
ATOM     15  C   UNL     1      -6.435  19.510  65.253  0.00  0.00    +0.435 C 
ATOM     16  F   UNL     1      -5.254  20.041  65.749  0.00  0.00    -0.164 F 
ATOM     17  F   UNL     1      -6.070  18.487  64.393  0.00  0.00    -0.164 F 
ATOM     18  F   UNL     1      -7.149  20.502  64.628  0.00  0.00    -0.164 F 
ENDBRANCH  11  15
ENDBRANCH   4   9
BRANCH   7  19
ATOM     19  C   UNL     1     -10.549  12.247  67.003  0.00  0.00    +0.077 A 
ATOM     20  C   UNL     1     -11.319  12.041  68.139  0.00  0.00    +0.040 A 
ATOM     21  C   UNL     1     -11.410  10.818  68.767  0.00  0.00    +0.154 A 
ATOM     22  N   UNL     1     -10.926   9.740  68.128  0.00  0.00    -0.240 NA
ATOM     23  C   UNL     1     -10.408   9.882  66.904  0.00  0.00    +0.100 A 
ATOM     24  C   UNL     1     -10.146  11.113  66.321  0.00  0.00    +0.037 A 
BRANCH  21  25
ATOM     25  C   UNL     1     -11.887  10.779  70.170  0.00  0.00    +0.435 C 
ATOM     26  F   UNL     1     -11.021  10.052  70.952  0.00  0.00    -0.164 F 
ATOM     27  F   UNL     1     -13.133  10.213  70.244  0.00  0.00    -0.164 F 
ATOM     28  F   UNL     1     -11.938  12.061  70.657  0.00  0.00    -0.164 F 
ENDBRANCH  21  25
ENDBRANCH   7  19
BRANCH   1  29
ATOM     29  C   UNL     1     -13.314  15.431  70.716  0.00  0.00    +0.146 C 
BRANCH  29  31
ATOM     30  C   UNL     1     -11.997  16.228  72.633  0.00  0.00    +0.035 C 
ATOM     31  C   UNL     1     -13.237  15.469  72.233  0.00  0.00    +0.147 C 
ATOM     32  O   UNL     1     -14.329  16.183  72.713  0.00  0.00    -0.224 OA
ATOM     33  C   UNL     1     -13.251  14.072  72.790  0.00  0.00    +0.035 C 
ENDBRANCH  29  31
ENDBRANCH   1  29
TORSDOF 6
ENDMDL
MODEL 5
REMARK VINA RESULT:      -8.2      4.012      6.101
REMARK  Name = 
REMARK  6 active torsions:
REMARK  status: ('A' for Active; 'I' for Inactive)
REMARK    1  A    between atoms: C_2  and  C_5
REMARK    2  A    between atoms: C_5  and  N_6
REMARK    3  A    between atoms: N_10  and  C_11
REMARK    4  A    between atoms: C_15  and  C_16
REMARK    5  A    between atoms: C_22  and  C_23
REMARK    6  A    between atoms: C_27  and  C_28
REMARK                            x       y       z     vdW  Elec       q    Type
REMARK                         _______ _______ _______ _____ _____    ______ ____
ROOT
ATOM      1  N   UNL     1     -11.099  16.272  69.665  0.00  0.00    -0.201 NA
ATOM      2  C   UNL     1     -10.813  16.951  68.434  0.00  0.00    +0.240 A 
ATOM      3  N   UNL     1      -9.905  17.958  68.393  0.00  0.00    -0.192 NA
ATOM      4  C   UNL     1      -8.973  18.081  67.447  0.00  0.00    +0.186 A 
ATOM      5  N   UNL     1      -9.206  17.472  66.271  0.00  0.00    -0.191 NA
ATOM      6  C   UNL     1     -10.120  16.473  66.220  0.00  0.00    +0.245 A 
ATOM      7  N   UNL     1     -10.485  15.864  64.998  0.00  0.00    -0.177 NA
ATOM      8  N   UNL     1     -10.807  16.146  67.342  0.00  0.00    -0.178 NA
ENDROOT
BRANCH   4   9
ATOM      9  C   UNL     1      -7.713  18.791  67.712  0.00  0.00    +0.117 A 
ATOM     10  N   UNL     1      -7.290  19.052  68.948  0.00  0.00    -0.238 NA
ATOM     11  C   UNL     1      -6.401  20.061  69.102  0.00  0.00    +0.153 A 
ATOM     12  C   UNL     1      -6.120  20.953  68.076  0.00  0.00    +0.023 A 
ATOM     13  C   UNL     1      -6.394  20.571  66.769  0.00  0.00    +0.003 A 
ATOM     14  C   UNL     1      -7.042  19.349  66.629  0.00  0.00    +0.022 A 
BRANCH  11  15
ATOM     15  C   UNL     1      -5.603  20.239  70.352  0.00  0.00    +0.435 C 
ATOM     16  F   UNL     1      -4.953  21.460  70.263  0.00  0.00    -0.164 F 
ATOM     17  F   UNL     1      -6.432  20.320  71.459  0.00  0.00    -0.164 F 
ATOM     18  F   UNL     1      -4.671  19.237  70.458  0.00  0.00    -0.164 F 
ENDBRANCH  11  15
ENDBRANCH   4   9
BRANCH   7  19
ATOM     19  C   UNL     1     -10.859  14.511  64.851  0.00  0.00    +0.077 A 
ATOM     20  C   UNL     1     -10.058  13.554  65.459  0.00  0.00    +0.040 A 
ATOM     21  C   UNL     1     -10.333  12.205  65.401  0.00  0.00    +0.154 A 
ATOM     22  N   UNL     1     -11.537  11.823  64.942  0.00  0.00    -0.240 NA
ATOM     23  C   UNL     1     -12.430  12.754  64.591  0.00  0.00    +0.100 A 
ATOM     24  C   UNL     1     -12.126  14.102  64.475  0.00  0.00    +0.037 A 
BRANCH  21  25
ATOM     25  C   UNL     1      -9.240  11.248  65.694  0.00  0.00    +0.435 C 
ATOM     26  F   UNL     1      -9.722  10.165  66.389  0.00  0.00    -0.164 F 
ATOM     27  F   UNL     1      -8.255  11.848  66.436  0.00  0.00    -0.164 F 
ATOM     28  F   UNL     1      -8.711  10.804  64.509  0.00  0.00    -0.164 F 
ENDBRANCH  21  25
ENDBRANCH   7  19
BRANCH   1  29
ATOM     29  C   UNL     1     -12.408  15.870  70.078  0.00  0.00    +0.146 C 
BRANCH  29  31
ATOM     30  C   UNL     1     -12.402  13.586  70.988  0.00  0.00    +0.035 C 
ATOM     31  C   UNL     1     -12.272  15.045  71.346  0.00  0.00    +0.147 C 
ATOM     32  O   UNL     1     -10.993  15.230  71.859  0.00  0.00    -0.224 OA
ATOM     33  C   UNL     1     -13.299  15.475  72.359  0.00  0.00    +0.035 C 
ENDBRANCH  29  31
ENDBRANCH   1  29
TORSDOF 6
ENDMDL
MODEL 6
REMARK VINA RESULT:      -8.2      3.419      5.384
REMARK  Name = 
REMARK  6 active torsions:
REMARK  status: ('A' for Active; 'I' for Inactive)
REMARK    1  A    between atoms: C_2  and  C_5
REMARK    2  A    between atoms: C_5  and  N_6
REMARK    3  A    between atoms: N_10  and  C_11
REMARK    4  A    between atoms: C_15  and  C_16
REMARK    5  A    between atoms: C_22  and  C_23
REMARK    6  A    between atoms: C_27  and  C_28
REMARK                            x       y       z     vdW  Elec       q    Type
REMARK                         _______ _______ _______ _____ _____    ______ ____
ROOT
ATOM      1  N   UNL     1     -11.377  15.062  69.807  0.00  0.00    -0.201 NA
ATOM      2  C   UNL     1     -11.569  15.338  68.413  0.00  0.00    +0.240 A 
ATOM      3  N   UNL     1     -11.338  16.577  67.913  0.00  0.00    -0.192 NA
ATOM      4  C   UNL     1     -10.671  16.810  66.781  0.00  0.00    +0.186 A 
ATOM      5  N   UNL     1     -10.618  15.811  65.881  0.00  0.00    -0.191 NA
ATOM      6  C   UNL     1     -10.866  14.544  66.294  0.00  0.00    +0.245 A 
ATOM      7  N   UNL     1     -10.927  13.467  65.382  0.00  0.00    -0.177 NA
ATOM      8  N   UNL     1     -11.206  14.324  67.587  0.00  0.00    -0.178 NA
ENDROOT
BRANCH   4   9
ATOM      9  C   UNL     1      -9.966  18.081  66.564  0.00  0.00    +0.117 A 
ATOM     10  N   UNL     1      -8.741  18.134  66.044  0.00  0.00    -0.238 NA
ATOM     11  C   UNL     1      -8.008  19.246  66.288  0.00  0.00    +0.153 A 
ATOM     12  C   UNL     1      -8.396  20.186  67.233  0.00  0.00    +0.023 A 
ATOM     13  C   UNL     1      -9.731  20.236  67.613  0.00  0.00    +0.003 A 
ATOM     14  C   UNL     1     -10.540  19.238  67.078  0.00  0.00    +0.022 A 
BRANCH  11  15
ATOM     15  C   UNL     1      -6.780  19.582  65.506  0.00  0.00    +0.435 C 
ATOM     16  F   UNL     1      -5.814  20.005  66.406  0.00  0.00    -0.164 F 
ATOM     17  F   UNL     1      -6.267  18.453  64.888  0.00  0.00    -0.164 F 
ATOM     18  F   UNL     1      -7.051  20.596  64.622  0.00  0.00    -0.164 F 
ENDBRANCH  11  15
ENDBRANCH   4   9
BRANCH   7  19
ATOM     19  C   UNL     1     -10.536  12.141  65.672  0.00  0.00    +0.077 A 
ATOM     20  C   UNL     1     -11.011  11.574  66.846  0.00  0.00    +0.040 A 
ATOM     21  C   UNL     1     -10.712  10.283  67.224  0.00  0.00    +0.154 A 
ATOM     22  N   UNL     1     -10.139   9.474  66.318  0.00  0.00    -0.240 NA
ATOM     23  C   UNL     1      -9.909   9.931  65.083  0.00  0.00    +0.100 A 
ATOM     24  C   UNL     1     -10.037  11.265  64.725  0.00  0.00    +0.037 A 
BRANCH  21  25
ATOM     25  C   UNL     1     -10.890   9.906  68.647  0.00  0.00    +0.435 C 
ATOM     26  F   UNL     1     -12.106  10.348  69.113  0.00  0.00    -0.164 F 
ATOM     27  F   UNL     1      -9.896  10.444  69.421  0.00  0.00    -0.164 F 
ATOM     28  F   UNL     1     -10.858   8.538  68.749  0.00  0.00    -0.164 F 
ENDBRANCH  21  25
ENDBRANCH   7  19
BRANCH   1  29
ATOM     29  C   UNL     1     -12.246  14.242  70.594  0.00  0.00    +0.146 C 
BRANCH  29  31
ATOM     30  C   UNL     1     -11.850  16.205  72.021  0.00  0.00    +0.035 C 
ATOM     31  C   UNL     1     -12.827  15.100  71.705  0.00  0.00    +0.147 C 
ATOM     32  O   UNL     1     -13.990  15.701  71.238  0.00  0.00    -0.224 OA
ATOM     33  C   UNL     1     -13.134  14.253  72.910  0.00  0.00    +0.035 C 
ENDBRANCH  29  31
ENDBRANCH   1  29
TORSDOF 6
ENDMDL
MODEL 7
REMARK VINA RESULT:      -8.2      4.633      6.714
REMARK  Name = 
REMARK  6 active torsions:
REMARK  status: ('A' for Active; 'I' for Inactive)
REMARK    1  A    between atoms: C_2  and  C_5
REMARK    2  A    between atoms: C_5  and  N_6
REMARK    3  A    between atoms: N_10  and  C_11
REMARK    4  A    between atoms: C_15  and  C_16
REMARK    5  A    between atoms: C_22  and  C_23
REMARK    6  A    between atoms: C_27  and  C_28
REMARK                            x       y       z     vdW  Elec       q    Type
REMARK                         _______ _______ _______ _____ _____    ______ ____
ROOT
ATOM      1  N   UNL     1     -11.492  14.761  70.359  0.00  0.00    -0.201 NA
ATOM      2  C   UNL     1     -11.704  15.102  68.982  0.00  0.00    +0.240 A 
ATOM      3  N   UNL     1     -11.387  16.336  68.516  0.00  0.00    -0.192 NA
ATOM      4  C   UNL     1     -10.739  16.554  67.370  0.00  0.00    +0.186 A 
ATOM      5  N   UNL     1     -10.797  15.587  66.437  0.00  0.00    -0.191 NA
ATOM      6  C   UNL     1     -11.136  14.331  66.815  0.00  0.00    +0.245 A 
ATOM      7  N   UNL     1     -11.315  13.295  65.870  0.00  0.00    -0.177 NA
ATOM      8  N   UNL     1     -11.452  14.092  68.111  0.00  0.00    -0.178 NA
ENDROOT
BRANCH   4   9
ATOM      9  C   UNL     1      -9.937  17.770  67.172  0.00  0.00    +0.117 A 
ATOM     10  N   UNL     1      -8.888  18.063  67.939  0.00  0.00    -0.238 NA
ATOM     11  C   UNL     1      -8.498  19.358  67.992  0.00  0.00    +0.153 A 
ATOM     12  C   UNL     1      -9.285  20.382  67.482  0.00  0.00    +0.023 A 
ATOM     13  C   UNL     1     -10.247  20.070  66.530  0.00  0.00    +0.003 A 
ATOM     14  C   UNL     1     -10.403  18.714  66.263  0.00  0.00    +0.022 A 
BRANCH  11  15
ATOM     15  C   UNL     1      -7.165  19.770  68.528  0.00  0.00    +0.435 C 
ATOM     16  F   UNL     1      -6.248  18.800  68.152  0.00  0.00    -0.164 F 
ATOM     17  F   UNL     1      -6.744  20.952  67.942  0.00  0.00    -0.164 F 
ATOM     18  F   UNL     1      -7.213  19.841  69.897  0.00  0.00    -0.164 F 
ENDBRANCH  11  15
ENDBRANCH   4   9
BRANCH   7  19
ATOM     19  C   UNL     1     -11.026  11.933  66.102  0.00  0.00    +0.077 A 
ATOM     20  C   UNL     1      -9.984  11.366  65.382  0.00  0.00    +0.040 A 
ATOM     21  C   UNL     1      -9.598  10.053  65.538  0.00  0.00    +0.154 A 
ATOM     22  N   UNL     1     -10.091   9.367  66.582  0.00  0.00    -0.240 NA
ATOM     23  C   UNL     1     -10.904   9.983  67.446  0.00  0.00    +0.100 A 
ATOM     24  C   UNL     1     -11.445  11.241  67.224  0.00  0.00    +0.037 A 
BRANCH  21  25
ATOM     25  C   UNL     1      -8.793   9.422  64.465  0.00  0.00    +0.435 C 
ATOM     26  F   UNL     1      -8.467   8.130  64.804  0.00  0.00    -0.164 F 
ATOM     27  F   UNL     1      -7.638  10.127  64.245  0.00  0.00    -0.164 F 
ATOM     28  F   UNL     1      -9.536   9.393  63.311  0.00  0.00    -0.164 F 
ENDBRANCH  21  25
ENDBRANCH   7  19
BRANCH   1  29
ATOM     29  C   UNL     1     -12.402  13.988  71.147  0.00  0.00    +0.146 C 
BRANCH  29  31
ATOM     30  C   UNL     1     -14.339  15.331  71.846  0.00  0.00    +0.035 C 
ATOM     31  C   UNL     1     -12.955  14.882  72.243  0.00  0.00    +0.147 C 
ATOM     32  O   UNL     1     -13.084  14.130  73.405  0.00  0.00    -0.224 OA
ATOM     33  C   UNL     1     -12.030  16.044  72.483  0.00  0.00    +0.035 C 
ENDBRANCH  29  31
ENDBRANCH   1  29
TORSDOF 6
ENDMDL
MODEL 8
REMARK VINA RESULT:      -8.1      4.114      8.967
REMARK  Name = 
REMARK  6 active torsions:
REMARK  status: ('A' for Active; 'I' for Inactive)
REMARK    1  A    between atoms: C_2  and  C_5
REMARK    2  A    between atoms: C_5  and  N_6
REMARK    3  A    between atoms: N_10  and  C_11
REMARK    4  A    between atoms: C_15  and  C_16
REMARK    5  A    between atoms: C_22  and  C_23
REMARK    6  A    between atoms: C_27  and  C_28
REMARK                            x       y       z     vdW  Elec       q    Type
REMARK                         _______ _______ _______ _____ _____    ______ ____
ROOT
ATOM      1  N   UNL     1     -10.219  12.133  66.097  0.00  0.00    -0.201 NA
ATOM      2  C   UNL     1     -11.093  12.677  67.096  0.00  0.00    +0.240 A 
ATOM      3  N   UNL     1     -11.689  11.871  68.009  0.00  0.00    -0.192 NA
ATOM      4  C   UNL     1     -11.760  12.149  69.312  0.00  0.00    +0.186 A 
ATOM      5  N   UNL     1     -11.652  13.440  69.672  0.00  0.00    -0.191 NA
ATOM      6  C   UNL     1     -11.095  14.318  68.804  0.00  0.00    +0.245 A 
ATOM      7  N   UNL     1     -11.047  15.704  69.080  0.00  0.00    -0.177 NA
ATOM      8  N   UNL     1     -10.704  13.883  67.581  0.00  0.00    -0.178 NA
ENDROOT
BRANCH   4   9
ATOM      9  C   UNL     1     -11.878  11.077  70.311  0.00  0.00    +0.117 A 
ATOM     10  N   UNL     1     -11.330   9.876  70.134  0.00  0.00    -0.238 NA
ATOM     11  C   UNL     1     -11.842   8.845  70.847  0.00  0.00    +0.153 A 
ATOM     12  C   UNL     1     -13.036   8.960  71.545  0.00  0.00    +0.023 A 
ATOM     13  C   UNL     1     -13.486  10.228  71.890  0.00  0.00    +0.003 A 
ATOM     14  C   UNL     1     -12.733  11.284  71.388  0.00  0.00    +0.022 A 
BRANCH  11  15
ATOM     15  C   UNL     1     -11.123   7.545  71.000  0.00  0.00    +0.435 C 
ATOM     16  F   UNL     1      -9.856   7.702  70.459  0.00  0.00    -0.164 F 
ATOM     17  F   UNL     1     -10.939   7.238  72.338  0.00  0.00    -0.164 F 
ATOM     18  F   UNL     1     -11.788   6.560  70.314  0.00  0.00    -0.164 F 
ENDBRANCH  11  15
ENDBRANCH   4   9
BRANCH   7  19
ATOM     19  C   UNL     1     -10.016  16.574  68.662  0.00  0.00    +0.077 A 
ATOM     20  C   UNL     1     -10.384  17.830  68.202  0.00  0.00    +0.040 A 
ATOM     21  C   UNL     1      -9.466  18.770  67.786  0.00  0.00    +0.154 A 
ATOM     22  N   UNL     1      -8.168  18.550  68.054  0.00  0.00    -0.240 NA
ATOM     23  C   UNL     1      -7.815  17.455  68.736  0.00  0.00    +0.100 A 
ATOM     24  C   UNL     1      -8.688  16.413  69.014  0.00  0.00    +0.037 A 
BRANCH  21  25
ATOM     25  C   UNL     1      -9.936  19.886  66.932  0.00  0.00    +0.435 C 
ATOM     26  F   UNL     1      -9.246  19.906  65.743  0.00  0.00    -0.164 F 
ATOM     27  F   UNL     1      -9.763  21.089  67.565  0.00  0.00    -0.164 F 
ATOM     28  F   UNL     1     -11.268  19.703  66.657  0.00  0.00    -0.164 F 
ENDBRANCH  21  25
ENDBRANCH   7  19
BRANCH   1  29
ATOM     29  C   UNL     1     -10.189  12.561  64.733  0.00  0.00    +0.146 C 
BRANCH  29  31
ATOM     30  C   UNL     1      -9.622  11.244  62.736  0.00  0.00    +0.035 C 
ATOM     31  C   UNL     1     -10.615  11.392  63.861  0.00  0.00    +0.147 C 
ATOM     32  O   UNL     1     -10.554  10.229  64.619  0.00  0.00    -0.224 OA
ATOM     33  C   UNL     1     -12.016  11.604  63.356  0.00  0.00    +0.035 C 
ENDBRANCH  29  31
ENDBRANCH   1  29
TORSDOF 6
ENDMDL
MODEL 9
REMARK VINA RESULT:      -8.1      4.340      7.879
REMARK  Name = 
REMARK  6 active torsions:
REMARK  status: ('A' for Active; 'I' for Inactive)
REMARK    1  A    between atoms: C_2  and  C_5
REMARK    2  A    between atoms: C_5  and  N_6
REMARK    3  A    between atoms: N_10  and  C_11
REMARK    4  A    between atoms: C_15  and  C_16
REMARK    5  A    between atoms: C_22  and  C_23
REMARK    6  A    between atoms: C_27  and  C_28
REMARK                            x       y       z     vdW  Elec       q    Type
REMARK                         _______ _______ _______ _____ _____    ______ ____
ROOT
ATOM      1  N   UNL     1     -11.883  15.471  70.138  0.00  0.00    -0.201 NA
ATOM      2  C   UNL     1     -10.695  14.921  69.552  0.00  0.00    +0.240 A 
ATOM      3  N   UNL     1     -10.751  13.794  68.800  0.00  0.00    -0.192 NA
ATOM      4  C   UNL     1     -10.120  13.646  67.634  0.00  0.00    +0.186 A 
ATOM      5  N   UNL     1      -9.052  14.432  67.408  0.00  0.00    -0.191 NA
ATOM      6  C   UNL     1      -8.907  15.564  68.138  0.00  0.00    +0.245 A 
ATOM      7  N   UNL     1      -7.757  16.378  68.021  0.00  0.00    -0.177 NA
ATOM      8  N   UNL     1      -9.811  15.849  69.106  0.00  0.00    -0.178 NA
ENDROOT
BRANCH   4   9
ATOM      9  C   UNL     1     -10.619  12.712  66.614  0.00  0.00    +0.117 A 
ATOM     10  N   UNL     1      -9.805  11.930  65.907  0.00  0.00    -0.238 NA
ATOM     11  C   UNL     1     -10.268  11.456  64.726  0.00  0.00    +0.153 A 
ATOM     12  C   UNL     1     -11.430  11.945  64.145  0.00  0.00    +0.023 A 
ATOM     13  C   UNL     1     -12.358  12.588  64.953  0.00  0.00    +0.003 A 
ATOM     14  C   UNL     1     -11.966  12.781  66.274  0.00  0.00    +0.022 A 
BRANCH  11  15
ATOM     15  C   UNL     1      -9.611  10.323  64.008  0.00  0.00    +0.435 C 
ATOM     16  F   UNL     1      -8.253  10.600  63.945  0.00  0.00    -0.164 F 
ATOM     17  F   UNL     1      -9.734   9.146  64.727  0.00  0.00    -0.164 F 
ATOM     18  F   UNL     1     -10.111  10.223  62.734  0.00  0.00    -0.164 F 
ENDBRANCH  11  15
ENDBRANCH   4   9
BRANCH   7  19
ATOM     19  C   UNL     1      -7.744  17.782  68.172  0.00  0.00    +0.077 A 
ATOM     20  C   UNL     1      -6.710  18.338  68.912  0.00  0.00    +0.040 A 
ATOM     21  C   UNL     1      -6.582  19.696  69.111  0.00  0.00    +0.154 A 
ATOM     22  N   UNL     1      -7.346  20.519  68.374  0.00  0.00    -0.240 NA
ATOM     23  C   UNL     1      -8.173  20.003  67.459  0.00  0.00    +0.100 A 
ATOM     24  C   UNL     1      -8.449  18.647  67.356  0.00  0.00    +0.037 A 
BRANCH  21  25
ATOM     25  C   UNL     1      -5.732  20.168  70.230  0.00  0.00    +0.435 C 
ATOM     26  F   UNL     1      -6.488  20.352  71.363  0.00  0.00    -0.164 F 
ATOM     27  F   UNL     1      -5.119  21.351  69.909  0.00  0.00    -0.164 F 
ATOM     28  F   UNL     1      -4.778  19.217  70.494  0.00  0.00    -0.164 F 
ENDBRANCH  21  25
ENDBRANCH   7  19
BRANCH   1  29
ATOM     29  C   UNL     1     -11.950  16.023  71.456  0.00  0.00    +0.146 C 
BRANCH  29  31
ATOM     30  C   UNL     1     -12.769  15.452  73.703  0.00  0.00    +0.035 C 
ATOM     31  C   UNL     1     -13.025  15.277  72.227  0.00  0.00    +0.147 C 
ATOM     32  O   UNL     1     -14.255  15.862  71.951  0.00  0.00    -0.224 OA
ATOM     33  C   UNL     1     -13.043  13.827  71.823  0.00  0.00    +0.035 C 
ENDBRANCH  29  31
ENDBRANCH   1  29
TORSDOF 6
ENDMDL
