MODEL 1
REMARK VINA RESULT:      -6.9      0.000      0.000
REMARK  Name = 
REMARK  8 active torsions:
REMARK  status: ('A' for Active; 'I' for Inactive)
REMARK    1  A    between atoms: C_2  and  C_4
REMARK    2  A    between atoms: C_4  and  C_5
REMARK    3  A    between atoms: C_5  and  C_6
REMARK    4  A    between atoms: C_6  and  N_7
REMARK    5  A    between atoms: C_10  and  O_11
REMARK    6  A    between atoms: O_11  and  C_12
REMARK    7  A    between atoms: C_12  and  C_13
REMARK    8  A    between atoms: C_12  and  C_20
REMARK                            x       y       z     vdW  Elec       q    Type
REMARK                         _______ _______ _______ _____ _____    ______ ____
ROOT
ATOM      1  C   UNL     1     -11.416  15.440  67.677  0.00  0.00    +0.177 C 
ENDROOT
BRANCH   1   2
ATOM      2  C   UNL     1     -11.332  14.802  69.170  0.00  0.00    +0.010 A 
ATOM      3  C   UNL     1     -10.988  15.767  70.116  0.00  0.00    -0.001 A 
ATOM      4  C   UNL     1     -11.695  15.851  71.314  0.00  0.00    +0.011 A 
ATOM      5  C   UNL     1     -12.664  14.900  71.619  0.00  0.00    +0.058 A 
ATOM      6 CL   UNL     1     -14.124  15.322  72.513  0.00  0.00    -0.082 Cl
ATOM      7  C   UNL     1     -12.551  13.718  70.896  0.00  0.00    +0.011 A 
ATOM      8  C   UNL     1     -12.106  13.822  69.580  0.00  0.00    -0.001 A 
ENDBRANCH   1   2
BRANCH   1   9
ATOM      9  C   UNL     1     -11.557  14.029  66.881  0.00  0.00    +0.090 A 
ATOM     10  N   UNL     1     -12.453  13.872  65.970  0.00  0.00    -0.245 NA
ATOM     11  C   UNL     1     -12.449  12.769  65.223  0.00  0.00    +0.099 A 
ATOM     12  C   UNL     1     -11.287  12.016  65.108  0.00  0.00    +0.021 A 
ATOM     13  C   UNL     1     -10.141  12.553  65.680  0.00  0.00    +0.003 A 
ATOM     14  C   UNL     1     -10.312  13.436  66.734  0.00  0.00    +0.018 A 
ENDBRANCH   1   9
BRANCH   1  15
ATOM     15  O   UNL     1      -9.899  15.506  67.564  0.00  0.00    -0.348 OA
BRANCH  15  19
ATOM     16  N   UNL     1      -8.274  18.937  68.302  0.00  0.00    -0.273 NA
ATOM     17  C   UNL     1      -9.097  19.028  67.129  0.00  0.00    +0.075 C 
ATOM     18  C   UNL     1     -10.175  17.949  67.267  0.00  0.00    +0.047 C 
ATOM     19  C   UNL     1      -9.493  16.687  67.233  0.00  0.00    +0.119 C 
ATOM     20  C   UNL     1      -8.022  16.816  67.266  0.00  0.00    +0.047 C 
ATOM     21  C   UNL     1      -7.709  17.625  68.521  0.00  0.00    +0.075 C 
BRANCH  16  22
ATOM     22  C   UNL     1      -7.183  19.877  68.332  0.00  0.00    +0.073 C 
BRANCH  22  23
ATOM     23  C   UNL     1      -6.183  19.327  69.344  0.00  0.00    +0.029 C 
BRANCH  23  24
ATOM     24  C   UNL     1      -5.531  20.517  70.039  0.00  0.00    +0.115 C 
BRANCH  24  26
ATOM     25  O   UNL     1      -6.005  20.392  71.750  0.00  0.00    -0.246 OA
ATOM     26  C   UNL     1      -5.678  20.219  71.504  0.00  0.00    +0.365 C 
ATOM     27  O   UNL     1      -4.547  19.662  72.114  0.00  0.00    -0.246 OA
ENDBRANCH  24  26
ENDBRANCH  23  24
ENDBRANCH  22  23
ENDBRANCH  16  22
ENDBRANCH  15  19
ENDBRANCH   1  15
TORSDOF 8
ENDMDL
MODEL 2
REMARK VINA RESULT:      -6.8      3.789      7.571
REMARK  Name = 
REMARK  8 active torsions:
REMARK  status: ('A' for Active; 'I' for Inactive)
REMARK    1  A    between atoms: C_2  and  C_4
REMARK    2  A    between atoms: C_4  and  C_5
REMARK    3  A    between atoms: C_5  and  C_6
REMARK    4  A    between atoms: C_6  and  N_7
REMARK    5  A    between atoms: C_10  and  O_11
REMARK    6  A    between atoms: O_11  and  C_12
REMARK    7  A    between atoms: C_12  and  C_13
REMARK    8  A    between atoms: C_12  and  C_20
REMARK                            x       y       z     vdW  Elec       q    Type
REMARK                         _______ _______ _______ _____ _____    ______ ____
ROOT
ATOM      1  C   UNL     1     -11.623  14.617  69.197  0.00  0.00    +0.177 C 
ENDROOT
BRANCH   1   2
ATOM      2  C   UNL     1     -10.744  15.976  69.038  0.00  0.00    +0.010 A 
ATOM      3  C   UNL     1      -9.419  15.771  69.423  0.00  0.00    -0.001 A 
ATOM      4  C   UNL     1      -8.380  16.239  68.620  0.00  0.00    +0.011 A 
ATOM      5  C   UNL     1      -8.662  17.012  67.497  0.00  0.00    +0.058 A 
ATOM      6 CL   UNL     1      -7.688  16.905  66.033  0.00  0.00    -0.082 Cl
ATOM      7  C   UNL     1      -9.924  17.597  67.509  0.00  0.00    +0.011 A 
ATOM      8  C   UNL     1     -10.954  16.864  68.093  0.00  0.00    -0.001 A 
ENDBRANCH   1   2
BRANCH   1   9
ATOM      9  C   UNL     1     -11.883  14.752  70.796  0.00  0.00    +0.090 A 
ATOM     10  N   UNL     1     -11.971  15.909  71.355  0.00  0.00    -0.245 NA
ATOM     11  C   UNL     1     -12.341  15.998  72.632  0.00  0.00    +0.099 A 
ATOM     12  C   UNL     1     -13.033  14.950  73.226  0.00  0.00    +0.021 A 
ATOM     13  C   UNL     1     -13.424  13.912  72.391  0.00  0.00    +0.003 A 
ATOM     14  C   UNL     1     -12.679  13.708  71.242  0.00  0.00    +0.018 A 
ENDBRANCH   1   9
BRANCH   1  15
ATOM     15  O   UNL     1     -10.372  13.761  69.336  0.00  0.00    -0.348 OA
BRANCH  15  19
ATOM     16  N   UNL     1     -10.815  11.848  66.004  0.00  0.00    -0.273 NA
ATOM     17  C   UNL     1     -11.116  10.981  67.109  0.00  0.00    +0.075 C 
ATOM     18  C   UNL     1     -11.575  11.884  68.258  0.00  0.00    +0.047 C 
ATOM     19  C   UNL     1     -10.443  12.688  68.621  0.00  0.00    +0.119 C 
ATOM     20  C   UNL     1      -9.301  12.540  67.697  0.00  0.00    +0.047 C 
ATOM     21  C   UNL     1      -9.847  12.876  66.312  0.00  0.00    +0.075 C 
BRANCH  16  22
ATOM     22  C   UNL     1     -10.342  11.163  64.828  0.00  0.00    +0.073 C 
BRANCH  22  23
ATOM     23  C   UNL     1     -10.672  12.074  63.651  0.00  0.00    +0.029 C 
BRANCH  23  24
ATOM     24  C   UNL     1     -12.187  12.085  63.489  0.00  0.00    +0.115 C 
BRANCH  24  26
ATOM     25  O   UNL     1     -12.418  13.849  63.428  0.00  0.00    -0.246 OA
ATOM     26  C   UNL     1     -12.573  13.524  63.688  0.00  0.00    +0.365 C 
ATOM     27  O   UNL     1     -13.153  13.818  64.929  0.00  0.00    -0.246 OA
ENDBRANCH  24  26
ENDBRANCH  23  24
ENDBRANCH  22  23
ENDBRANCH  16  22
ENDBRANCH  15  19
ENDBRANCH   1  15
TORSDOF 8
ENDMDL
MODEL 3
REMARK VINA RESULT:      -6.8      2.177      3.980
REMARK  Name = 
REMARK  8 active torsions:
REMARK  status: ('A' for Active; 'I' for Inactive)
REMARK    1  A    between atoms: C_2  and  C_4
REMARK    2  A    between atoms: C_4  and  C_5
REMARK    3  A    between atoms: C_5  and  C_6
REMARK    4  A    between atoms: C_6  and  N_7
REMARK    5  A    between atoms: C_10  and  O_11
REMARK    6  A    between atoms: O_11  and  C_12
REMARK    7  A    between atoms: C_12  and  C_13
REMARK    8  A    between atoms: C_12  and  C_20
REMARK                            x       y       z     vdW  Elec       q    Type
REMARK                         _______ _______ _______ _____ _____    ______ ____
ROOT
ATOM      1  C   UNL     1     -10.379  15.350  67.857  0.00  0.00    +0.177 C 
ENDROOT
BRANCH   1   2
ATOM      2  C   UNL     1     -11.163  14.907  66.503  0.00  0.00    +0.010 A 
ATOM      3  C   UNL     1     -10.293  14.829  65.415  0.00  0.00    -0.001 A 
ATOM      4  C   UNL     1     -10.339  13.727  64.564  0.00  0.00    +0.011 A 
ATOM      5  C   UNL     1     -11.328  12.761  64.728  0.00  0.00    +0.058 A 
ATOM      6 CL   UNL     1     -11.017  11.056  64.408  0.00  0.00    -0.082 Cl
ATOM      7  C   UNL     1     -12.430  13.191  65.459  0.00  0.00    +0.011 A 
ATOM      8  C   UNL     1     -12.188  14.085  66.499  0.00  0.00    -0.001 A 
ENDBRANCH   1   2
BRANCH   1   9
ATOM      9  C   UNL     1     -11.494  14.800  68.904  0.00  0.00    +0.090 A 
ATOM     10  N   UNL     1     -11.369  13.641  69.451  0.00  0.00    -0.245 NA
ATOM     11  C   UNL     1     -12.206  13.276  70.422  0.00  0.00    +0.099 A 
ATOM     12  C   UNL     1     -12.902  14.245  71.135  0.00  0.00    +0.021 A 
ATOM     13  C   UNL     1     -12.567  15.567  70.875  0.00  0.00    +0.003 A 
ATOM     14  C   UNL     1     -12.029  15.852  69.631  0.00  0.00    +0.018 A 
ENDBRANCH   1   9
BRANCH   1  15
ATOM     15  O   UNL     1     -10.947  16.761  67.786  0.00  0.00    -0.348 OA
BRANCH  15  19
ATOM     16  N   UNL     1      -8.329  19.597  68.051  0.00  0.00    -0.273 NA
ATOM     17  C   UNL     1      -8.870  19.553  66.721  0.00  0.00    +0.075 C 
ATOM     18  C   UNL     1     -10.271  18.948  66.840  0.00  0.00    +0.047 C 
ATOM     19  C   UNL     1     -10.095  17.597  67.291  0.00  0.00    +0.119 C 
ATOM     20  C   UNL     1      -8.702  17.284  67.667  0.00  0.00    +0.047 C 
ATOM     21  C   UNL     1      -8.318  18.317  68.722  0.00  0.00    +0.075 C 
BRANCH  16  22
ATOM     22  C   UNL     1      -6.991  20.125  68.129  0.00  0.00    +0.073 C 
BRANCH  22  23
ATOM     23  C   UNL     1      -6.333  19.430  69.315  0.00  0.00    +0.029 C 
BRANCH  23  24
ATOM     24  C   UNL     1      -5.485  20.466  70.043  0.00  0.00    +0.115 C 
BRANCH  24  26
ATOM     25  O   UNL     1      -5.884  20.492  71.777  0.00  0.00    -0.246 OA
ATOM     26  C   UNL     1      -5.722  20.185  71.499  0.00  0.00    +0.365 C 
ATOM     27  O   UNL     1      -5.084  19.042  71.996  0.00  0.00    -0.246 OA
ENDBRANCH  24  26
ENDBRANCH  23  24
ENDBRANCH  22  23
ENDBRANCH  16  22
ENDBRANCH  15  19
ENDBRANCH   1  15
TORSDOF 8
ENDMDL
MODEL 4
REMARK VINA RESULT:      -6.8      2.504      4.429
REMARK  Name = 
REMARK  8 active torsions:
REMARK  status: ('A' for Active; 'I' for Inactive)
REMARK    1  A    between atoms: C_2  and  C_4
REMARK    2  A    between atoms: C_4  and  C_5
REMARK    3  A    between atoms: C_5  and  C_6
REMARK    4  A    between atoms: C_6  and  N_7
REMARK    5  A    between atoms: C_10  and  O_11
REMARK    6  A    between atoms: O_11  and  C_12
REMARK    7  A    between atoms: C_12  and  C_13
REMARK    8  A    between atoms: C_12  and  C_20
REMARK                            x       y       z     vdW  Elec       q    Type
REMARK                         _______ _______ _______ _____ _____    ______ ____
ROOT
ATOM      1  C   UNL     1     -10.733  14.423  69.113  0.00  0.00    +0.177 C 
ENDROOT
BRANCH   1   2
ATOM      2  C   UNL     1     -11.535  13.398  68.139  0.00  0.00    +0.010 A 
ATOM      3  C   UNL     1     -12.338  14.086  67.229  0.00  0.00    -0.001 A 
ATOM      4  C   UNL     1     -12.332  13.725  65.883  0.00  0.00    +0.011 A 
ATOM      5  C   UNL     1     -11.618  12.605  65.466  0.00  0.00    +0.058 A 
ATOM      6 CL   UNL     1     -10.819  12.550  63.896  0.00  0.00    -0.082 Cl
ATOM      7  C   UNL     1     -11.316  11.709  66.485  0.00  0.00    +0.011 A 
ATOM      8  C   UNL     1     -11.043  12.248  67.740  0.00  0.00    -0.001 A 
ENDBRANCH   1   2
BRANCH   1   9
ATOM      9  C   UNL     1     -11.942  14.652  70.176  0.00  0.00    +0.090 A 
ATOM     10  N   UNL     1     -12.511  13.652  70.752  0.00  0.00    -0.245 NA
ATOM     11  C   UNL     1     -13.387  13.867  71.734  0.00  0.00    +0.099 A 
ATOM     12  C   UNL     1     -13.371  15.073  72.423  0.00  0.00    +0.021 A 
ATOM     13  C   UNL     1     -12.328  15.942  72.129  0.00  0.00    +0.003 A 
ATOM     14  C   UNL     1     -11.746  15.832  70.877  0.00  0.00    +0.018 A 
ENDBRANCH   1   9
BRANCH   1  15
ATOM     15  O   UNL     1     -11.094  15.618  68.241  0.00  0.00    -0.348 OA
BRANCH  15  19
ATOM     16  N   UNL     1      -9.286  18.409  66.266  0.00  0.00    -0.273 NA
ATOM     17  C   UNL     1      -8.386  17.315  66.501  0.00  0.00    +0.075 C 
ATOM     18  C   UNL     1      -9.252  16.061  66.645  0.00  0.00    +0.047 C 
ATOM     19  C   UNL     1     -10.043  16.246  67.828  0.00  0.00    +0.119 C 
ATOM     20  C   UNL     1      -9.923  17.600  68.405  0.00  0.00    +0.047 C 
ATOM     21  C   UNL     1     -10.302  18.560  67.282  0.00  0.00    +0.075 C 
BRANCH  16  22
ATOM     22  C   UNL     1      -8.637  19.688  66.125  0.00  0.00    +0.073 C 
BRANCH  22  23
ATOM     23  C   UNL     1      -7.235  19.513  66.697  0.00  0.00    +0.029 C 
BRANCH  23  24
ATOM     24  C   UNL     1      -7.044  20.571  67.777  0.00  0.00    +0.115 C 
BRANCH  24  26
ATOM     25  O   UNL     1      -7.040  19.418  69.133  0.00  0.00    -0.246 OA
ATOM     26  C   UNL     1      -6.805  19.782  69.033  0.00  0.00    +0.365 C 
ATOM     27  O   UNL     1      -6.060  20.443  70.019  0.00  0.00    -0.246 OA
ENDBRANCH  24  26
ENDBRANCH  23  24
ENDBRANCH  22  23
ENDBRANCH  16  22
ENDBRANCH  15  19
ENDBRANCH   1  15
TORSDOF 8
ENDMDL
MODEL 5
REMARK VINA RESULT:      -6.7      4.478      8.144
REMARK  Name = 
REMARK  8 active torsions:
REMARK  status: ('A' for Active; 'I' for Inactive)
REMARK    1  A    between atoms: C_2  and  C_4
REMARK    2  A    between atoms: C_4  and  C_5
REMARK    3  A    between atoms: C_5  and  C_6
REMARK    4  A    between atoms: C_6  and  N_7
REMARK    5  A    between atoms: C_10  and  O_11
REMARK    6  A    between atoms: O_11  and  C_12
REMARK    7  A    between atoms: C_12  and  C_13
REMARK    8  A    between atoms: C_12  and  C_20
REMARK                            x       y       z     vdW  Elec       q    Type
REMARK                         _______ _______ _______ _____ _____    ______ ____
ROOT
ATOM      1  C   UNL     1     -10.736  13.599  69.232  0.00  0.00    +0.177 C 
ENDROOT
BRANCH   1   2
ATOM      2  C   UNL     1     -11.748  14.616  69.995  0.00  0.00    +0.010 A 
ATOM      3  C   UNL     1     -12.807  13.929  70.589  0.00  0.00    -0.001 A 
ATOM      4  C   UNL     1     -13.181  14.222  71.899  0.00  0.00    +0.011 A 
ATOM      5  C   UNL     1     -12.578  15.278  72.575  0.00  0.00    +0.058 A 
ATOM      6 CL   UNL     1     -12.271  15.211  74.309  0.00  0.00    -0.082 Cl
ATOM      7  C   UNL     1     -11.958  16.206  71.746  0.00  0.00    +0.011 A 
ATOM      8  C   UNL     1     -11.351  15.717  70.592  0.00  0.00    -0.001 A 
ENDBRANCH   1   2
BRANCH   1   9
ATOM      9  C   UNL     1     -10.767  14.353  67.792  0.00  0.00    +0.090 A 
ATOM     10  N   UNL     1      -9.694  14.487  67.094  0.00  0.00    -0.245 NA
ATOM     11  C   UNL     1      -9.769  14.964  65.852  0.00  0.00    +0.099 A 
ATOM     12  C   UNL     1     -10.974  14.909  65.162  0.00  0.00    +0.021 A 
ATOM     13  C   UNL     1     -12.010  14.217  65.776  0.00  0.00    +0.003 A 
ATOM     14  C   UNL     1     -11.979  14.125  67.158  0.00  0.00    +0.018 A 
ENDBRANCH   1   9
BRANCH   1  15
ATOM     15  O   UNL     1     -11.868  12.636  68.903  0.00  0.00    -0.348 OA
BRANCH  15  19
ATOM     16  N   UNL     1     -10.660   9.532  70.870  0.00  0.00    -0.273 NA
ATOM     17  C   UNL     1     -10.311   9.399  69.483  0.00  0.00    +0.075 C 
ATOM     18  C   UNL     1     -10.184  10.819  68.926  0.00  0.00    +0.047 C 
ATOM     19  C   UNL     1     -11.493  11.403  68.999  0.00  0.00    +0.119 C 
ATOM     20  C   UNL     1     -12.466  10.565  69.728  0.00  0.00    +0.047 C 
ATOM     21  C   UNL     1     -11.850  10.318  71.101  0.00  0.00    +0.075 C 
BRANCH  16  22
ATOM     22  C   UNL     1     -10.841   8.279  71.557  0.00  0.00    +0.073 C 
BRANCH  22  23
ATOM     23  C   UNL     1     -12.238   8.333  72.167  0.00  0.00    +0.029 C 
BRANCH  23  24
ATOM     24  C   UNL     1     -13.030   7.158  71.606  0.00  0.00    +0.115 C 
BRANCH  24  26
ATOM     25  O   UNL     1     -14.751   7.520  71.331  0.00  0.00    -0.246 OA
ATOM     26  C   UNL     1     -14.460   7.616  71.653  0.00  0.00    +0.365 C 
ATOM     27  O   UNL     1     -14.728   8.637  72.574  0.00  0.00    -0.246 OA
ENDBRANCH  24  26
ENDBRANCH  23  24
ENDBRANCH  22  23
ENDBRANCH  16  22
ENDBRANCH  15  19
ENDBRANCH   1  15
TORSDOF 8
ENDMDL
MODEL 6
REMARK VINA RESULT:      -6.6      2.245      2.618
REMARK  Name = 
REMARK  8 active torsions:
REMARK  status: ('A' for Active; 'I' for Inactive)
REMARK    1  A    between atoms: C_2  and  C_4
REMARK    2  A    between atoms: C_4  and  C_5
REMARK    3  A    between atoms: C_5  and  C_6
REMARK    4  A    between atoms: C_6  and  N_7
REMARK    5  A    between atoms: C_10  and  O_11
REMARK    6  A    between atoms: O_11  and  C_12
REMARK    7  A    between atoms: C_12  and  C_13
REMARK    8  A    between atoms: C_12  and  C_20
REMARK                            x       y       z     vdW  Elec       q    Type
REMARK                         _______ _______ _______ _____ _____    ______ ____
ROOT
ATOM      1  C   UNL     1     -11.349  15.594  67.876  0.00  0.00    +0.177 C 
ENDROOT
BRANCH   1   2
ATOM      2  C   UNL     1     -11.211  14.671  69.207  0.00  0.00    +0.010 A 
ATOM      3  C   UNL     1     -11.153  15.450  70.363  0.00  0.00    -0.001 A 
ATOM      4  C   UNL     1     -11.930  15.114  71.470  0.00  0.00    +0.011 A 
ATOM      5  C   UNL     1     -12.673  13.937  71.468  0.00  0.00    +0.058 A 
ATOM      6 CL   UNL     1     -14.240  13.832  72.266  0.00  0.00    -0.082 Cl
ATOM      7  C   UNL     1     -12.250  12.998  70.534  0.00  0.00    +0.011 A 
ATOM      8  C   UNL     1     -11.763  13.484  69.323  0.00  0.00    -0.001 A 
ENDBRANCH   1   2
BRANCH   1   9
ATOM      9  C   UNL     1     -11.454  14.369  66.813  0.00  0.00    +0.090 A 
ATOM     10  N   UNL     1     -12.546  14.146  66.169  0.00  0.00    -0.245 NA
ATOM     11  C   UNL     1     -12.563  13.242  65.190  0.00  0.00    +0.099 A 
ATOM     12  C   UNL     1     -11.375  12.867  64.576  0.00  0.00    +0.021 A 
ATOM     13  C   UNL     1     -10.238  13.578  64.936  0.00  0.00    +0.003 A 
ATOM     14  C   UNL     1     -10.232  14.172  66.187  0.00  0.00    +0.018 A 
ENDBRANCH   1   9
BRANCH   1  15
ATOM     15  O   UNL     1      -9.839  15.744  67.760  0.00  0.00    -0.348 OA
BRANCH  15  19
ATOM     16  N   UNL     1      -7.909  18.995  68.575  0.00  0.00    -0.273 NA
ATOM     17  C   UNL     1      -9.037  19.293  67.736  0.00  0.00    +0.075 C 
ATOM     18  C   UNL     1     -10.075  18.198  67.996  0.00  0.00    +0.047 C 
ATOM     19  C   UNL     1      -9.493  16.969  67.537  0.00  0.00    +0.119 C 
ATOM     20  C   UNL     1      -8.074  17.102  67.153  0.00  0.00    +0.047 C 
ATOM     21  C   UNL     1      -7.367  17.670  68.379  0.00  0.00    +0.075 C 
BRANCH  16  22
ATOM     22  C   UNL     1      -6.815  19.923  68.444  0.00  0.00    +0.073 C 
BRANCH  22  23
ATOM     23  C   UNL     1      -7.113  20.752  67.200  0.00  0.00    +0.029 C 
BRANCH  23  24
ATOM     24  C   UNL     1      -5.886  20.684  66.298  0.00  0.00    +0.115 C 
BRANCH  24  26
ATOM     25  O   UNL     1      -6.622  20.563  64.682  0.00  0.00    -0.246 OA
ATOM     26  C   UNL     1      -6.430  20.273  64.959  0.00  0.00    +0.365 C 
ATOM     27  O   UNL     1      -6.616  18.895  64.790  0.00  0.00    -0.246 OA
ENDBRANCH  24  26
ENDBRANCH  23  24
ENDBRANCH  22  23
ENDBRANCH  16  22
ENDBRANCH  15  19
ENDBRANCH   1  15
TORSDOF 8
ENDMDL
MODEL 7
REMARK VINA RESULT:      -6.5      1.885      2.482
REMARK  Name = 
REMARK  8 active torsions:
REMARK  status: ('A' for Active; 'I' for Inactive)
REMARK    1  A    between atoms: C_2  and  C_4
REMARK    2  A    between atoms: C_4  and  C_5
REMARK    3  A    between atoms: C_5  and  C_6
REMARK    4  A    between atoms: C_6  and  N_7
REMARK    5  A    between atoms: C_10  and  O_11
REMARK    6  A    between atoms: O_11  and  C_12
REMARK    7  A    between atoms: C_12  and  C_13
REMARK    8  A    between atoms: C_12  and  C_20
REMARK                            x       y       z     vdW  Elec       q    Type
REMARK                         _______ _______ _______ _____ _____    ______ ____
ROOT
ATOM      1  C   UNL     1     -11.974  13.816  67.080  0.00  0.00    +0.177 C 
ENDROOT
BRANCH   1   2
ATOM      2  C   UNL     1     -11.355  12.757  68.147  0.00  0.00    +0.010 A 
ATOM      3  C   UNL     1     -11.546  13.189  69.460  0.00  0.00    -0.001 A 
ATOM      4  C   UNL     1     -12.019  12.300  70.423  0.00  0.00    +0.011 A 
ATOM      5  C   UNL     1     -12.189  10.956  70.107  0.00  0.00    +0.058 A 
ATOM      6 CL   UNL     1     -13.497  10.001  70.803  0.00  0.00    -0.082 Cl
ATOM      7  C   UNL     1     -11.480  10.539  68.986  0.00  0.00    +0.011 A 
ATOM      8  C   UNL     1     -11.341  11.458  67.948  0.00  0.00    -0.001 A 
ENDBRANCH   1   2
BRANCH   1   9
ATOM      9  C   UNL     1     -11.875  12.847  65.779  0.00  0.00    +0.090 A 
ATOM     10  N   UNL     1     -12.875  12.711  64.980  0.00  0.00    -0.245 NA
ATOM     11  C   UNL     1     -12.722  12.041  63.838  0.00  0.00    +0.099 A 
ATOM     12  C   UNL     1     -11.451  11.870  63.302  0.00  0.00    +0.021 A 
ATOM     13  C   UNL     1     -10.415  12.545  63.934  0.00  0.00    +0.003 A 
ATOM     14  C   UNL     1     -10.584  12.854  65.274  0.00  0.00    +0.018 A 
ENDBRANCH   1   9
BRANCH   1  15
ATOM     15  O   UNL     1     -10.617  14.471  66.863  0.00  0.00    -0.348 OA
BRANCH  15  19
ATOM     16  N   UNL     1      -9.087  17.840  67.990  0.00  0.00    -0.273 NA
ATOM     17  C   UNL     1     -10.521  17.911  68.044  0.00  0.00    +0.075 C 
ATOM     18  C   UNL     1     -11.021  16.479  68.255  0.00  0.00    +0.047 C 
ATOM     19  C   UNL     1     -10.658  15.745  67.077  0.00  0.00    +0.119 C 
ATOM     20  C   UNL     1      -9.792  16.508  66.156  0.00  0.00    +0.047 C 
ATOM     21  C   UNL     1      -8.584  16.932  66.985  0.00  0.00    +0.075 C 
BRANCH  16  22
ATOM     22  C   UNL     1      -8.441  19.109  67.773  0.00  0.00    +0.073 C 
BRANCH  22  23
ATOM     23  C   UNL     1      -7.244  19.137  68.717  0.00  0.00    +0.029 C 
BRANCH  23  24
ATOM     24  C   UNL     1      -6.284  20.208  68.211  0.00  0.00    +0.115 C 
BRANCH  24  26
ATOM     25  O   UNL     1      -5.252  20.939  69.463  0.00  0.00    -0.246 OA
ATOM     26  C   UNL     1      -5.663  20.770  69.458  0.00  0.00    +0.365 C 
ATOM     27  O   UNL     1      -6.301  20.415  70.653  0.00  0.00    -0.246 OA
ENDBRANCH  24  26
ENDBRANCH  23  24
ENDBRANCH  22  23
ENDBRANCH  16  22
ENDBRANCH  15  19
ENDBRANCH   1  15
TORSDOF 8
ENDMDL
MODEL 8
REMARK VINA RESULT:      -6.4      4.185      7.880
REMARK  Name = 
REMARK  8 active torsions:
REMARK  status: ('A' for Active; 'I' for Inactive)
REMARK    1  A    between atoms: C_2  and  C_4
REMARK    2  A    between atoms: C_4  and  C_5
REMARK    3  A    between atoms: C_5  and  C_6
REMARK    4  A    between atoms: C_6  and  N_7
REMARK    5  A    between atoms: C_10  and  O_11
REMARK    6  A    between atoms: O_11  and  C_12
REMARK    7  A    between atoms: C_12  and  C_13
REMARK    8  A    between atoms: C_12  and  C_20
REMARK                            x       y       z     vdW  Elec       q    Type
REMARK                         _______ _______ _______ _____ _____    ______ ____
ROOT
ATOM      1  C   UNL     1     -10.313  13.971  67.052  0.00  0.00    +0.177 C 
ENDROOT
BRANCH   1   2
ATOM      2  C   UNL     1     -10.706  15.546  66.953  0.00  0.00    +0.010 A 
ATOM      3  C   UNL     1     -11.040  16.066  68.204  0.00  0.00    -0.001 A 
ATOM      4  C   UNL     1     -10.511  17.288  68.614  0.00  0.00    +0.011 A 
ATOM      5  C   UNL     1      -9.746  18.047  67.733  0.00  0.00    +0.058 A 
ATOM      6 CL   UNL     1      -8.387  19.020  68.291  0.00  0.00    -0.082 Cl
ATOM      7  C   UNL     1      -9.924  17.717  66.394  0.00  0.00    +0.011 A 
ATOM      8  C   UNL     1     -10.152  16.376  66.098  0.00  0.00    -0.001 A 
ENDBRANCH   1   2
BRANCH   1   9
ATOM      9  C   UNL     1     -10.832  13.559  65.567  0.00  0.00    +0.090 A 
ATOM     10  N   UNL     1     -10.118  12.805  64.805  0.00  0.00    -0.245 NA
ATOM     11  C   UNL     1     -10.629  12.351  63.661  0.00  0.00    +0.099 A 
ATOM     12  C   UNL     1     -12.007  12.308  63.488  0.00  0.00    +0.021 A 
ATOM     13  C   UNL     1     -12.782  12.619  64.598  0.00  0.00    +0.003 A 
ATOM     14  C   UNL     1     -12.213  13.438  65.559  0.00  0.00    +0.018 A 
ENDBRANCH   1   9
BRANCH   1  15
ATOM     15  O   UNL     1     -11.624  13.634  67.749  0.00  0.00    -0.348 OA
BRANCH  15  19
ATOM     16  N   UNL     1     -11.803  10.268  69.646  0.00  0.00    -0.273 NA
ATOM     17  C   UNL     1     -11.713  11.352  70.582  0.00  0.00    +0.075 C 
ATOM     18  C   UNL     1     -12.304  12.581  69.885  0.00  0.00    +0.047 C 
ATOM     19  C   UNL     1     -11.438  12.877  68.780  0.00  0.00    +0.119 C 
ATOM     20  C   UNL     1     -10.406  11.846  68.554  0.00  0.00    +0.047 C 
ATOM     21  C   UNL     1     -11.166  10.535  68.376  0.00  0.00    +0.075 C 
BRANCH  16  22
ATOM     22  C   UNL     1     -11.268   9.021  70.131  0.00  0.00    +0.073 C 
BRANCH  22  23
ATOM     23  C   UNL     1     -11.648   8.948  71.606  0.00  0.00    +0.029 C 
BRANCH  23  24
ATOM     24  C   UNL     1     -12.804   7.964  71.735  0.00  0.00    +0.115 C 
BRANCH  24  26
ATOM     25  O   UNL     1     -13.899   9.205  72.389  0.00  0.00    -0.246 OA
ATOM     26  C   UNL     1     -13.957   8.803  72.208  0.00  0.00    +0.365 C 
ATOM     27  O   UNL     1     -15.166   8.115  72.370  0.00  0.00    -0.246 OA
ENDBRANCH  24  26
ENDBRANCH  23  24
ENDBRANCH  22  23
ENDBRANCH  16  22
ENDBRANCH  15  19
ENDBRANCH   1  15
TORSDOF 8
ENDMDL
MODEL 9
REMARK VINA RESULT:      -6.4      3.990      6.637
REMARK  Name = 
REMARK  8 active torsions:
REMARK  status: ('A' for Active; 'I' for Inactive)
REMARK    1  A    between atoms: C_2  and  C_4
REMARK    2  A    between atoms: C_4  and  C_5
REMARK    3  A    between atoms: C_5  and  C_6
REMARK    4  A    between atoms: C_6  and  N_7
REMARK    5  A    between atoms: C_10  and  O_11
REMARK    6  A    between atoms: O_11  and  C_12
REMARK    7  A    between atoms: C_12  and  C_13
REMARK    8  A    between atoms: C_12  and  C_20
REMARK                            x       y       z     vdW  Elec       q    Type
REMARK                         _______ _______ _______ _____ _____    ______ ____
ROOT
ATOM      1  C   UNL     1     -10.594  11.051  69.319  0.00  0.00    +0.177 C 
ENDROOT
BRANCH   1   2
ATOM      2  C   UNL     1      -9.731   9.965  68.471  0.00  0.00    +0.010 A 
ATOM      3  C   UNL     1     -10.561   9.044  67.832  0.00  0.00    -0.001 A 
ATOM      4  C   UNL     1     -10.342   8.719  66.494  0.00  0.00    +0.011 A 
ATOM      5  C   UNL     1      -9.228   9.221  65.829  0.00  0.00    +0.058 A 
ATOM      6 CL   UNL     1      -9.284   9.643  64.119  0.00  0.00    -0.082 Cl
ATOM      7  C   UNL     1      -8.212   9.663  66.671  0.00  0.00    +0.011 A 
ATOM      8  C   UNL     1      -8.598  10.254  67.871  0.00  0.00    -0.001 A 
ENDBRANCH   1   2
BRANCH   1   9
ATOM      9  C   UNL     1     -11.354   9.977  70.273  0.00  0.00    +0.090 A 
ATOM     10  N   UNL     1     -10.697   9.273  71.129  0.00  0.00    -0.245 NA
ATOM     11  C   UNL     1     -11.356   8.518  72.007  0.00  0.00    +0.099 A 
ATOM     12  C   UNL     1     -12.685   8.799  72.301  0.00  0.00    +0.021 A 
ATOM     13  C   UNL     1     -13.210   9.961  71.751  0.00  0.00    +0.003 A 
ATOM     14  C   UNL     1     -12.627  10.430  70.585  0.00  0.00    +0.018 A 
ENDBRANCH   1   9
BRANCH   1  15
ATOM     15  O   UNL     1     -11.687  11.087  68.260  0.00  0.00    -0.348 OA
BRANCH  15  19
ATOM     16  N   UNL     1     -10.362  14.334  66.628  0.00  0.00    -0.273 NA
ATOM     17  C   UNL     1     -11.632  14.582  67.250  0.00  0.00    +0.075 C 
ATOM     18  C   UNL     1     -11.772  13.559  68.381  0.00  0.00    +0.047 C 
ATOM     19  C   UNL     1     -11.830  12.268  67.757  0.00  0.00    +0.119 C 
ATOM     20  C   UNL     1     -11.557  12.308  66.306  0.00  0.00    +0.047 C 
ATOM     21  C   UNL     1     -10.193  12.976  66.162  0.00  0.00    +0.075 C 
BRANCH  16  22
ATOM     22  C   UNL     1     -10.068  15.201  65.516  0.00  0.00    +0.073 C 
BRANCH  22  23
ATOM     23  C   UNL     1     -10.489  16.600  65.953  0.00  0.00    +0.029 C 
BRANCH  23  24
ATOM     24  C   UNL     1      -9.309  17.227  66.686  0.00  0.00    +0.115 C 
BRANCH  24  26
ATOM     25  O   UNL     1      -9.863  17.796  68.279  0.00  0.00    -0.246 OA
ATOM     26  C   UNL     1      -9.930  17.929  67.860  0.00  0.00    +0.365 C 
ATOM     27  O   UNL     1     -10.994  18.785  67.547  0.00  0.00    -0.246 OA
ENDBRANCH  24  26
ENDBRANCH  23  24
ENDBRANCH  22  23
ENDBRANCH  16  22
ENDBRANCH  15  19
ENDBRANCH   1  15
TORSDOF 8
ENDMDL
