MODEL 1
REMARK VINA RESULT:      -5.2      0.000      0.000
REMARK  Name = 
REMARK  2 active torsions:
REMARK  status: ('A' for Active; 'I' for Inactive)
REMARK    1  A    between atoms: C_2  and  C_4
REMARK    2  A    between atoms: C_8  and  C_9
REMARK                            x       y       z     vdW  Elec       q    Type
REMARK                         _______ _______ _______ _____ _____    ______ ____
ROOT
ATOM      1  C   UNL     1     -11.496  14.149  68.236  0.00  0.00    +0.016 A 
ATOM      2  C   UNL     1     -11.901  15.067  69.194  0.00  0.00    +0.188 A 
ATOM      3  O   UNL     1     -11.871  16.414  68.905  0.00  0.00    -0.287 OA
ATOM      4  C   UNL     1     -12.351  14.673  70.444  0.00  0.00    +0.016 A 
ATOM      5  C   UNL     1     -12.393  13.302  70.659  0.00  0.00    -0.001 A 
ATOM      6  C   UNL     1     -11.850  12.415  69.766  0.00  0.00    -0.000 A 
ATOM      7  C   UNL     1     -11.687  12.790  68.455  0.00  0.00    -0.001 A 
ENDROOT
BRANCH   1   9
ATOM      8  C   UNL     1     -12.398  13.866  65.935  0.00  0.00    +0.005 C 
ATOM      9  C   UNL     1     -11.344  14.528  66.796  0.00  0.00    +0.025 C 
ATOM     10  C   UNL     1      -9.964  14.179  66.271  0.00  0.00    +0.005 C 
ENDBRANCH   1   9
BRANCH   4  11
ATOM     11  C   UNL     1     -12.948  15.582  71.433  0.00  0.00    +0.025 C 
ATOM     12  C   UNL     1     -12.038  15.960  72.558  0.00  0.00    +0.005 C 
ATOM     13  C   UNL     1     -14.329  15.200  71.869  0.00  0.00    +0.005 C 
ENDBRANCH   4  11
TORSDOF 2
ENDMDL
MODEL 2
REMARK VINA RESULT:      -4.9      1.791      4.907
REMARK  Name = 
REMARK  2 active torsions:
REMARK  status: ('A' for Active; 'I' for Inactive)
REMARK    1  A    between atoms: C_2  and  C_4
REMARK    2  A    between atoms: C_8  and  C_9
REMARK                            x       y       z     vdW  Elec       q    Type
REMARK                         _______ _______ _______ _____ _____    ______ ____
ROOT
ATOM      1  C   UNL     1     -12.492  14.390  70.923  0.00  0.00    +0.016 A 
ATOM      2  C   UNL     1     -12.115  13.279  70.184  0.00  0.00    +0.188 A 
ATOM      3  O   UNL     1     -12.328  12.016  70.692  0.00  0.00    -0.287 OA
ATOM      4  C   UNL     1     -11.534  13.393  68.931  0.00  0.00    +0.016 A 
ATOM      5  C   UNL     1     -11.381  14.690  68.459  0.00  0.00    -0.001 A 
ATOM      6  C   UNL     1     -11.615  15.780  69.257  0.00  0.00    -0.000 A 
ATOM      7  C   UNL     1     -12.441  15.654  70.347  0.00  0.00    -0.001 A 
ENDROOT
BRANCH   1   9
ATOM      8  C   UNL     1     -14.777  14.867  71.782  0.00  0.00    +0.005 C 
ATOM      9  C   UNL     1     -13.417  14.281  72.095  0.00  0.00    +0.025 C 
ATOM     10  C   UNL     1     -12.841  14.958  73.324  0.00  0.00    +0.005 C 
ENDBRANCH   1   9
BRANCH   4  11
ATOM     11  C   UNL     1     -11.269  12.259  68.035  0.00  0.00    +0.025 C 
ATOM     12  C   UNL     1      -9.898  11.676  68.158  0.00  0.00    +0.005 C 
ATOM     13  C   UNL     1     -11.715  12.471  66.620  0.00  0.00    +0.005 C 
ENDBRANCH   4  11
TORSDOF 2
ENDMDL
MODEL 3
REMARK VINA RESULT:      -4.9      4.245      4.859
REMARK  Name = 
REMARK  2 active torsions:
REMARK  status: ('A' for Active; 'I' for Inactive)
REMARK    1  A    between atoms: C_2  and  C_4
REMARK    2  A    between atoms: C_8  and  C_9
REMARK                            x       y       z     vdW  Elec       q    Type
REMARK                         _______ _______ _______ _____ _____    ______ ____
ROOT
ATOM      1  C   UNL     1     -10.563  14.599  65.158  0.00  0.00    +0.016 A 
ATOM      2  C   UNL     1     -10.504  15.984  65.214  0.00  0.00    +0.188 A 
ATOM      3  O   UNL     1     -11.270  16.736  64.351  0.00  0.00    -0.287 OA
ATOM      4  C   UNL     1      -9.699  16.648  66.127  0.00  0.00    +0.016 A 
ATOM      5  C   UNL     1      -8.981  15.834  66.993  0.00  0.00    -0.001 A 
ATOM      6  C   UNL     1      -8.931  14.474  66.830  0.00  0.00    -0.000 A 
ATOM      7  C   UNL     1      -9.931  13.839  66.135  0.00  0.00    -0.001 A 
ENDROOT
BRANCH   1   9
ATOM      8  C   UNL     1     -12.807  13.547  65.365  0.00  0.00    +0.005 C 
ATOM      9  C   UNL     1     -11.663  13.886  64.434  0.00  0.00    +0.025 C 
ATOM     10  C   UNL     1     -11.159  12.623  63.763  0.00  0.00    +0.005 C 
ENDBRANCH   1   9
BRANCH   4  11
ATOM     11  C   UNL     1      -9.720  18.101  66.346  0.00  0.00    +0.025 C 
ATOM     12  C   UNL     1      -8.379  18.760  66.279  0.00  0.00    +0.005 C 
ATOM     13  C   UNL     1     -10.557  18.539  67.508  0.00  0.00    +0.005 C 
ENDBRANCH   4  11
TORSDOF 2
ENDMDL
MODEL 4
REMARK VINA RESULT:      -4.8      2.425      5.111
REMARK  Name = 
REMARK  2 active torsions:
REMARK  status: ('A' for Active; 'I' for Inactive)
REMARK    1  A    between atoms: C_2  and  C_4
REMARK    2  A    between atoms: C_8  and  C_9
REMARK                            x       y       z     vdW  Elec       q    Type
REMARK                         _______ _______ _______ _____ _____    ______ ____
ROOT
ATOM      1  C   UNL     1     -11.857  11.690  69.731  0.00  0.00    +0.016 A 
ATOM      2  C   UNL     1     -11.717  11.696  68.351  0.00  0.00    +0.188 A 
ATOM      3  O   UNL     1     -11.603  10.504  67.670  0.00  0.00    -0.287 OA
ATOM      4  C   UNL     1     -11.697  12.874  67.620  0.00  0.00    +0.016 A 
ATOM      5  C   UNL     1     -11.853  14.039  68.360  0.00  0.00    -0.001 A 
ATOM      6  C   UNL     1     -11.838  14.030  69.732  0.00  0.00    -0.000 A 
ATOM      7  C   UNL     1     -12.145  12.872  70.402  0.00  0.00    -0.001 A 
ENDROOT
BRANCH   1   9
ATOM      8  C   UNL     1     -13.103  10.759  71.672  0.00  0.00    +0.005 C 
ATOM      9  C   UNL     1     -12.223  10.447  70.480  0.00  0.00    +0.025 C 
ATOM     10  C   UNL     1     -10.992   9.690  70.939  0.00  0.00    +0.005 C 
ENDBRANCH   1   9
BRANCH   4  11
ATOM     11  C   UNL     1     -11.719  12.938  66.153  0.00  0.00    +0.025 C 
ATOM     12  C   UNL     1     -10.370  13.033  65.513  0.00  0.00    +0.005 C 
ATOM     13  C   UNL     1     -12.727  13.894  65.591  0.00  0.00    +0.005 C 
ENDBRANCH   4  11
TORSDOF 2
ENDMDL
MODEL 5
REMARK VINA RESULT:      -4.8      0.648      4.569
REMARK  Name = 
REMARK  2 active torsions:
REMARK  status: ('A' for Active; 'I' for Inactive)
REMARK    1  A    between atoms: C_2  and  C_4
REMARK    2  A    between atoms: C_8  and  C_9
REMARK                            x       y       z     vdW  Elec       q    Type
REMARK                         _______ _______ _______ _____ _____    ______ ____
ROOT
ATOM      1  C   UNL     1     -12.540  14.632  70.394  0.00  0.00    +0.016 A 
ATOM      2  C   UNL     1     -11.878  15.073  69.257  0.00  0.00    +0.188 A 
ATOM      3  O   UNL     1     -11.891  16.413  68.936  0.00  0.00    -0.287 OA
ATOM      4  C   UNL     1     -11.185  14.206  68.428  0.00  0.00    +0.016 A 
ATOM      5  C   UNL     1     -11.177  12.876  68.827  0.00  0.00    -0.001 A 
ATOM      6  C   UNL     1     -11.958  12.429  69.862  0.00  0.00    -0.000 A 
ATOM      7  C   UNL     1     -12.385  13.317  70.818  0.00  0.00    -0.001 A 
ENDROOT
BRANCH   1   9
ATOM      8  C   UNL     1     -11.991  15.635  72.603  0.00  0.00    +0.005 C 
ATOM      9  C   UNL     1     -12.986  15.579  71.464  0.00  0.00    +0.025 C 
ATOM     10  C   UNL     1     -14.356  15.206  72.000  0.00  0.00    +0.005 C 
ENDBRANCH   1   9
BRANCH   4  11
ATOM     11  C   UNL     1     -10.331  14.633  67.311  0.00  0.00    +0.025 C 
ATOM     12  C   UNL     1     -11.003  14.627  65.976  0.00  0.00    +0.005 C 
ATOM     13  C   UNL     1      -8.964  14.019  67.308  0.00  0.00    +0.005 C 
ENDBRANCH   4  11
TORSDOF 2
ENDMDL
MODEL 6
REMARK VINA RESULT:      -4.8      2.833      4.890
REMARK  Name = 
REMARK  2 active torsions:
REMARK  status: ('A' for Active; 'I' for Inactive)
REMARK    1  A    between atoms: C_2  and  C_4
REMARK    2  A    between atoms: C_8  and  C_9
REMARK                            x       y       z     vdW  Elec       q    Type
REMARK                         _______ _______ _______ _____ _____    ______ ____
ROOT
ATOM      1  C   UNL     1      -9.765  17.256  67.714  0.00  0.00    +0.016 A 
ATOM      2  C   UNL     1     -10.768  16.312  67.878  0.00  0.00    +0.188 A 
ATOM      3  O   UNL     1     -11.760  16.524  68.811  0.00  0.00    -0.287 OA
ATOM      4  C   UNL     1     -10.815  15.152  67.122  0.00  0.00    +0.016 A 
ATOM      5  C   UNL     1      -9.809  15.015  66.174  0.00  0.00    -0.001 A 
ATOM      6  C   UNL     1      -8.743  15.876  66.125  0.00  0.00    -0.000 A 
ATOM      7  C   UNL     1      -8.865  17.133  66.662  0.00  0.00    -0.001 A 
ENDROOT
BRANCH   1   9
ATOM      8  C   UNL     1     -10.595  19.561  67.287  0.00  0.00    +0.005 C 
ATOM      9  C   UNL     1      -9.891  18.643  68.262  0.00  0.00    +0.025 C 
ATOM     10  C   UNL     1      -8.537  19.224  68.624  0.00  0.00    +0.005 C 
ENDBRANCH   1   9
BRANCH   4  11
ATOM     11  C   UNL     1     -11.936  14.201  67.133  0.00  0.00    +0.025 C 
ATOM     12  C   UNL     1     -11.725  13.000  67.999  0.00  0.00    +0.005 C 
ATOM     13  C   UNL     1     -12.491  13.884  65.778  0.00  0.00    +0.005 C 
ENDBRANCH   4  11
TORSDOF 2
ENDMDL
MODEL 7
REMARK VINA RESULT:      -4.7      2.543      4.375
REMARK  Name = 
REMARK  2 active torsions:
REMARK  status: ('A' for Active; 'I' for Inactive)
REMARK    1  A    between atoms: C_2  and  C_4
REMARK    2  A    between atoms: C_8  and  C_9
REMARK                            x       y       z     vdW  Elec       q    Type
REMARK                         _______ _______ _______ _____ _____    ______ ____
ROOT
ATOM      1  C   UNL     1     -12.440  11.182  70.842  0.00  0.00    +0.016 A 
ATOM      2  C   UNL     1     -12.847  12.376  71.417  0.00  0.00    +0.188 A 
ATOM      3  O   UNL     1     -13.523  12.361  72.618  0.00  0.00    -0.287 OA
ATOM      4  C   UNL     1     -12.587  13.602  70.826  0.00  0.00    +0.016 A 
ATOM      5  C   UNL     1     -11.870  13.552  69.638  0.00  0.00    -0.001 A 
ATOM      6  C   UNL     1     -11.606  12.365  69.004  0.00  0.00    -0.000 A 
ATOM      7  C   UNL     1     -11.610  11.198  69.727  0.00  0.00    -0.001 A 
ENDROOT
BRANCH   1   9
ATOM      8  C   UNL     1     -11.180   9.082  71.279  0.00  0.00    +0.005 C 
ATOM      9  C   UNL     1     -12.405   9.904  71.621  0.00  0.00    +0.025 C 
ATOM     10  C   UNL     1     -13.655   9.077  71.390  0.00  0.00    +0.005 C 
ENDBRANCH   1   9
BRANCH   4  11
ATOM     11  C   UNL     1     -12.844  14.901  71.464  0.00  0.00    +0.025 C 
ATOM     12  C   UNL     1     -14.285  15.298  71.509  0.00  0.00    +0.005 C 
ATOM     13  C   UNL     1     -11.923  15.998  71.025  0.00  0.00    +0.005 C 
ENDBRANCH   4  11
TORSDOF 2
ENDMDL
MODEL 8
REMARK VINA RESULT:      -4.5      4.506      6.660
REMARK  Name = 
REMARK  2 active torsions:
REMARK  status: ('A' for Active; 'I' for Inactive)
REMARK    1  A    between atoms: C_2  and  C_4
REMARK    2  A    between atoms: C_8  and  C_9
REMARK                            x       y       z     vdW  Elec       q    Type
REMARK                         _______ _______ _______ _____ _____    ______ ____
ROOT
ATOM      1  C   UNL     1     -11.243   8.568  71.916  0.00  0.00    +0.016 A 
ATOM      2  C   UNL     1     -10.804   9.509  70.996  0.00  0.00    +0.188 A 
ATOM      3  O   UNL     1      -9.504   9.464  70.542  0.00  0.00    -0.287 OA
ATOM      4  C   UNL     1     -11.639  10.499  70.503  0.00  0.00    +0.016 A 
ATOM      5  C   UNL     1     -12.945  10.467  70.972  0.00  0.00    -0.001 A 
ATOM      6  C   UNL     1     -13.326   9.631  71.990  0.00  0.00    -0.000 A 
ATOM      7  C   UNL     1     -12.592   8.499  72.245  0.00  0.00    -0.001 A 
ENDROOT
BRANCH   1   9
ATOM      8  C   UNL     1     -11.091   6.124  71.476  0.00  0.00    +0.005 C 
ATOM      9  C   UNL     1     -10.476   7.311  72.186  0.00  0.00    +0.025 C 
ATOM     10  C   UNL     1     -10.384   7.024  73.673  0.00  0.00    +0.005 C 
ENDBRANCH   1   9
BRANCH   4  11
ATOM     11  C   UNL     1     -11.282  11.414  69.410  0.00  0.00    +0.025 C 
ATOM     12  C   UNL     1     -11.780  12.814  69.583  0.00  0.00    +0.005 C 
ATOM     13  C   UNL     1     -11.502  10.854  68.038  0.00  0.00    +0.005 C 
ENDBRANCH   4  11
TORSDOF 2
ENDMDL
MODEL 9
REMARK VINA RESULT:      -4.5      1.659      2.713
REMARK  Name = 
REMARK  2 active torsions:
REMARK  status: ('A' for Active; 'I' for Inactive)
REMARK    1  A    between atoms: C_2  and  C_4
REMARK    2  A    between atoms: C_8  and  C_9
REMARK                            x       y       z     vdW  Elec       q    Type
REMARK                         _______ _______ _______ _____ _____    ______ ____
ROOT
ATOM      1  C   UNL     1     -11.502  13.255  68.618  0.00  0.00    +0.016 A 
ATOM      2  C   UNL     1     -12.053  13.415  69.881  0.00  0.00    +0.188 A 
ATOM      3  O   UNL     1     -12.331  12.306  70.651  0.00  0.00    -0.287 OA
ATOM      4  C   UNL     1     -12.328  14.666  70.409  0.00  0.00    +0.016 A 
ATOM      5  C   UNL     1     -11.991  15.743  69.600  0.00  0.00    -0.001 A 
ATOM      6  C   UNL     1     -11.590  15.571  68.299  0.00  0.00    -0.000 A 
ATOM      7  C   UNL     1     -11.060  14.366  67.910  0.00  0.00    -0.001 A 
ENDROOT
BRANCH   1   9
ATOM      8  C   UNL     1      -9.380  11.996  68.303  0.00  0.00    +0.005 C 
ATOM      9  C   UNL     1     -10.889  11.960  68.184  0.00  0.00    +0.025 C 
ATOM     10  C   UNL     1     -11.280  11.608  66.761  0.00  0.00    +0.005 C 
ENDBRANCH   1   9
BRANCH   4  11
ATOM     11  C   UNL     1     -12.752  14.905  71.795  0.00  0.00    +0.025 C 
ATOM     12  C   UNL     1     -14.233  14.995  71.986  0.00  0.00    +0.005 C 
ATOM     13  C   UNL     1     -11.981  15.978  72.502  0.00  0.00    +0.005 C 
ENDBRANCH   4  11
TORSDOF 2
ENDMDL
