MODEL 1
REMARK VINA RESULT:      -3.9      0.000      0.000
REMARK  Name = 
REMARK  2 active torsions:
REMARK  status: ('A' for Active; 'I' for Inactive)
REMARK    1  A    between atoms: C_2  and  C_3
REMARK    2  A    between atoms: C_3  and  S_4
REMARK                            x       y       z     vdW  Elec       q    Type
REMARK                         _______ _______ _______ _____ _____    ______ ____
ROOT
ATOM      1  S   UNL     1     -12.363  13.233  65.023  0.00  0.00    -0.106 S 
ATOM      2  O   UNL     1     -12.825  12.504  63.567  0.00  0.00    -0.291 OA
ATOM      3  O   UNL     1     -12.106  12.201  66.067  0.00  0.00    -0.371 OA
ATOM      4  O   UNL     1     -13.531  14.053  65.451  0.00  0.00    -0.371 OA
ENDROOT
BRANCH   1   5
ATOM      5  C   UNL     1     -10.904  14.159  64.713  0.00  0.00    +0.146 C 
BRANCH   5   7
ATOM      6  N   UNL     1     -11.508  16.348  64.013  0.00  0.00    -0.130 NA
ATOM      7  C   UNL     1     -10.971  15.589  65.141  0.00  0.00    +0.132 C 
ENDBRANCH   5   7
ENDBRANCH   1   5
TORSDOF 2
ENDMDL
MODEL 2
REMARK VINA RESULT:      -3.8      7.954      8.281
REMARK  Name = 
REMARK  2 active torsions:
REMARK  status: ('A' for Active; 'I' for Inactive)
REMARK    1  A    between atoms: C_2  and  C_3
REMARK    2  A    between atoms: C_3  and  S_4
REMARK                            x       y       z     vdW  Elec       q    Type
REMARK                         _______ _______ _______ _____ _____    ______ ____
ROOT
ATOM      1  S   UNL     1     -14.078  14.691  71.923  0.00  0.00    -0.106 S 
ATOM      2  O   UNL     1     -13.011  14.636  70.609  0.00  0.00    -0.291 OA
ATOM      3  O   UNL     1     -14.167  13.356  72.581  0.00  0.00    -0.371 OA
ATOM      4  O   UNL     1     -15.411  15.019  71.346  0.00  0.00    -0.371 OA
ENDROOT
BRANCH   1   5
ATOM      5  C   UNL     1     -13.465  15.885  73.055  0.00  0.00    +0.146 C 
BRANCH   5   7
ATOM      6  N   UNL     1     -12.457  16.290  75.167  0.00  0.00    -0.130 NA
ATOM      7  C   UNL     1     -12.474  15.359  74.040  0.00  0.00    +0.132 C 
ENDBRANCH   5   7
ENDBRANCH   1   5
TORSDOF 2
ENDMDL
MODEL 3
REMARK VINA RESULT:      -3.8      7.934      8.411
REMARK  Name = 
REMARK  2 active torsions:
REMARK  status: ('A' for Active; 'I' for Inactive)
REMARK    1  A    between atoms: C_2  and  C_3
REMARK    2  A    between atoms: C_3  and  S_4
REMARK                            x       y       z     vdW  Elec       q    Type
REMARK                         _______ _______ _______ _____ _____    ______ ____
ROOT
ATOM      1  S   UNL     1     -13.825  14.893  71.817  0.00  0.00    -0.106 S 
ATOM      2  O   UNL     1     -14.080  13.423  72.617  0.00  0.00    -0.291 OA
ATOM      3  O   UNL     1     -15.126  15.520  71.448  0.00  0.00    -0.371 OA
ATOM      4  O   UNL     1     -13.097  14.549  70.564  0.00  0.00    -0.371 OA
ENDROOT
BRANCH   1   5
ATOM      5  C   UNL     1     -12.933  15.942  72.907  0.00  0.00    +0.146 C 
BRANCH   5   7
ATOM      6  N   UNL     1     -12.476  16.277  75.214  0.00  0.00    -0.130 NA
ATOM      7  C   UNL     1     -12.440  15.276  74.149  0.00  0.00    +0.132 C 
ENDBRANCH   5   7
ENDBRANCH   1   5
TORSDOF 2
ENDMDL
MODEL 4
REMARK VINA RESULT:      -3.8      0.215      1.685
REMARK  Name = 
REMARK  2 active torsions:
REMARK  status: ('A' for Active; 'I' for Inactive)
REMARK    1  A    between atoms: C_2  and  C_3
REMARK    2  A    between atoms: C_3  and  S_4
REMARK                            x       y       z     vdW  Elec       q    Type
REMARK                         _______ _______ _______ _____ _____    ______ ____
ROOT
ATOM      1  S   UNL     1     -12.417  13.198  65.039  0.00  0.00    -0.106 S 
ATOM      2  O   UNL     1     -12.034  12.109  66.277  0.00  0.00    -0.291 OA
ATOM      3  O   UNL     1     -13.523  14.104  65.462  0.00  0.00    -0.371 OA
ATOM      4  O   UNL     1     -12.903  12.364  63.905  0.00  0.00    -0.371 OA
ENDROOT
BRANCH   1   5
ATOM      5  C   UNL     1     -10.972  14.130  64.685  0.00  0.00    +0.146 C 
BRANCH   5   7
ATOM      6  N   UNL     1     -11.325  16.433  64.224  0.00  0.00    -0.130 NA
ATOM      7  C   UNL     1     -10.951  15.498  65.284  0.00  0.00    +0.132 C 
ENDBRANCH   5   7
ENDBRANCH   1   5
TORSDOF 2
ENDMDL
MODEL 5
REMARK VINA RESULT:      -3.7      7.009      7.463
REMARK  Name = 
REMARK  2 active torsions:
REMARK  status: ('A' for Active; 'I' for Inactive)
REMARK    1  A    between atoms: C_2  and  C_3
REMARK    2  A    between atoms: C_3  and  S_4
REMARK                            x       y       z     vdW  Elec       q    Type
REMARK                         _______ _______ _______ _____ _____    ______ ____
ROOT
ATOM      1  S   UNL     1     -13.375  15.559  72.672  0.00  0.00    -0.106 S 
ATOM      2  O   UNL     1     -13.463  13.886  72.915  0.00  0.00    -0.291 OA
ATOM      3  O   UNL     1     -13.108  16.261  73.959  0.00  0.00    -0.371 OA
ATOM      4  O   UNL     1     -14.723  15.967  72.186  0.00  0.00    -0.371 OA
ENDROOT
BRANCH   1   5
ATOM      5  C   UNL     1     -12.073  15.863  71.534  0.00  0.00    +0.146 C 
BRANCH   5   7
ATOM      6  N   UNL     1     -11.776  16.309  69.219  0.00  0.00    -0.130 NA
ATOM      7  C   UNL     1     -12.308  15.325  70.160  0.00  0.00    +0.132 C 
ENDBRANCH   5   7
ENDBRANCH   1   5
TORSDOF 2
ENDMDL
MODEL 6
REMARK VINA RESULT:      -3.5      1.724      2.223
REMARK  Name = 
REMARK  2 active torsions:
REMARK  status: ('A' for Active; 'I' for Inactive)
REMARK    1  A    between atoms: C_2  and  C_3
REMARK    2  A    between atoms: C_3  and  S_4
REMARK                            x       y       z     vdW  Elec       q    Type
REMARK                         _______ _______ _______ _____ _____    ______ ____
ROOT
ATOM      1  S   UNL     1     -12.164  14.461  64.338  0.00  0.00    -0.106 S 
ATOM      2  O   UNL     1     -12.309  16.078  63.857  0.00  0.00    -0.291 OA
ATOM      3  O   UNL     1     -12.464  13.548  63.199  0.00  0.00    -0.371 OA
ATOM      4  O   UNL     1     -13.200  14.258  65.388  0.00  0.00    -0.371 OA
ENDROOT
BRANCH   1   5
ATOM      5  C   UNL     1     -10.515  14.218  64.892  0.00  0.00    +0.146 C 
BRANCH   5   7
ATOM      6  N   UNL     1      -9.444  16.196  65.656  0.00  0.00    -0.130 NA
ATOM      7  C   UNL     1     -10.147  14.998  66.111  0.00  0.00    +0.132 C 
ENDBRANCH   5   7
ENDBRANCH   1   5
TORSDOF 2
ENDMDL
MODEL 7
REMARK VINA RESULT:      -3.4      2.869      3.034
REMARK  Name = 
REMARK  2 active torsions:
REMARK  status: ('A' for Active; 'I' for Inactive)
REMARK    1  A    between atoms: C_2  and  C_3
REMARK    2  A    between atoms: C_3  and  S_4
REMARK                            x       y       z     vdW  Elec       q    Type
REMARK                         _______ _______ _______ _____ _____    ______ ____
ROOT
ATOM      1  S   UNL     1     -12.220  13.467  64.754  0.00  0.00    -0.106 S 
ATOM      2  O   UNL     1     -10.696  13.029  64.163  0.00  0.00    -0.291 OA
ATOM      3  O   UNL     1     -13.217  12.394  64.477  0.00  0.00    -0.371 OA
ATOM      4  O   UNL     1     -12.615  14.682  63.989  0.00  0.00    -0.371 OA
ENDROOT
BRANCH   1   5
ATOM      5  C   UNL     1     -12.066  13.720  66.485  0.00  0.00    +0.146 C 
BRANCH   5   7
ATOM      6  N   UNL     1     -11.923  11.604  67.555  0.00  0.00    -0.130 NA
ATOM      7  C   UNL     1     -11.135  12.775  67.172  0.00  0.00    +0.132 C 
ENDBRANCH   5   7
ENDBRANCH   1   5
TORSDOF 2
ENDMDL
MODEL 8
REMARK VINA RESULT:      -3.3      3.011      3.338
REMARK  Name = 
REMARK  2 active torsions:
REMARK  status: ('A' for Active; 'I' for Inactive)
REMARK    1  A    between atoms: C_2  and  C_3
REMARK    2  A    between atoms: C_3  and  S_4
REMARK                            x       y       z     vdW  Elec       q    Type
REMARK                         _______ _______ _______ _____ _____    ______ ____
ROOT
ATOM      1  S   UNL     1     -11.214  15.178  65.201  0.00  0.00    -0.106 S 
ATOM      2  O   UNL     1     -11.575  16.317  64.001  0.00  0.00    -0.291 OA
ATOM      3  O   UNL     1     -10.870  15.859  66.481  0.00  0.00    -0.371 OA
ATOM      4  O   UNL     1     -10.008  14.451  64.716  0.00  0.00    -0.371 OA
ENDROOT
BRANCH   1   5
ATOM      5  C   UNL     1     -12.632  14.165  65.414  0.00  0.00    +0.146 C 
BRANCH   5   7
ATOM      6  N   UNL     1     -12.654  12.735  63.518  0.00  0.00    -0.130 NA
ATOM      7  C   UNL     1     -12.460  12.751  64.967  0.00  0.00    +0.132 C 
ENDBRANCH   5   7
ENDBRANCH   1   5
TORSDOF 2
ENDMDL
MODEL 9
REMARK VINA RESULT:      -3.3      2.847      3.126
REMARK  Name = 
REMARK  2 active torsions:
REMARK  status: ('A' for Active; 'I' for Inactive)
REMARK    1  A    between atoms: C_2  and  C_3
REMARK    2  A    between atoms: C_3  and  S_4
REMARK                            x       y       z     vdW  Elec       q    Type
REMARK                         _______ _______ _______ _____ _____    ______ ____
ROOT
ATOM      1  S   UNL     1     -11.942  14.270  64.496  0.00  0.00    -0.106 S 
ATOM      2  O   UNL     1     -12.359  15.810  63.932  0.00  0.00    -0.291 OA
ATOM      3  O   UNL     1     -10.461  14.105  64.520  0.00  0.00    -0.371 OA
ATOM      4  O   UNL     1     -12.504  13.312  63.504  0.00  0.00    -0.371 OA
ENDROOT
BRANCH   1   5
ATOM      5  C   UNL     1     -12.598  14.102  66.116  0.00  0.00    +0.146 C 
BRANCH   5   7
ATOM      6  N   UNL     1     -11.916  11.908  66.719  0.00  0.00    -0.130 NA
ATOM      7  C   UNL     1     -11.742  13.320  67.057  0.00  0.00    +0.132 C 
ENDBRANCH   5   7
ENDBRANCH   1   5
TORSDOF 2
ENDMDL
