MODEL 1
REMARK VINA RESULT:      -6.6      0.000      0.000
REMARK  Name = 
REMARK  4 active torsions:
REMARK  status: ('A' for Active; 'I' for Inactive)
REMARK    1  A    between atoms: C_2  and  C_3
REMARK    2  A    between atoms: C_3  and  O_4
REMARK    3  A    between atoms: O_4  and  C_5
REMARK    4  A    between atoms: C_25  and  C_26
REMARK                            x       y       z     vdW  Elec       q    Type
REMARK                         _______ _______ _______ _____ _____    ______ ____
ROOT
ATOM      1  C   UNL     1     -11.154  13.686  67.428  0.00  0.00    +0.189 C 
ATOM      2  C   UNL     1      -9.998  14.603  67.299  0.00  0.00    +0.045 C 
ATOM      3  C   UNL     1     -10.678  15.986  67.816  0.00  0.00    +0.004 C 
ATOM      4  C   UNL     1      -9.209  16.603  68.388  0.00  0.00    +0.001 C 
ATOM      5  C   UNL     1      -8.945  17.296  66.879  0.00  0.00    +0.004 C 
ATOM      6  C   UNL     1      -8.315  15.941  66.279  0.00  0.00    +0.000 C 
ATOM      7  C   UNL     1      -7.441  17.909  67.364  0.00  0.00    +0.019 C 
ATOM      8  C   UNL     1      -8.123  19.235  67.948  0.00  0.00    -0.043 C 
ATOM      9  C   UNL     1      -7.333  20.269  68.111  0.00  0.00    +0.010 C 
ATOM     10  C   UNL     1      -6.483  20.676  66.990  0.00  0.00    +0.101 C 
ATOM     11  C   UNL     1      -6.014  19.555  66.117  0.00  0.00    +0.050 C 
ATOM     12  N   UNL     1      -5.800  21.748  66.983  0.00  0.00    -0.034 NA
ATOM     13  O   UNL     1      -4.592  21.870  66.330  0.00  0.00    -0.143 OA
ATOM     14  C   UNL     1      -9.494  19.136  68.425  0.00  0.00    +0.022 C 
ATOM     15  C   UNL     1      -7.178  18.595  65.904  0.00  0.00    +0.010 C 
ATOM     16  C   UNL     1      -9.927  17.886  69.036  0.00  0.00    +0.004 C 
ATOM     17  C   UNL     1     -11.115  15.219  69.186  0.00  0.00    +0.005 C 
ATOM     18  C   UNL     1      -9.491  15.002  65.987  0.00  0.00    +0.004 C 
ATOM     19  C   UNL     1     -12.132  14.425  68.348  0.00  0.00    +0.053 C 
ENDROOT
BRANCH   1  21
ATOM     20  C   UNL     1     -12.502  13.305  65.232  0.00  0.00    -0.011 C 
ATOM     21  C   UNL     1     -11.781  13.359  66.160  0.00  0.00    -0.040 C 
ENDBRANCH   1  21
BRANCH   2  22
ATOM     22  C   UNL     1      -8.983  14.169  68.308  0.00  0.00    +0.004 C 
ATOM     23  C   UNL     1      -8.087  13.181  67.568  0.00  0.00    +0.000 C 
ENDBRANCH   2  22
BRANCH   1  24
ATOM     24  O   UNL     1     -10.831  12.516  68.187  0.00  0.00    -0.443 OA
BRANCH  24  25
ATOM     25  C   UNL     1     -11.323  11.255  67.885  0.00  0.00    +0.318 C 
ATOM     26  O   UNL     1     -12.347  10.889  68.539  0.00  0.00    -0.250 OA
ATOM     27  C   UNL     1     -10.534  10.238  67.116  0.00  0.00    +0.121 C 
ENDBRANCH  24  25
ENDBRANCH   1  24
TORSDOF 4
ENDMDL
MODEL 2
REMARK VINA RESULT:      -6.4      3.082      7.632
REMARK  Name = 
REMARK  4 active torsions:
REMARK  status: ('A' for Active; 'I' for Inactive)
REMARK    1  A    between atoms: C_2  and  C_3
REMARK    2  A    between atoms: C_3  and  O_4
REMARK    3  A    between atoms: O_4  and  C_5
REMARK    4  A    between atoms: C_25  and  C_26
REMARK                            x       y       z     vdW  Elec       q    Type
REMARK                         _______ _______ _______ _____ _____    ______ ____
ROOT
ATOM      1  C   UNL     1      -6.644  19.264  68.055  0.00  0.00    +0.189 C 
ATOM      2  C   UNL     1      -7.832  18.479  67.646  0.00  0.00    +0.045 C 
ATOM      3  C   UNL     1      -7.183  16.990  67.605  0.00  0.00    +0.004 C 
ATOM      4  C   UNL     1      -8.655  16.236  67.969  0.00  0.00    +0.001 C 
ATOM      5  C   UNL     1      -8.980  16.140  66.322  0.00  0.00    +0.004 C 
ATOM      6  C   UNL     1      -9.582  17.633  66.274  0.00  0.00    +0.000 C 
ATOM      7  C   UNL     1     -10.489  15.424  66.607  0.00  0.00    +0.019 C 
ATOM      8  C   UNL     1      -9.835  13.963  66.650  0.00  0.00    -0.043 C 
ATOM      9  C   UNL     1     -10.652  12.956  66.457  0.00  0.00    +0.010 C 
ATOM     10  C   UNL     1     -11.543  12.999  65.296  0.00  0.00    +0.101 C 
ATOM     11  C   UNL     1     -11.999  14.368  64.902  0.00  0.00    +0.050 C 
ATOM     12  N   UNL     1     -12.260  12.015  64.927  0.00  0.00    -0.034 NA
ATOM     13  O   UNL     1     -13.487  12.162  64.318  0.00  0.00    -0.143 OA
ATOM     14  C   UNL     1      -8.448  13.856  67.081  0.00  0.00    +0.022 C 
ATOM     15  C   UNL     1     -10.812  15.317  65.008  0.00  0.00    +0.010 C 
ATOM     16  C   UNL     1      -7.961  14.792  68.085  0.00  0.00    +0.004 C 
ATOM     17  C   UNL     1      -6.686  17.201  69.143  0.00  0.00    +0.005 C 
ATOM     18  C   UNL     1      -8.385  18.590  66.297  0.00  0.00    +0.004 C 
ATOM     19  C   UNL     1      -5.666  18.223  68.611  0.00  0.00    +0.053 C 
ENDROOT
BRANCH   1  21
ATOM     20  C   UNL     1      -5.523  20.842  66.313  0.00  0.00    -0.011 C 
ATOM     21  C   UNL     1      -6.041  20.014  66.969  0.00  0.00    -0.040 C 
ENDBRANCH   1  21
BRANCH   2  22
ATOM     22  C   UNL     1      -8.806  18.539  68.779  0.00  0.00    +0.004 C 
ATOM     23  C   UNL     1      -9.760  19.674  68.421  0.00  0.00    +0.000 C 
ENDBRANCH   2  22
BRANCH   1  24
ATOM     24  O   UNL     1      -6.911  20.087  69.195  0.00  0.00    -0.443 OA
BRANCH  24  25
ATOM     25  C   UNL     1      -5.962  20.369  70.167  0.00  0.00    +0.318 C 
ATOM     26  O   UNL     1      -6.348  20.246  71.370  0.00  0.00    -0.250 OA
ATOM     27  C   UNL     1      -4.688  21.100  69.870  0.00  0.00    +0.121 C 
ENDBRANCH  24  25
ENDBRANCH   1  24
TORSDOF 4
ENDMDL
MODEL 3
REMARK VINA RESULT:      -6.2      4.148      6.495
REMARK  Name = 
REMARK  4 active torsions:
REMARK  status: ('A' for Active; 'I' for Inactive)
REMARK    1  A    between atoms: C_2  and  C_3
REMARK    2  A    between atoms: C_3  and  O_4
REMARK    3  A    between atoms: O_4  and  C_5
REMARK    4  A    between atoms: C_25  and  C_26
REMARK                            x       y       z     vdW  Elec       q    Type
REMARK                         _______ _______ _______ _____ _____    ______ ____
ROOT
ATOM      1  C   UNL     1      -9.624   8.458  70.154  0.00  0.00    +0.189 C 
ATOM      2  C   UNL     1      -9.999   9.367  69.046  0.00  0.00    +0.045 C 
ATOM      3  C   UNL     1      -9.138  10.682  69.460  0.00  0.00    +0.004 C 
ATOM      4  C   UNL     1      -8.985  11.202  67.855  0.00  0.00    +0.001 C 
ATOM      5  C   UNL     1     -10.408  12.078  68.033  0.00  0.00    +0.004 C 
ATOM      6  C   UNL     1     -11.329  10.801  67.690  0.00  0.00    +0.000 C 
ATOM      7  C   UNL     1     -10.350  12.602  66.423  0.00  0.00    +0.019 C 
ATOM      8  C   UNL     1      -9.431  13.853  66.820  0.00  0.00    -0.043 C 
ATOM      9  C   UNL     1      -9.403  14.846  65.965  0.00  0.00    +0.010 C 
ATOM     10  C   UNL     1     -10.678  15.380  65.481  0.00  0.00    +0.101 C 
ATOM     11  C   UNL     1     -11.778  14.374  65.364  0.00  0.00    +0.050 C 
ATOM     12  N   UNL     1     -10.773  16.435  64.777  0.00  0.00    -0.034 NA
ATOM     13  O   UNL     1     -11.751  16.622  63.824  0.00  0.00    -0.143 OA
ATOM     14  C   UNL     1      -8.565  13.713  67.981  0.00  0.00    +0.022 C 
ATOM     15  C   UNL     1     -11.728  13.465  66.585  0.00  0.00    +0.010 C 
ATOM     16  C   UNL     1      -8.000  12.401  68.270  0.00  0.00    +0.004 C 
ATOM     17  C   UNL     1      -7.799   9.754  69.495  0.00  0.00    +0.005 C 
ATOM     18  C   UNL     1     -11.348   9.924  68.947  0.00  0.00    +0.004 C 
ATOM     19  C   UNL     1      -8.365   9.087  70.761  0.00  0.00    +0.053 C 
ENDROOT
BRANCH   1  21
ATOM     20  C   UNL     1     -11.327   8.391  72.123  0.00  0.00    -0.011 C 
ATOM     21  C   UNL     1     -10.661   8.304  71.157  0.00  0.00    -0.040 C 
ENDBRANCH   1  21
BRANCH   2  22
ATOM     22  C   UNL     1      -9.415   8.795  67.794  0.00  0.00    +0.004 C 
ATOM     23  C   UNL     1     -10.521   7.928  67.202  0.00  0.00    +0.000 C 
ENDBRANCH   2  22
BRANCH   1  24
ATOM     24  O   UNL     1      -9.145   7.197  69.674  0.00  0.00    -0.443 OA
BRANCH  24  25
ATOM     25  C   UNL     1      -9.421   5.991  70.303  0.00  0.00    +0.318 C 
ATOM     26  O   UNL     1      -8.587   5.623  71.185  0.00  0.00    -0.250 OA
ATOM     27  C   UNL     1     -10.416   5.005  69.767  0.00  0.00    +0.121 C 
ENDBRANCH  24  25
ENDBRANCH   1  24
TORSDOF 4
ENDMDL
MODEL 4
REMARK VINA RESULT:      -6.1      1.977      3.117
REMARK  Name = 
REMARK  4 active torsions:
REMARK  status: ('A' for Active; 'I' for Inactive)
REMARK    1  A    between atoms: C_2  and  C_3
REMARK    2  A    between atoms: C_3  and  O_4
REMARK    3  A    between atoms: O_4  and  C_5
REMARK    4  A    between atoms: C_25  and  C_26
REMARK                            x       y       z     vdW  Elec       q    Type
REMARK                         _______ _______ _______ _____ _____    ______ ____
ROOT
ATOM      1  C   UNL     1     -10.073  14.242  66.439  0.00  0.00    +0.189 C 
ATOM      2  C   UNL     1      -9.499  15.236  67.374  0.00  0.00    +0.045 C 
ATOM      3  C   UNL     1      -8.751  16.217  66.315  0.00  0.00    +0.004 C 
ATOM      4  C   UNL     1      -8.913  17.574  67.315  0.00  0.00    +0.001 C 
ATOM      5  C   UNL     1      -7.432  17.200  68.015  0.00  0.00    +0.004 C 
ATOM      6  C   UNL     1      -8.096  16.166  69.056  0.00  0.00    +0.000 C 
ATOM      7  C   UNL     1      -7.543  18.513  69.081  0.00  0.00    +0.019 C 
ATOM      8  C   UNL     1      -6.882  19.497  68.005  0.00  0.00    -0.043 C 
ATOM      9  C   UNL     1      -6.366  20.607  68.474  0.00  0.00    +0.010 C 
ATOM     10  C   UNL     1      -5.440  20.517  69.606  0.00  0.00    +0.101 C 
ATOM     11  C   UNL     1      -5.726  19.405  70.566  0.00  0.00    +0.050 C 
ATOM     12  N   UNL     1      -4.765  21.504  70.038  0.00  0.00    -0.034 NA
ATOM     13  O   UNL     1      -4.416  21.658  71.363  0.00  0.00    -0.143 OA
ATOM     14  C   UNL     1      -7.071  19.183  66.596  0.00  0.00    +0.022 C 
ATOM     15  C   UNL     1      -6.100  18.165  69.764  0.00  0.00    +0.010 C 
ATOM     16  C   UNL     1      -8.321  18.554  66.188  0.00  0.00    +0.004 C 
ATOM     17  C   UNL     1     -10.165  16.385  65.524  0.00  0.00    +0.005 C 
ATOM     18  C   UNL     1      -8.398  14.886  68.271  0.00  0.00    +0.004 C 
ATOM     19  C   UNL     1     -10.018  14.924  65.068  0.00  0.00    +0.053 C 
ENDROOT
BRANCH   1  21
ATOM     20  C   UNL     1      -9.064  11.841  66.463  0.00  0.00    -0.011 C 
ATOM     21  C   UNL     1      -9.357  12.980  66.420  0.00  0.00    -0.040 C 
ENDBRANCH   1  21
BRANCH   2  22
ATOM     22  C   UNL     1     -10.646  15.981  67.979  0.00  0.00    +0.004 C 
ATOM     23  C   UNL     1     -11.042  15.169  69.207  0.00  0.00    +0.000 C 
ENDBRANCH   2  22
BRANCH   1  24
ATOM     24  O   UNL     1     -11.479  14.061  66.644  0.00  0.00    -0.443 OA
BRANCH  24  25
ATOM     25  C   UNL     1     -12.353  13.693  65.632  0.00  0.00    +0.318 C 
ATOM     26  O   UNL     1     -13.363  14.444  65.473  0.00  0.00    -0.250 OA
ATOM     27  C   UNL     1     -12.330  12.337  64.993  0.00  0.00    +0.121 C 
ENDBRANCH  24  25
ENDBRANCH   1  24
TORSDOF 4
ENDMDL
MODEL 5
REMARK VINA RESULT:      -6.0      3.938      7.855
REMARK  Name = 
REMARK  4 active torsions:
REMARK  status: ('A' for Active; 'I' for Inactive)
REMARK    1  A    between atoms: C_2  and  C_3
REMARK    2  A    between atoms: C_3  and  O_4
REMARK    3  A    between atoms: O_4  and  C_5
REMARK    4  A    between atoms: C_25  and  C_26
REMARK                            x       y       z     vdW  Elec       q    Type
REMARK                         _______ _______ _______ _____ _____    ______ ____
ROOT
ATOM      1  C   UNL     1      -9.936  16.771  68.132  0.00  0.00    +0.189 C 
ATOM      2  C   UNL     1      -9.970  15.414  67.538  0.00  0.00    +0.045 C 
ATOM      3  C   UNL     1     -10.331  14.539  68.860  0.00  0.00    +0.004 C 
ATOM      4  C   UNL     1     -11.116  13.336  67.963  0.00  0.00    +0.001 C 
ATOM      5  C   UNL     1      -9.651  12.523  67.824  0.00  0.00    +0.004 C 
ATOM      6  C   UNL     1      -9.199  13.394  66.546  0.00  0.00    +0.000 C 
ATOM      7  C   UNL     1     -10.355  11.304  66.881  0.00  0.00    +0.019 C 
ATOM      8  C   UNL     1     -10.784  10.483  68.187  0.00  0.00    -0.043 C 
ATOM      9  C   UNL     1     -11.043   9.210  68.013  0.00  0.00    +0.010 C 
ATOM     10  C   UNL     1     -10.064   8.396  67.290  0.00  0.00    +0.101 C 
ATOM     11  C   UNL     1      -9.309   9.120  66.220  0.00  0.00    +0.050 C 
ATOM     12  N   UNL     1     -10.137   7.129  67.199  0.00  0.00    -0.034 NA
ATOM     13  O   UNL     1      -9.685   6.423  66.106  0.00  0.00    -0.143 OA
ATOM     14  C   UNL     1     -11.035  11.237  69.407  0.00  0.00    +0.022 C 
ATOM     15  C   UNL     1      -8.939  10.500  66.747  0.00  0.00    +0.010 C 
ATOM     16  C   UNL     1     -11.603  12.574  69.291  0.00  0.00    +0.004 C 
ATOM     17  C   UNL     1     -11.633  15.491  69.093  0.00  0.00    +0.005 C 
ATOM     18  C   UNL     1      -8.747  14.757  67.081  0.00  0.00    +0.004 C 
ATOM     19  C   UNL     1     -10.664  16.624  69.473  0.00  0.00    +0.053 C 
ENDROOT
BRANCH   1  21
ATOM     20  C   UNL     1      -7.608  17.744  68.778  0.00  0.00    -0.011 C 
ATOM     21  C   UNL     1      -8.593  17.287  68.326  0.00  0.00    -0.040 C 
ENDBRANCH   1  21
BRANCH   2  22
ATOM     22  C   UNL     1     -11.142  15.374  66.610  0.00  0.00    +0.004 C 
ATOM     23  C   UNL     1     -10.585  15.789  65.252  0.00  0.00    +0.000 C 
ENDBRANCH   2  22
BRANCH   1  24
ATOM     24  O   UNL     1     -10.770  17.690  67.420  0.00  0.00    -0.443 OA
BRANCH  24  25
ATOM     25  C   UNL     1     -10.458  19.033  67.261  0.00  0.00    +0.318 C 
ATOM     26  O   UNL     1     -10.644  19.769  68.278  0.00  0.00    -0.250 OA
ATOM     27  C   UNL     1     -10.252  19.665  65.917  0.00  0.00    +0.121 C 
ENDBRANCH  24  25
ENDBRANCH   1  24
TORSDOF 4
ENDMDL
MODEL 6
REMARK VINA RESULT:      -5.8      4.724      7.757
REMARK  Name = 
REMARK  4 active torsions:
REMARK  status: ('A' for Active; 'I' for Inactive)
REMARK    1  A    between atoms: C_2  and  C_3
REMARK    2  A    between atoms: C_3  and  O_4
REMARK    3  A    between atoms: O_4  and  C_5
REMARK    4  A    between atoms: C_25  and  C_26
REMARK                            x       y       z     vdW  Elec       q    Type
REMARK                         _______ _______ _______ _____ _____    ______ ____
ROOT
ATOM      1  C   UNL     1     -11.178  13.621  68.754  0.00  0.00    +0.189 C 
ATOM      2  C   UNL     1     -10.342  12.815  67.834  0.00  0.00    +0.045 C 
ATOM      3  C   UNL     1     -11.368  12.663  66.583  0.00  0.00    +0.004 C 
ATOM      4  C   UNL     1     -10.117  12.536  65.450  0.00  0.00    +0.001 C 
ATOM      5  C   UNL     1     -10.130  10.869  65.665  0.00  0.00    +0.004 C 
ATOM      6  C   UNL     1      -9.163  10.947  66.950  0.00  0.00    +0.000 C 
ATOM      7  C   UNL     1      -8.847  10.664  64.577  0.00  0.00    +0.019 C 
ATOM      8  C   UNL     1      -9.857  10.598  63.334  0.00  0.00    -0.043 C 
ATOM      9  C   UNL     1      -9.393  10.046  62.240  0.00  0.00    +0.010 C 
ATOM     10  C   UNL     1      -8.746   8.736  62.344  0.00  0.00    +0.101 C 
ATOM     11  C   UNL     1      -8.012   8.497  63.625  0.00  0.00    +0.050 C 
ATOM     12  N   UNL     1      -8.402   8.043  61.334  0.00  0.00    -0.034 NA
ATOM     13  O   UNL     1      -7.310   7.202  61.332  0.00  0.00    -0.143 OA
ATOM     14  C   UNL     1     -11.119  11.313  63.451  0.00  0.00    +0.022 C 
ATOM     15  C   UNL     1      -8.857   9.041  64.769  0.00  0.00    +0.010 C 
ATOM     16  C   UNL     1     -11.146  12.553  64.217  0.00  0.00    +0.004 C 
ATOM     17  C   UNL     1     -11.506  14.286  66.543  0.00  0.00    +0.005 C 
ATOM     18  C   UNL     1     -10.029  11.416  68.124  0.00  0.00    +0.004 C 
ATOM     19  C   UNL     1     -12.287  14.195  67.866  0.00  0.00    +0.053 C 
ENDROOT
BRANCH   1  21
ATOM     20  C   UNL     1     -12.459  12.374  70.648  0.00  0.00    -0.011 C 
ATOM     21  C   UNL     1     -11.738  12.855  69.852  0.00  0.00    -0.040 C 
ENDBRANCH   1  21
BRANCH   2  22
ATOM     22  C   UNL     1      -9.202  13.684  67.406  0.00  0.00    +0.004 C 
ATOM     23  C   UNL     1      -8.092  13.405  68.415  0.00  0.00    +0.000 C 
ENDBRANCH   2  22
BRANCH   1  24
ATOM     24  O   UNL     1     -10.498  14.796  69.208  0.00  0.00    -0.443 OA
BRANCH  24  25
ATOM     25  C   UNL     1     -11.157  15.914  69.697  0.00  0.00    +0.318 C 
ATOM     26  O   UNL     1     -11.037  16.973  69.007  0.00  0.00    -0.250 OA
ATOM     27  C   UNL     1     -11.684  15.999  71.098  0.00  0.00    +0.121 C 
ENDBRANCH  24  25
ENDBRANCH   1  24
TORSDOF 4
ENDMDL
MODEL 7
REMARK VINA RESULT:      -5.8      5.542      7.137
REMARK  Name = 
REMARK  4 active torsions:
REMARK  status: ('A' for Active; 'I' for Inactive)
REMARK    1  A    between atoms: C_2  and  C_3
REMARK    2  A    between atoms: C_3  and  O_4
REMARK    3  A    between atoms: O_4  and  C_5
REMARK    4  A    between atoms: C_25  and  C_26
REMARK                            x       y       z     vdW  Elec       q    Type
REMARK                         _______ _______ _______ _____ _____    ______ ____
ROOT
ATOM      1  C   UNL     1      -9.363   9.898  65.859  0.00  0.00    +0.189 C 
ATOM      2  C   UNL     1      -9.726  10.934  66.853  0.00  0.00    +0.045 C 
ATOM      3  C   UNL     1     -10.907  10.153  67.653  0.00  0.00    +0.004 C 
ATOM      4  C   UNL     1     -10.610  10.988  69.095  0.00  0.00    +0.001 C 
ATOM      5  C   UNL     1     -11.713  12.160  68.611  0.00  0.00    +0.004 C 
ATOM      6  C   UNL     1     -10.610  12.955  67.748  0.00  0.00    +0.000 C 
ATOM      7  C   UNL     1     -11.436  13.076  70.009  0.00  0.00    +0.019 C 
ATOM      8  C   UNL     1     -12.541  12.249  70.821  0.00  0.00    -0.043 C 
ATOM      9  C   UNL     1     -13.019  12.823  71.898  0.00  0.00    +0.010 C 
ATOM     10  C   UNL     1     -13.499  14.203  71.794  0.00  0.00    +0.101 C 
ATOM     11  C   UNL     1     -12.766  15.051  70.804  0.00  0.00    +0.050 C 
ATOM     12  N   UNL     1     -14.121  14.801  72.728  0.00  0.00    -0.034 NA
ATOM     13  O   UNL     1     -14.033  16.158  72.947  0.00  0.00    -0.143 OA
ATOM     14  C   UNL     1     -12.786  10.872  70.419  0.00  0.00    +0.022 C 
ATOM     15  C   UNL     1     -12.513  14.218  69.554  0.00  0.00    +0.010 C 
ATOM     16  C   UNL     1     -11.666  10.091  69.907  0.00  0.00    +0.004 C 
ATOM     17  C   UNL     1      -9.868   8.926  67.918  0.00  0.00    +0.005 C 
ATOM     18  C   UNL     1     -10.413  12.162  66.451  0.00  0.00    +0.004 C 
ATOM     19  C   UNL     1      -9.958   8.601  66.417  0.00  0.00    +0.053 C 
ENDROOT
BRANCH   1  21
ATOM     20  C   UNL     1     -10.156  10.673  63.502  0.00  0.00    -0.011 C 
ATOM     21  C   UNL     1      -9.868  10.169  64.525  0.00  0.00    -0.040 C 
ENDBRANCH   1  21
BRANCH   2  22
ATOM     22  C   UNL     1      -8.556  11.089  67.771  0.00  0.00    +0.004 C 
ATOM     23  C   UNL     1      -7.707  12.192  67.147  0.00  0.00    +0.000 C 
ENDBRANCH   2  22
BRANCH   1  24
ATOM     24  O   UNL     1      -7.958   9.625  65.858  0.00  0.00    -0.443 OA
BRANCH  24  25
ATOM     25  C   UNL     1      -7.261   9.230  64.725  0.00  0.00    +0.318 C 
ATOM     26  O   UNL     1      -7.244   7.982  64.492  0.00  0.00    -0.250 OA
ATOM     27  C   UNL     1      -6.301  10.130  64.007  0.00  0.00    +0.121 C 
ENDBRANCH  24  25
ENDBRANCH   1  24
TORSDOF 4
ENDMDL
MODEL 8
REMARK VINA RESULT:      -5.8      3.920      6.591
REMARK  Name = 
REMARK  4 active torsions:
REMARK  status: ('A' for Active; 'I' for Inactive)
REMARK    1  A    between atoms: C_2  and  C_3
REMARK    2  A    between atoms: C_3  and  O_4
REMARK    3  A    between atoms: O_4  and  C_5
REMARK    4  A    between atoms: C_25  and  C_26
REMARK                            x       y       z     vdW  Elec       q    Type
REMARK                         _______ _______ _______ _____ _____    ______ ____
ROOT
ATOM      1  C   UNL     1      -9.056   8.202  68.632  0.00  0.00    +0.189 C 
ATOM      2  C   UNL     1      -9.527   9.586  68.396  0.00  0.00    +0.045 C 
ATOM      3  C   UNL     1      -9.487   9.622  66.772  0.00  0.00    +0.004 C 
ATOM      4  C   UNL     1     -10.733  10.764  66.673  0.00  0.00    +0.001 C 
ATOM      5  C   UNL     1      -9.579  11.986  66.729  0.00  0.00    +0.004 C 
ATOM      6  C   UNL     1      -9.521  11.965  68.339  0.00  0.00    +0.000 C 
ATOM      7  C   UNL     1     -10.772  13.188  66.681  0.00  0.00    +0.019 C 
ATOM      8  C   UNL     1     -10.791  13.163  65.079  0.00  0.00    -0.043 C 
ATOM      9  C   UNL     1     -11.293  14.220  64.489  0.00  0.00    +0.010 C 
ATOM     10  C   UNL     1     -10.805  15.540  64.897  0.00  0.00    +0.101 C 
ATOM     11  C   UNL     1     -10.415  15.649  66.337  0.00  0.00    +0.050 C 
ATOM     12  N   UNL     1     -11.105  16.616  64.289  0.00  0.00    -0.034 NA
ATOM     13  O   UNL     1     -11.223  17.834  64.922  0.00  0.00    -0.143 OA
ATOM     14  C   UNL     1     -10.435  11.916  64.419  0.00  0.00    +0.022 C 
ATOM     15  C   UNL     1      -9.660  14.385  66.725  0.00  0.00    +0.010 C 
ATOM     16  C   UNL     1     -10.787  10.661  65.071  0.00  0.00    +0.004 C 
ATOM     17  C   UNL     1     -10.433   8.296  66.752  0.00  0.00    +0.005 C 
ATOM     18  C   UNL     1      -8.691  10.738  68.732  0.00  0.00    +0.004 C 
ATOM     19  C   UNL     1      -9.229   7.499  67.281  0.00  0.00    +0.053 C 
ENDROOT
BRANCH   1  21
ATOM     20  C   UNL     1      -6.504   8.087  69.141  0.00  0.00    -0.011 C 
ATOM     21  C   UNL     1      -7.679   8.125  69.084  0.00  0.00    -0.040 C 
ENDBRANCH   1  21
BRANCH   2  22
ATOM     22  C   UNL     1     -10.955   9.642  68.835  0.00  0.00    +0.004 C 
ATOM     23  C   UNL     1     -10.901  10.023  70.311  0.00  0.00    +0.000 C 
ENDBRANCH   2  22
BRANCH   1  24
ATOM     24  O   UNL     1      -9.944   7.470  69.484  0.00  0.00    -0.443 OA
BRANCH  24  25
ATOM     25  C   UNL     1      -9.507   6.555  70.431  0.00  0.00    +0.318 C 
ATOM     26  O   UNL     1      -9.457   5.345  70.050  0.00  0.00    -0.250 OA
ATOM     27  C   UNL     1      -9.430   6.874  71.893  0.00  0.00    +0.121 C 
ENDBRANCH  24  25
ENDBRANCH   1  24
TORSDOF 4
ENDMDL
MODEL 9
REMARK VINA RESULT:      -5.8      3.132      7.840
REMARK  Name = 
REMARK  4 active torsions:
REMARK  status: ('A' for Active; 'I' for Inactive)
REMARK    1  A    between atoms: C_2  and  C_3
REMARK    2  A    between atoms: C_3  and  O_4
REMARK    3  A    between atoms: O_4  and  C_5
REMARK    4  A    between atoms: C_25  and  C_26
REMARK                            x       y       z     vdW  Elec       q    Type
REMARK                         _______ _______ _______ _____ _____    ______ ____
ROOT
ATOM      1  C   UNL     1      -5.355  19.557  69.067  0.00  0.00    +0.189 C 
ATOM      2  C   UNL     1      -6.057  18.369  68.531  0.00  0.00    +0.045 C 
ATOM      3  C   UNL     1      -7.438  19.063  68.026  0.00  0.00    +0.004 C 
ATOM      4  C   UNL     1      -7.681  17.913  66.808  0.00  0.00    +0.001 C 
ATOM      5  C   UNL     1      -8.550  16.979  67.903  0.00  0.00    +0.004 C 
ATOM      6  C   UNL     1      -7.219  16.293  68.495  0.00  0.00    +0.000 C 
ATOM      7  C   UNL     1      -8.796  15.761  66.751  0.00  0.00    +0.019 C 
ATOM      8  C   UNL     1     -10.111  16.491  66.198  0.00  0.00    -0.043 C 
ATOM      9  C   UNL     1     -10.946  15.744  65.518  0.00  0.00    +0.010 C 
ATOM     10  C   UNL     1     -11.370  14.469  66.102  0.00  0.00    +0.101 C 
ATOM     11  C   UNL     1     -10.340  13.791  66.949  0.00  0.00    +0.050 C 
ATOM     12  N   UNL     1     -12.289  13.743  65.606  0.00  0.00    -0.034 NA
ATOM     13  O   UNL     1     -12.296  12.368  65.695  0.00  0.00    -0.143 OA
ATOM     14  C   UNL     1     -10.184  17.939  66.326  0.00  0.00    +0.022 C 
ATOM     15  C   UNL     1      -9.652  14.849  67.803  0.00  0.00    +0.010 C 
ATOM     16  C   UNL     1      -8.949  18.707  66.223  0.00  0.00    +0.004 C 
ATOM     17  C   UNL     1      -6.551  20.104  67.140  0.00  0.00    +0.005 C 
ATOM     18  C   UNL     1      -6.567  17.326  69.420  0.00  0.00    +0.004 C 
ATOM     19  C   UNL     1      -6.098  20.752  68.459  0.00  0.00    +0.053 C 
ENDROOT
BRANCH   1  21
ATOM     20  C   UNL     1      -5.511  19.956  71.636  0.00  0.00    -0.011 C 
ATOM     21  C   UNL     1      -5.355  19.629  70.516  0.00  0.00    -0.040 C 
ENDBRANCH   1  21
BRANCH   2  22
ATOM     22  C   UNL     1      -5.292  17.913  67.330  0.00  0.00    +0.004 C 
ATOM     23  C   UNL     1      -4.328  16.854  67.854  0.00  0.00    +0.000 C 
ENDBRANCH   2  22
BRANCH   1  24
ATOM     24  O   UNL     1      -4.039  19.695  68.520  0.00  0.00    -0.443 OA
BRANCH  24  25
ATOM     25  C   UNL     1      -2.929  20.024  69.285  0.00  0.00    +0.318 C 
ATOM     26  O   UNL     1      -2.625  21.256  69.319  0.00  0.00    -0.250 OA
ATOM     27  C   UNL     1      -1.938  19.003  69.758  0.00  0.00    +0.121 C 
ENDBRANCH  24  25
ENDBRANCH   1  24
TORSDOF 4
ENDMDL
