MODEL 1
REMARK VINA RESULT:      -6.0      0.000      0.000
REMARK  Name = 
REMARK  24 active torsions:
REMARK  status: ('A' for Active; 'I' for Inactive)
REMARK    1  A    between atoms: C_2  and  C_3
REMARK    2  A    between atoms: C_3  and  N_4
REMARK    3  A    between atoms: C_21  and  O_22
REMARK    4  A    between atoms: O_22  and  C_23
REMARK    5  A    between atoms: C_23  and  C_24
REMARK    6  A    between atoms: C_24  and  O_25
REMARK    7  A    between atoms: O_25  and  C_26
REMARK    8  A    between atoms: C_26  and  C_27
REMARK    9  A    between atoms: C_27  and  O_28
REMARK   10  A    between atoms: O_28  and  C_29
REMARK   11  A    between atoms: C_29  and  C_30
REMARK   12  A    between atoms: C_30  and  O_31
REMARK   13  A    between atoms: O_31  and  C_32
REMARK   14  A    between atoms: C_32  and  C_33
REMARK   15  A    between atoms: C_33  and  O_34
REMARK   16  A    between atoms: O_34  and  C_35
REMARK   17  A    between atoms: C_35  and  C_36
REMARK   18  A    between atoms: C_36  and  O_37
REMARK   19  A    between atoms: O_37  and  C_38
REMARK   20  A    between atoms: C_38  and  C_39
REMARK   21  A    between atoms: C_39  and  O_40
REMARK   22  A    between atoms: O_40  and  C_41
REMARK   23  A    between atoms: C_41  and  C_42
REMARK   24  A    between atoms: C_42  and  O_43
REMARK                            x       y       z     vdW  Elec       q    Type
REMARK                         _______ _______ _______ _____ _____    ______ ____
ROOT
ATOM      1  N   UNL     1     -10.360  16.917  67.591  0.00  0.00    -0.268 NA
ATOM      2  C   UNL     1      -8.915  16.310  67.664  0.00  0.00    +0.091 C 
ATOM      3  C   UNL     1      -9.298  14.981  68.526  0.00  0.00    +0.147 C 
ATOM      4  C   UNL     1     -10.383  14.335  67.947  0.00  0.00    +0.089 C 
ATOM      5  C   UNL     1     -10.635  12.829  68.437  0.00  0.00    +0.199 C 
ATOM      6  O   UNL     1     -11.769  12.553  67.441  0.00  0.00    -0.473 OA
ATOM      7  C   UNL     1     -11.939  13.612  66.601  0.00  0.00    +0.173 A 
ATOM      8  C   UNL     1     -12.550  13.690  65.342  0.00  0.00    +0.229 A 
ATOM      9  C   UNL     1     -12.137  14.636  64.399  0.00  0.00    +0.045 A 
ATOM     10  C   UNL     1     -11.046  15.478  64.645  0.00  0.00    -0.001 A 
ATOM     11  C   UNL     1     -10.349  15.318  65.810  0.00  0.00    -0.021 A 
ATOM     12  O   UNL     1     -13.346  12.617  64.917  0.00  0.00    -0.283 OA
ATOM     13  C   UNL     1      -9.385  11.999  67.572  0.00  0.00    +0.156 C 
ATOM     14  C   UNL     1      -8.345  13.233  67.343  0.00  0.00    +0.036 C 
ATOM     15  C   UNL     1     -10.822  14.369  66.630  0.00  0.00    +0.016 A 
ATOM     16  C   UNL     1     -11.587  14.990  68.645  0.00  0.00    +0.027 C 
ATOM     17  C   UNL     1      -8.158  14.029  68.544  0.00  0.00    +0.035 C 
ATOM     18  O   UNL     1      -9.427  15.500  69.814  0.00  0.00    -0.224 OA
ATOM     19  C   UNL     1      -8.984  15.664  66.150  0.00  0.00    +0.045 C 
ATOM     20  C   UNL     1     -11.301  16.384  68.370  0.00  0.00    +0.073 C 
ENDROOT
BRANCH  13  21
ATOM     21  O   UNL     1      -9.940  12.169  66.178  0.00  0.00    -0.350 OA
BRANCH  21  22
ATOM     22  C   UNL     1      -9.038  11.418  65.440  0.00  0.00    +0.174 C 
BRANCH  22  23
ATOM     23  C   UNL     1      -9.811  10.401  64.651  0.00  0.00    +0.174 C 
BRANCH  23  24
ATOM     24  O   UNL     1      -9.036   9.266  64.405  0.00  0.00    -0.348 OA
BRANCH  24  25
ATOM     25  C   UNL     1      -9.163   8.331  65.421  0.00  0.00    +0.174 C 
BRANCH  25  26
ATOM     26  C   UNL     1      -7.794   7.807  65.763  0.00  0.00    +0.174 C 
BRANCH  26  27
ATOM     27  O   UNL     1      -7.750   7.536  67.127  0.00  0.00    -0.348 OA
BRANCH  27  28
ATOM     28  C   UNL     1      -7.602   8.706  67.854  0.00  0.00    +0.174 C 
BRANCH  28  29
ATOM     29  C   UNL     1      -8.291   8.508  69.178  0.00  0.00    +0.174 C 
BRANCH  29  30
ATOM     30  O   UNL     1      -9.576   9.017  69.140  0.00  0.00    -0.348 OA
BRANCH  30  31
ATOM     31  C   UNL     1     -10.482   8.125  69.686  0.00  0.00    +0.174 C 
BRANCH  31  32
ATOM     32  C   UNL     1     -10.304   8.082  71.181  0.00  0.00    +0.174 C 
BRANCH  32  33
ATOM     33  O   UNL     1     -11.019   9.088  71.831  0.00  0.00    -0.348 OA
BRANCH  33  34
ATOM     34  C   UNL     1     -12.348   8.669  71.966  0.00  0.00    +0.174 C 
BRANCH  34  35
ATOM     35  C   UNL     1     -13.286   9.696  71.385  0.00  0.00    +0.174 C 
BRANCH  35  36
ATOM     36  O   UNL     1     -13.154  10.888  72.084  0.00  0.00    -0.348 OA
BRANCH  36  37
ATOM     37  C   UNL     1     -12.981  11.950  71.214  0.00  0.00    +0.174 C 
BRANCH  37  38
ATOM     38  C   UNL     1     -12.904  13.263  71.969  0.00  0.00    +0.174 C 
BRANCH  38  39
ATOM     39  O   UNL     1     -13.763  14.193  71.391  0.00  0.00    -0.348 OA
BRANCH  39  40
ATOM     40  C   UNL     1     -13.726  15.401  72.064  0.00  0.00    +0.174 C 
BRANCH  40  41
ATOM     41  C   UNL     1     -12.325  15.949  72.043  0.00  0.00    +0.174 C 
BRANCH  41  42
ATOM     42  O   UNL     1     -12.077  16.540  73.271  0.00  0.00    -0.348 OA
ATOM     43  C   UNL     1     -12.471  15.685  74.286  0.00  0.00    +0.174 C 
ENDBRANCH  41  42
ENDBRANCH  40  41
ENDBRANCH  39  40
ENDBRANCH  38  39
ENDBRANCH  37  38
ENDBRANCH  36  37
ENDBRANCH  35  36
ENDBRANCH  34  35
ENDBRANCH  33  34
ENDBRANCH  32  33
ENDBRANCH  31  32
ENDBRANCH  30  31
ENDBRANCH  29  30
ENDBRANCH  28  29
ENDBRANCH  27  28
ENDBRANCH  26  27
ENDBRANCH  25  26
ENDBRANCH  24  25
ENDBRANCH  23  24
ENDBRANCH  22  23
ENDBRANCH  21  22
ENDBRANCH  13  21
BRANCH   1  44
ATOM     44  C   UNL     1     -10.188  18.295  68.075  0.00  0.00    +0.099 C 
BRANCH  44  46
ATOM     45  C   UNL     1     -10.088  19.988  66.519  0.00  0.00    -0.003 C 
ATOM     46  C   UNL     1     -10.706  19.265  67.051  0.00  0.00    -0.009 C 
ENDBRANCH  44  46
ENDBRANCH   1  44
TORSDOF 24
ENDMDL
MODEL 2
REMARK VINA RESULT:      -5.8      1.886      3.713
REMARK  Name = 
REMARK  24 active torsions:
REMARK  status: ('A' for Active; 'I' for Inactive)
REMARK    1  A    between atoms: C_2  and  C_3
REMARK    2  A    between atoms: C_3  and  N_4
REMARK    3  A    between atoms: C_21  and  O_22
REMARK    4  A    between atoms: O_22  and  C_23
REMARK    5  A    between atoms: C_23  and  C_24
REMARK    6  A    between atoms: C_24  and  O_25
REMARK    7  A    between atoms: O_25  and  C_26
REMARK    8  A    between atoms: C_26  and  C_27
REMARK    9  A    between atoms: C_27  and  O_28
REMARK   10  A    between atoms: O_28  and  C_29
REMARK   11  A    between atoms: C_29  and  C_30
REMARK   12  A    between atoms: C_30  and  O_31
REMARK   13  A    between atoms: O_31  and  C_32
REMARK   14  A    between atoms: C_32  and  C_33
REMARK   15  A    between atoms: C_33  and  O_34
REMARK   16  A    between atoms: O_34  and  C_35
REMARK   17  A    between atoms: C_35  and  C_36
REMARK   18  A    between atoms: C_36  and  O_37
REMARK   19  A    between atoms: O_37  and  C_38
REMARK   20  A    between atoms: C_38  and  C_39
REMARK   21  A    between atoms: C_39  and  O_40
REMARK   22  A    between atoms: O_40  and  C_41
REMARK   23  A    between atoms: C_41  and  C_42
REMARK   24  A    between atoms: C_42  and  O_43
REMARK                            x       y       z     vdW  Elec       q    Type
REMARK                         _______ _______ _______ _____ _____    ______ ____
ROOT
ATOM      1  N   UNL     1     -10.341  17.025  67.671  0.00  0.00    -0.268 NA
ATOM      2  C   UNL     1      -8.876  16.462  67.688  0.00  0.00    +0.091 C 
ATOM      3  C   UNL     1      -9.195  15.094  68.516  0.00  0.00    +0.147 C 
ATOM      4  C   UNL     1     -10.274  14.433  67.944  0.00  0.00    +0.089 C 
ATOM      5  C   UNL     1     -10.467  12.905  68.391  0.00  0.00    +0.199 C 
ATOM      6  O   UNL     1     -11.617  12.625  67.415  0.00  0.00    -0.473 OA
ATOM      7  C   UNL     1     -11.843  13.704  66.614  0.00  0.00    +0.173 A 
ATOM      8  C   UNL     1     -12.488  13.802  65.375  0.00  0.00    +0.229 A 
ATOM      9  C   UNL     1     -12.129  14.790  64.452  0.00  0.00    +0.045 A 
ATOM     10  C   UNL     1     -11.059  15.658  64.698  0.00  0.00    -0.001 A 
ATOM     11  C   UNL     1     -10.327  15.484  65.840  0.00  0.00    -0.021 A 
ATOM     12  O   UNL     1     -13.261  12.718  64.936  0.00  0.00    -0.283 OA
ATOM     13  C   UNL     1      -9.215  12.143  67.468  0.00  0.00    +0.156 C 
ATOM     14  C   UNL     1      -8.220  13.416  67.254  0.00  0.00    +0.036 C 
ATOM     15  C   UNL     1     -10.749  14.494  66.640  0.00  0.00    +0.016 A 
ATOM     16  C   UNL     1     -11.479  15.028  68.693  0.00  0.00    +0.027 C 
ATOM     17  C   UNL     1      -8.026  14.179  68.474  0.00  0.00    +0.035 C 
ATOM     18  O   UNL     1      -9.307  15.568  69.823  0.00  0.00    -0.224 OA
ATOM     19  C   UNL     1      -8.965  15.862  66.156  0.00  0.00    +0.045 C 
ATOM     20  C   UNL     1     -11.244  16.438  68.456  0.00  0.00    +0.073 C 
ENDROOT
BRANCH  13  21
ATOM     21  O   UNL     1      -9.811  12.339  66.095  0.00  0.00    -0.350 OA
BRANCH  21  22
ATOM     22  C   UNL     1      -9.260  11.266  65.411  0.00  0.00    +0.174 C 
BRANCH  22  23
ATOM     23  C   UNL     1     -10.305  10.193  65.303  0.00  0.00    +0.174 C 
BRANCH  23  24
ATOM     24  O   UNL     1      -9.833   8.985  65.820  0.00  0.00    -0.348 OA
BRANCH  24  25
ATOM     25  C   UNL     1     -10.393   8.707  67.058  0.00  0.00    +0.174 C 
BRANCH  25  26
ATOM     26  C   UNL     1      -9.281   8.533  68.058  0.00  0.00    +0.174 C 
BRANCH  26  27
ATOM     27  O   UNL     1      -9.589   9.270  69.198  0.00  0.00    -0.348 OA
BRANCH  27  28
ATOM     28  C   UNL     1     -10.961   9.415  69.332  0.00  0.00    +0.174 C 
BRANCH  28  29
ATOM     29  C   UNL     1     -11.222  10.050  70.671  0.00  0.00    +0.174 C 
BRANCH  29  30
ATOM     30  O   UNL     1     -12.550  10.414  70.788  0.00  0.00    -0.348 OA
BRANCH  30  31
ATOM     31  C   UNL     1     -13.148   9.782  71.864  0.00  0.00    +0.174 C 
BRANCH  31  32
ATOM     32  C   UNL     1     -13.873   8.552  71.383  0.00  0.00    +0.174 C 
BRANCH  32  33
ATOM     33  O   UNL     1     -13.497   7.405  72.082  0.00  0.00    -0.348 OA
BRANCH  33  34
ATOM     34  C   UNL     1     -12.393   6.836  71.437  0.00  0.00    +0.174 C 
BRANCH  34  35
ATOM     35  C   UNL     1     -11.419   6.284  72.447  0.00  0.00    +0.174 C 
BRANCH  35  36
ATOM     36  O   UNL     1     -10.942   7.319  73.239  0.00  0.00    -0.348 OA
BRANCH  36  37
ATOM     37  C   UNL     1      -9.734   6.975  73.820  0.00  0.00    +0.174 C 
BRANCH  37  38
ATOM     38  C   UNL     1      -8.745   8.121  73.734  0.00  0.00    +0.174 C 
BRANCH  38  39
ATOM     39  O   UNL     1      -8.606   8.529  72.410  0.00  0.00    -0.348 OA
BRANCH  39  40
ATOM     40  C   UNL     1      -7.790   7.666  71.699  0.00  0.00    +0.174 C 
BRANCH  40  41
ATOM     41  C   UNL     1      -6.668   8.440  71.062  0.00  0.00    +0.174 C 
BRANCH  41  42
ATOM     42  O   UNL     1      -6.905   9.788  71.268  0.00  0.00    -0.348 OA
ATOM     43  C   UNL     1      -6.431  10.513  70.188  0.00  0.00    +0.174 C 
ENDBRANCH  41  42
ENDBRANCH  40  41
ENDBRANCH  39  40
ENDBRANCH  38  39
ENDBRANCH  37  38
ENDBRANCH  36  37
ENDBRANCH  35  36
ENDBRANCH  34  35
ENDBRANCH  33  34
ENDBRANCH  32  33
ENDBRANCH  31  32
ENDBRANCH  30  31
ENDBRANCH  29  30
ENDBRANCH  28  29
ENDBRANCH  27  28
ENDBRANCH  26  27
ENDBRANCH  25  26
ENDBRANCH  24  25
ENDBRANCH  23  24
ENDBRANCH  22  23
ENDBRANCH  21  22
ENDBRANCH  13  21
BRANCH   1  44
ATOM     44  C   UNL     1     -10.199  18.391  68.195  0.00  0.00    +0.099 C 
BRANCH  44  46
ATOM     45  C   UNL     1     -10.577  19.428  66.175  0.00  0.00    -0.003 C 
ATOM     46  C   UNL     1      -9.950  19.349  67.064  0.00  0.00    -0.009 C 
ENDBRANCH  44  46
ENDBRANCH   1  44
TORSDOF 24
ENDMDL
MODEL 3
REMARK VINA RESULT:      -5.5      3.730      6.476
REMARK  Name = 
REMARK  24 active torsions:
REMARK  status: ('A' for Active; 'I' for Inactive)
REMARK    1  A    between atoms: C_2  and  C_3
REMARK    2  A    between atoms: C_3  and  N_4
REMARK    3  A    between atoms: C_21  and  O_22
REMARK    4  A    between atoms: O_22  and  C_23
REMARK    5  A    between atoms: C_23  and  C_24
REMARK    6  A    between atoms: C_24  and  O_25
REMARK    7  A    between atoms: O_25  and  C_26
REMARK    8  A    between atoms: C_26  and  C_27
REMARK    9  A    between atoms: C_27  and  O_28
REMARK   10  A    between atoms: O_28  and  C_29
REMARK   11  A    between atoms: C_29  and  C_30
REMARK   12  A    between atoms: C_30  and  O_31
REMARK   13  A    between atoms: O_31  and  C_32
REMARK   14  A    between atoms: C_32  and  C_33
REMARK   15  A    between atoms: C_33  and  O_34
REMARK   16  A    between atoms: O_34  and  C_35
REMARK   17  A    between atoms: C_35  and  C_36
REMARK   18  A    between atoms: C_36  and  O_37
REMARK   19  A    between atoms: O_37  and  C_38
REMARK   20  A    between atoms: C_38  and  C_39
REMARK   21  A    between atoms: C_39  and  O_40
REMARK   22  A    between atoms: O_40  and  C_41
REMARK   23  A    between atoms: C_41  and  C_42
REMARK   24  A    between atoms: C_42  and  O_43
REMARK                            x       y       z     vdW  Elec       q    Type
REMARK                         _______ _______ _______ _____ _____    ______ ____
ROOT
ATOM      1  N   UNL     1      -5.050  20.204  65.655  0.00  0.00    -0.268 NA
ATOM      2  C   UNL     1      -4.186  18.944  66.012  0.00  0.00    +0.091 C 
ATOM      3  C   UNL     1      -4.038  19.246  67.607  0.00  0.00    +0.147 C 
ATOM      4  C   UNL     1      -5.284  19.514  68.158  0.00  0.00    +0.089 C 
ATOM      5  C   UNL     1      -5.363  19.449  69.758  0.00  0.00    +0.199 C 
ATOM      6  O   UNL     1      -6.882  19.651  69.826  0.00  0.00    -0.473 OA
ATOM      7  C   UNL     1      -7.419  19.683  68.574  0.00  0.00    +0.173 A 
ATOM      8  C   UNL     1      -8.733  19.469  68.138  0.00  0.00    +0.229 A 
ATOM      9  C   UNL     1      -8.995  18.963  66.861  0.00  0.00    +0.045 A 
ATOM     10  C   UNL     1      -7.956  18.574  66.007  0.00  0.00    -0.001 A 
ATOM     11  C   UNL     1      -6.672  18.643  66.470  0.00  0.00    -0.021 A 
ATOM     12  O   UNL     1      -9.760  19.455  69.092  0.00  0.00    -0.283 OA
ATOM     13  C   UNL     1      -5.364  17.735  70.008  0.00  0.00    +0.156 C 
ATOM     14  C   UNL     1      -4.638  17.258  68.629  0.00  0.00    +0.036 C 
ATOM     15  C   UNL     1      -6.541  19.123  67.715  0.00  0.00    +0.016 A 
ATOM     16  C   UNL     1      -5.410  21.040  68.001  0.00  0.00    +0.027 C 
ATOM     17  C   UNL     1      -3.474  18.065  68.308  0.00  0.00    +0.035 C 
ATOM     18  O   UNL     1      -3.062  20.243  67.621  0.00  0.00    -0.224 OA
ATOM     19  C   UNL     1      -5.480  17.926  66.063  0.00  0.00    +0.045 C 
ATOM     20  C   UNL     1      -5.172  21.159  66.576  0.00  0.00    +0.073 C 
ENDROOT
BRANCH  13  21
ATOM     21  O   UNL     1      -6.726  17.436  69.430  0.00  0.00    -0.350 OA
BRANCH  21  22
ATOM     22  C   UNL     1      -6.697  16.050  69.384  0.00  0.00    +0.174 C 
BRANCH  22  23
ATOM     23  C   UNL     1      -7.964  15.577  68.734  0.00  0.00    +0.174 C 
BRANCH  23  24
ATOM     24  O   UNL     1      -7.788  15.414  67.358  0.00  0.00    -0.348 OA
BRANCH  24  25
ATOM     25  C   UNL     1      -8.798  14.643  66.802  0.00  0.00    +0.174 C 
BRANCH  25  26
ATOM     26  C   UNL     1     -10.115  15.323  67.058  0.00  0.00    +0.174 C 
BRANCH  26  27
ATOM     27  O   UNL     1     -10.479  16.032  65.916  0.00  0.00    -0.348 OA
BRANCH  27  28
ATOM     28  C   UNL     1     -10.723  15.168  64.861  0.00  0.00    +0.174 C 
BRANCH  28  29
ATOM     29  C   UNL     1     -12.129  14.653  65.011  0.00  0.00    +0.174 C 
BRANCH  29  30
ATOM     30  O   UNL     1     -12.356  13.594  64.152  0.00  0.00    -0.348 OA
BRANCH  30  31
ATOM     31  C   UNL     1     -11.201  12.858  63.953  0.00  0.00    +0.174 C 
BRANCH  31  32
ATOM     32  C   UNL     1     -11.185  11.686  64.899  0.00  0.00    +0.174 C 
BRANCH  32  33
ATOM     33  O   UNL     1      -9.998  11.606  65.627  0.00  0.00    -0.348 OA
BRANCH  33  34
ATOM     34  C   UNL     1     -10.308  11.224  66.938  0.00  0.00    +0.174 C 
BRANCH  34  35
ATOM     35  C   UNL     1     -11.562  11.918  67.407  0.00  0.00    +0.174 C 
BRANCH  35  36
ATOM     36  O   UNL     1     -12.144  11.179  68.427  0.00  0.00    -0.348 OA
BRANCH  36  37
ATOM     37  C   UNL     1     -11.843  11.726  69.661  0.00  0.00    +0.174 C 
BRANCH  37  38
ATOM     38  C   UNL     1     -11.878  13.241  69.607  0.00  0.00    +0.174 C 
BRANCH  38  39
ATOM     39  O   UNL     1     -12.156  13.755  70.871  0.00  0.00    -0.348 OA
BRANCH  39  40
ATOM     40  C   UNL     1     -12.669  15.038  70.792  0.00  0.00    +0.174 C 
BRANCH  40  41
ATOM     41  C   UNL     1     -11.980  15.921  71.796  0.00  0.00    +0.174 C 
BRANCH  41  42
ATOM     42  O   UNL     1     -12.842  16.113  72.862  0.00  0.00    -0.348 OA
ATOM     43  C   UNL     1     -12.440  15.332  73.932  0.00  0.00    +0.174 C 
ENDBRANCH  41  42
ENDBRANCH  40  41
ENDBRANCH  39  40
ENDBRANCH  38  39
ENDBRANCH  37  38
ENDBRANCH  36  37
ENDBRANCH  35  36
ENDBRANCH  34  35
ENDBRANCH  33  34
ENDBRANCH  32  33
ENDBRANCH  31  32
ENDBRANCH  30  31
ENDBRANCH  29  30
ENDBRANCH  28  29
ENDBRANCH  27  28
ENDBRANCH  26  27
ENDBRANCH  25  26
ENDBRANCH  24  25
ENDBRANCH  23  24
ENDBRANCH  22  23
ENDBRANCH  21  22
ENDBRANCH  13  21
BRANCH   1  44
ATOM     44  C   UNL     1      -4.321  20.827  64.541  0.00  0.00    +0.099 C 
BRANCH  44  46
ATOM     45  C   UNL     1      -5.724  20.209  62.824  0.00  0.00    -0.003 C 
ATOM     46  C   UNL     1      -5.244  21.021  63.371  0.00  0.00    -0.009 C 
ENDBRANCH  44  46
ENDBRANCH   1  44
TORSDOF 24
ENDMDL
MODEL 4
REMARK VINA RESULT:      -5.4      2.937      5.137
REMARK  Name = 
REMARK  24 active torsions:
REMARK  status: ('A' for Active; 'I' for Inactive)
REMARK    1  A    between atoms: C_2  and  C_3
REMARK    2  A    between atoms: C_3  and  N_4
REMARK    3  A    between atoms: C_21  and  O_22
REMARK    4  A    between atoms: O_22  and  C_23
REMARK    5  A    between atoms: C_23  and  C_24
REMARK    6  A    between atoms: C_24  and  O_25
REMARK    7  A    between atoms: O_25  and  C_26
REMARK    8  A    between atoms: C_26  and  C_27
REMARK    9  A    between atoms: C_27  and  O_28
REMARK   10  A    between atoms: O_28  and  C_29
REMARK   11  A    between atoms: C_29  and  C_30
REMARK   12  A    between atoms: C_30  and  O_31
REMARK   13  A    between atoms: O_31  and  C_32
REMARK   14  A    between atoms: C_32  and  C_33
REMARK   15  A    between atoms: C_33  and  O_34
REMARK   16  A    between atoms: O_34  and  C_35
REMARK   17  A    between atoms: C_35  and  C_36
REMARK   18  A    between atoms: C_36  and  O_37
REMARK   19  A    between atoms: O_37  and  C_38
REMARK   20  A    between atoms: C_38  and  C_39
REMARK   21  A    between atoms: C_39  and  O_40
REMARK   22  A    between atoms: O_40  and  C_41
REMARK   23  A    between atoms: C_41  and  C_42
REMARK   24  A    between atoms: C_42  and  O_43
REMARK                            x       y       z     vdW  Elec       q    Type
REMARK                         _______ _______ _______ _____ _____    ______ ____
ROOT
ATOM      1  N   UNL     1     -10.413  16.918  67.659  0.00  0.00    -0.268 NA
ATOM      2  C   UNL     1      -8.963  16.320  67.697  0.00  0.00    +0.091 C 
ATOM      3  C   UNL     1      -9.331  14.948  68.496  0.00  0.00    +0.147 C 
ATOM      4  C   UNL     1     -10.413  14.322  67.891  0.00  0.00    +0.089 C 
ATOM      5  C   UNL     1     -10.651  12.792  68.309  0.00  0.00    +0.199 C 
ATOM      6  O   UNL     1     -11.786  12.554  67.306  0.00  0.00    -0.473 OA
ATOM      7  C   UNL     1     -11.969  13.650  66.518  0.00  0.00    +0.173 A 
ATOM      8  C   UNL     1     -12.586  13.783  65.267  0.00  0.00    +0.229 A 
ATOM      9  C   UNL     1     -12.184  14.777  64.368  0.00  0.00    +0.045 A 
ATOM     10  C   UNL     1     -11.100  15.615  64.650  0.00  0.00    -0.001 A 
ATOM     11  C   UNL     1     -10.397  15.406  65.804  0.00  0.00    -0.021 A 
ATOM     12  O   UNL     1     -13.374  12.725  64.794  0.00  0.00    -0.283 OA
ATOM     13  C   UNL     1      -9.397  12.015  67.401  0.00  0.00    +0.156 C 
ATOM     14  C   UNL     1      -8.369  13.267  67.228  0.00  0.00    +0.036 C 
ATOM     15  C   UNL     1     -10.858  14.414  66.579  0.00  0.00    +0.016 A 
ATOM     16  C   UNL     1     -11.620  14.933  68.625  0.00  0.00    +0.027 C 
ATOM     17  C   UNL     1      -8.183  14.006  68.464  0.00  0.00    +0.035 C 
ATOM     18  O   UNL     1      -9.459  15.404  69.808  0.00  0.00    -0.224 OA
ATOM     19  C   UNL     1      -9.033  15.747  66.155  0.00  0.00    +0.045 C 
ATOM     20  C   UNL     1     -11.347  16.340  68.415  0.00  0.00    +0.073 C 
ENDROOT
BRANCH  13  21
ATOM     21  O   UNL     1      -9.960  12.247  66.019  0.00  0.00    -0.350 OA
BRANCH  21  22
ATOM     22  C   UNL     1      -9.416  11.173  65.328  0.00  0.00    +0.174 C 
BRANCH  22  23
ATOM     23  C   UNL     1     -10.296  10.884  64.147  0.00  0.00    +0.174 C 
BRANCH  23  24
ATOM     24  O   UNL     1      -9.652  11.216  62.953  0.00  0.00    -0.348 OA
BRANCH  24  25
ATOM     25  C   UNL     1      -9.020  10.117  62.392  0.00  0.00    +0.174 C 
BRANCH  25  26
ATOM     26  C   UNL     1      -7.645  10.534  61.944  0.00  0.00    +0.174 C 
BRANCH  26  27
ATOM     27  O   UNL     1      -6.710   9.688  62.535  0.00  0.00    -0.348 OA
BRANCH  27  28
ATOM     28  C   UNL     1      -6.045  10.335  63.564  0.00  0.00    +0.174 C 
BRANCH  28  29
ATOM     29  C   UNL     1      -5.488   9.278  64.480  0.00  0.00    +0.174 C 
BRANCH  29  30
ATOM     30  O   UNL     1      -4.951   9.853  65.617  0.00  0.00    -0.348 OA
BRANCH  30  31
ATOM     31  C   UNL     1      -5.720  10.919  66.048  0.00  0.00    +0.174 C 
BRANCH  31  32
ATOM     32  C   UNL     1      -5.029  11.601  67.200  0.00  0.00    +0.174 C 
BRANCH  32  33
ATOM     33  O   UNL     1      -4.852  12.967  66.981  0.00  0.00    -0.348 OA
BRANCH  33  34
ATOM     34  C   UNL     1      -4.465  13.562  68.188  0.00  0.00    +0.174 C 
BRANCH  34  35
ATOM     35  C   UNL     1      -4.717  15.047  68.148  0.00  0.00    +0.174 C 
BRANCH  35  36
ATOM     36  O   UNL     1      -4.465  15.591  69.400  0.00  0.00    -0.348 OA
BRANCH  36  37
ATOM     37  C   UNL     1      -5.514  16.398  69.804  0.00  0.00    +0.174 C 
BRANCH  37  38
ATOM     38  C   UNL     1      -5.607  17.642  68.942  0.00  0.00    +0.174 C 
BRANCH  38  39
ATOM     39  O   UNL     1      -6.648  18.451  69.387  0.00  0.00    -0.348 OA
BRANCH  39  40
ATOM     40  C   UNL     1      -6.767  19.592  68.612  0.00  0.00    +0.174 C 
BRANCH  40  41
ATOM     41  C   UNL     1      -5.635  20.533  68.921  0.00  0.00    +0.174 C 
BRANCH  41  42
ATOM     42  O   UNL     1      -5.699  20.856  70.266  0.00  0.00    -0.348 OA
ATOM     43  C   UNL     1      -4.460  21.298  70.697  0.00  0.00    +0.174 C 
ENDBRANCH  41  42
ENDBRANCH  40  41
ENDBRANCH  39  40
ENDBRANCH  38  39
ENDBRANCH  37  38
ENDBRANCH  36  37
ENDBRANCH  35  36
ENDBRANCH  34  35
ENDBRANCH  33  34
ENDBRANCH  32  33
ENDBRANCH  31  32
ENDBRANCH  30  31
ENDBRANCH  29  30
ENDBRANCH  28  29
ENDBRANCH  27  28
ENDBRANCH  26  27
ENDBRANCH  25  26
ENDBRANCH  24  25
ENDBRANCH  23  24
ENDBRANCH  22  23
ENDBRANCH  21  22
ENDBRANCH  13  21
BRANCH   1  44
ATOM     44  C   UNL     1     -10.251  18.273  68.208  0.00  0.00    +0.099 C 
BRANCH  44  46
ATOM     45  C   UNL     1      -9.969  19.671  66.402  0.00  0.00    -0.003 C 
ATOM     46  C   UNL     1     -10.638  19.292  67.174  0.00  0.00    -0.009 C 
ENDBRANCH  44  46
ENDBRANCH   1  44
TORSDOF 24
ENDMDL
MODEL 5
REMARK VINA RESULT:      -5.4      2.409      6.964
REMARK  Name = 
REMARK  24 active torsions:
REMARK  status: ('A' for Active; 'I' for Inactive)
REMARK    1  A    between atoms: C_2  and  C_3
REMARK    2  A    between atoms: C_3  and  N_4
REMARK    3  A    between atoms: C_21  and  O_22
REMARK    4  A    between atoms: O_22  and  C_23
REMARK    5  A    between atoms: C_23  and  C_24
REMARK    6  A    between atoms: C_24  and  O_25
REMARK    7  A    between atoms: O_25  and  C_26
REMARK    8  A    between atoms: C_26  and  C_27
REMARK    9  A    between atoms: C_27  and  O_28
REMARK   10  A    between atoms: O_28  and  C_29
REMARK   11  A    between atoms: C_29  and  C_30
REMARK   12  A    between atoms: C_30  and  O_31
REMARK   13  A    between atoms: O_31  and  C_32
REMARK   14  A    between atoms: C_32  and  C_33
REMARK   15  A    between atoms: C_33  and  O_34
REMARK   16  A    between atoms: O_34  and  C_35
REMARK   17  A    between atoms: C_35  and  C_36
REMARK   18  A    between atoms: C_36  and  O_37
REMARK   19  A    between atoms: O_37  and  C_38
REMARK   20  A    between atoms: C_38  and  C_39
REMARK   21  A    between atoms: C_39  and  O_40
REMARK   22  A    between atoms: O_40  and  C_41
REMARK   23  A    between atoms: C_41  and  C_42
REMARK   24  A    between atoms: C_42  and  O_43
REMARK                            x       y       z     vdW  Elec       q    Type
REMARK                         _______ _______ _______ _____ _____    ______ ____
ROOT
ATOM      1  N   UNL     1     -11.725   9.006  70.997  0.00  0.00    -0.268 NA
ATOM      2  C   UNL     1     -10.325   9.037  71.705  0.00  0.00    +0.091 C 
ATOM      3  C   UNL     1     -10.224   7.441  72.021  0.00  0.00    +0.147 C 
ATOM      4  C   UNL     1     -10.496   6.711  70.872  0.00  0.00    +0.089 C 
ATOM      5  C   UNL     1     -10.065   5.167  70.914  0.00  0.00    +0.199 C 
ATOM      6  O   UNL     1     -10.418   4.889  69.447  0.00  0.00    -0.473 OA
ATOM      7  C   UNL     1     -10.806   6.036  68.821  0.00  0.00    +0.173 A 
ATOM      8  C   UNL     1     -10.854   6.361  67.459  0.00  0.00    +0.229 A 
ATOM      9  C   UNL     1     -10.697   7.682  67.028  0.00  0.00    +0.045 A 
ATOM     10  C   UNL     1     -10.404   8.711  67.932  0.00  0.00    -0.001 A 
ATOM     11  C   UNL     1     -10.213   8.388  69.246  0.00  0.00    -0.021 A 
ATOM     12  O   UNL     1     -10.734   5.327  66.520  0.00  0.00    -0.283 OA
ATOM     13  C   UNL     1      -8.352   5.308  70.697  0.00  0.00    +0.156 C 
ATOM     14  C   UNL     1      -8.133   6.830  71.237  0.00  0.00    +0.036 C 
ATOM     15  C   UNL     1     -10.367   7.089  69.541  0.00  0.00    +0.016 A 
ATOM     16  C   UNL     1     -12.019   6.508  70.944  0.00  0.00    +0.027 C 
ATOM     17  C   UNL     1      -8.853   7.088  72.471  0.00  0.00    +0.035 C 
ATOM     18  O   UNL     1     -11.070   7.311  73.122  0.00  0.00    -0.224 OA
ATOM     19  C   UNL     1      -9.480   9.074  70.292  0.00  0.00    +0.045 C 
ATOM     20  C   UNL     1     -12.443   7.887  71.082  0.00  0.00    +0.073 C 
ENDROOT
BRANCH  13  21
ATOM     21  O   UNL     1      -8.357   5.785  69.264  0.00  0.00    -0.350 OA
BRANCH  21  22
ATOM     22  C   UNL     1      -7.004   6.006  69.054  0.00  0.00    +0.174 C 
BRANCH  22  23
ATOM     23  C   UNL     1      -6.861   7.028  67.963  0.00  0.00    +0.174 C 
BRANCH  23  24
ATOM     24  O   UNL     1      -7.432   6.571  66.774  0.00  0.00    -0.348 OA
BRANCH  24  25
ATOM     25  C   UNL     1      -6.784   7.093  65.664  0.00  0.00    +0.174 C 
BRANCH  25  26
ATOM     26  C   UNL     1      -7.396   8.429  65.338  0.00  0.00    +0.174 C 
BRANCH  26  27
ATOM     27  O   UNL     1      -8.072   8.324  64.126  0.00  0.00    -0.348 OA
BRANCH  27  28
ATOM     28  C   UNL     1      -8.985   9.357  63.983  0.00  0.00    +0.174 C 
BRANCH  28  29
ATOM     29  C   UNL     1      -8.707  10.361  65.070  0.00  0.00    +0.174 C 
BRANCH  29  30
ATOM     30  O   UNL     1      -9.761  11.248  65.195  0.00  0.00    -0.348 OA
BRANCH  30  31
ATOM     31  C   UNL     1     -10.653  11.114  64.146  0.00  0.00    +0.174 C 
BRANCH  31  32
ATOM     32  C   UNL     1     -11.619  12.270  64.159  0.00  0.00    +0.174 C 
BRANCH  32  33
ATOM     33  O   UNL     1     -12.362  12.329  65.338  0.00  0.00    -0.348 OA
BRANCH  33  34
ATOM     34  C   UNL     1     -12.478  13.671  65.720  0.00  0.00    +0.174 C 
BRANCH  34  35
ATOM     35  C   UNL     1     -11.406  14.501  65.063  0.00  0.00    +0.174 C 
BRANCH  35  36
ATOM     36  O   UNL     1     -10.885  15.396  65.987  0.00  0.00    -0.348 OA
BRANCH  36  37
ATOM     37  C   UNL     1     -11.461  15.208  67.230  0.00  0.00    +0.174 C 
BRANCH  37  38
ATOM     38  C   UNL     1     -10.922  16.207  68.236  0.00  0.00    +0.174 C 
BRANCH  38  39
ATOM     39  O   UNL     1     -11.813  16.339  69.297  0.00  0.00    -0.348 OA
BRANCH  39  40
ATOM     40  C   UNL     1     -12.089  15.114  69.880  0.00  0.00    +0.174 C 
BRANCH  40  41
ATOM     41  C   UNL     1     -13.083  15.296  70.994  0.00  0.00    +0.174 C 
BRANCH  41  42
ATOM     42  O   UNL     1     -12.383  15.601  72.149  0.00  0.00    -0.348 OA
ATOM     43  C   UNL     1     -13.273  15.878  73.173  0.00  0.00    +0.174 C 
ENDBRANCH  41  42
ENDBRANCH  40  41
ENDBRANCH  39  40
ENDBRANCH  38  39
ENDBRANCH  37  38
ENDBRANCH  36  37
ENDBRANCH  35  36
ENDBRANCH  34  35
ENDBRANCH  33  34
ENDBRANCH  32  33
ENDBRANCH  31  32
ENDBRANCH  30  31
ENDBRANCH  29  30
ENDBRANCH  28  29
ENDBRANCH  27  28
ENDBRANCH  26  27
ENDBRANCH  25  26
ENDBRANCH  24  25
ENDBRANCH  23  24
ENDBRANCH  22  23
ENDBRANCH  21  22
ENDBRANCH  13  21
BRANCH   1  44
ATOM     44  C   UNL     1     -12.505  10.026  71.713  0.00  0.00    +0.099 C 
BRANCH  44  46
ATOM     45  C   UNL     1     -12.256  11.389  69.875  0.00  0.00    -0.003 C 
ATOM     46  C   UNL     1     -12.502  11.312  70.934  0.00  0.00    -0.009 C 
ENDBRANCH  44  46
ENDBRANCH   1  44
TORSDOF 24
ENDMDL
MODEL 6
REMARK VINA RESULT:      -5.4      2.813      6.260
REMARK  Name = 
REMARK  24 active torsions:
REMARK  status: ('A' for Active; 'I' for Inactive)
REMARK    1  A    between atoms: C_2  and  C_3
REMARK    2  A    between atoms: C_3  and  N_4
REMARK    3  A    between atoms: C_21  and  O_22
REMARK    4  A    between atoms: O_22  and  C_23
REMARK    5  A    between atoms: C_23  and  C_24
REMARK    6  A    between atoms: C_24  and  O_25
REMARK    7  A    between atoms: O_25  and  C_26
REMARK    8  A    between atoms: C_26  and  C_27
REMARK    9  A    between atoms: C_27  and  O_28
REMARK   10  A    between atoms: O_28  and  C_29
REMARK   11  A    between atoms: C_29  and  C_30
REMARK   12  A    between atoms: C_30  and  O_31
REMARK   13  A    between atoms: O_31  and  C_32
REMARK   14  A    between atoms: C_32  and  C_33
REMARK   15  A    between atoms: C_33  and  O_34
REMARK   16  A    between atoms: O_34  and  C_35
REMARK   17  A    between atoms: C_35  and  C_36
REMARK   18  A    between atoms: C_36  and  O_37
REMARK   19  A    between atoms: O_37  and  C_38
REMARK   20  A    between atoms: C_38  and  C_39
REMARK   21  A    between atoms: C_39  and  O_40
REMARK   22  A    between atoms: O_40  and  C_41
REMARK   23  A    between atoms: C_41  and  C_42
REMARK   24  A    between atoms: C_42  and  O_43
REMARK                            x       y       z     vdW  Elec       q    Type
REMARK                         _______ _______ _______ _____ _____    ______ ____
ROOT
ATOM      1  N   UNL     1      -5.725  19.543  67.202  0.00  0.00    -0.268 NA
ATOM      2  C   UNL     1      -7.009  20.363  67.580  0.00  0.00    +0.091 C 
ATOM      3  C   UNL     1      -8.067  19.506  66.685  0.00  0.00    +0.147 C 
ATOM      4  C   UNL     1      -7.911  18.149  66.935  0.00  0.00    +0.089 C 
ATOM      5  C   UNL     1      -9.114  17.210  66.439  0.00  0.00    +0.199 C 
ATOM      6  O   UNL     1      -8.547  15.928  67.062  0.00  0.00    -0.473 OA
ATOM      7  C   UNL     1      -7.422  16.198  67.781  0.00  0.00    +0.173 A 
ATOM      8  C   UNL     1      -6.791  15.471  68.798  0.00  0.00    +0.229 A 
ATOM      9  C   UNL     1      -6.050  16.117  69.793  0.00  0.00    +0.045 A 
ATOM     10  C   UNL     1      -5.983  17.513  69.856  0.00  0.00    -0.001 A 
ATOM     11  C   UNL     1      -6.709  18.242  68.955  0.00  0.00    -0.021 A 
ATOM     12  O   UNL     1      -7.172  14.136  69.001  0.00  0.00    -0.283 OA
ATOM     13  C   UNL     1     -10.297  17.536  67.661  0.00  0.00    +0.156 C 
ATOM     14  C   UNL     1      -9.789  19.005  68.149  0.00  0.00    +0.036 C 
ATOM     15  C   UNL     1      -7.398  17.518  68.061  0.00  0.00    +0.016 A 
ATOM     16  C   UNL     1      -6.864  17.723  65.891  0.00  0.00    +0.027 C 
ATOM     17  C   UNL     1      -9.462  19.877  67.035  0.00  0.00    +0.035 C 
ATOM     18  O   UNL     1      -7.817  19.990  65.401  0.00  0.00    -0.224 OA
ATOM     19  C   UNL     1      -7.215  19.598  69.025  0.00  0.00    +0.045 C 
ATOM     20  C   UNL     1      -5.814  18.673  66.197  0.00  0.00    +0.073 C 
ENDROOT
BRANCH  13  21
ATOM     21  O   UNL     1      -9.594  16.873  68.821  0.00  0.00    -0.350 OA
BRANCH  21  22
ATOM     22  C   UNL     1     -10.672  16.543  69.630  0.00  0.00    +0.174 C 
BRANCH  22  23
ATOM     23  C   UNL     1     -11.644  15.743  68.812  0.00  0.00    +0.174 C 
BRANCH  23  24
ATOM     24  O   UNL     1     -11.241  14.410  68.724  0.00  0.00    -0.348 OA
BRANCH  24  25
ATOM     25  C   UNL     1     -12.009  13.704  67.809  0.00  0.00    +0.174 C 
BRANCH  25  26
ATOM     26  C   UNL     1     -11.469  13.966  66.429  0.00  0.00    +0.174 C 
BRANCH  26  27
ATOM     27  O   UNL     1     -12.522  13.906  65.521  0.00  0.00    -0.348 OA
BRANCH  27  28
ATOM     28  C   UNL     1     -12.051  13.672  64.239  0.00  0.00    +0.174 C 
BRANCH  28  29
ATOM     29  C   UNL     1     -10.653  13.128  64.362  0.00  0.00    +0.174 C 
BRANCH  29  30
ATOM     30  O   UNL     1     -10.541  11.917  63.704  0.00  0.00    -0.348 OA
BRANCH  30  31
ATOM     31  C   UNL     1     -10.388  10.874  64.601  0.00  0.00    +0.174 C 
BRANCH  31  32
ATOM     32  C   UNL     1      -9.161  11.113  65.441  0.00  0.00    +0.174 C 
BRANCH  32  33
ATOM     33  O   UNL     1      -9.412  10.960  66.805  0.00  0.00    -0.348 OA
BRANCH  33  34
ATOM     34  C   UNL     1     -10.521  10.119  66.958  0.00  0.00    +0.174 C 
BRANCH  34  35
ATOM     35  C   UNL     1     -11.045  10.190  68.369  0.00  0.00    +0.174 C 
BRANCH  35  36
ATOM     36  O   UNL     1     -10.521   9.138  69.108  0.00  0.00    -0.348 OA
BRANCH  36  37
ATOM     37  C   UNL     1      -9.674   9.607  70.096  0.00  0.00    +0.174 C 
BRANCH  37  38
ATOM     38  C   UNL     1      -9.590   8.627  71.250  0.00  0.00    +0.174 C 
BRANCH  38  39
ATOM     39  O   UNL     1     -10.761   7.876  71.321  0.00  0.00    -0.348 OA
BRANCH  39  40
ATOM     40  C   UNL     1     -11.615   8.365  72.294  0.00  0.00    +0.174 C 
BRANCH  40  41
ATOM     41  C   UNL     1     -13.039   8.244  71.824  0.00  0.00    +0.174 C 
BRANCH  41  42
ATOM     42  O   UNL     1     -13.722   9.380  72.225  0.00  0.00    -0.348 OA
ATOM     43  C   UNL     1     -13.081  10.505  71.733  0.00  0.00    +0.174 C 
ENDBRANCH  41  42
ENDBRANCH  40  41
ENDBRANCH  39  40
ENDBRANCH  38  39
ENDBRANCH  37  38
ENDBRANCH  36  37
ENDBRANCH  35  36
ENDBRANCH  34  35
ENDBRANCH  33  34
ENDBRANCH  32  33
ENDBRANCH  31  32
ENDBRANCH  30  31
ENDBRANCH  29  30
ENDBRANCH  28  29
ENDBRANCH  27  28
ENDBRANCH  26  27
ENDBRANCH  25  26
ENDBRANCH  24  25
ENDBRANCH  23  24
ENDBRANCH  22  23
ENDBRANCH  21  22
ENDBRANCH  13  21
BRANCH   1  44
ATOM     44  C   UNL     1      -4.773  20.568  66.749  0.00  0.00    +0.099 C 
BRANCH  44  46
ATOM     45  C   UNL     1      -3.481  19.995  68.566  0.00  0.00    -0.003 C 
ATOM     46  C   UNL     1      -3.624  20.660  67.714  0.00  0.00    -0.009 C 
ENDBRANCH  44  46
ENDBRANCH   1  44
TORSDOF 24
ENDMDL
MODEL 7
REMARK VINA RESULT:      -5.3      2.684      7.304
REMARK  Name = 
REMARK  24 active torsions:
REMARK  status: ('A' for Active; 'I' for Inactive)
REMARK    1  A    between atoms: C_2  and  C_3
REMARK    2  A    between atoms: C_3  and  N_4
REMARK    3  A    between atoms: C_21  and  O_22
REMARK    4  A    between atoms: O_22  and  C_23
REMARK    5  A    between atoms: C_23  and  C_24
REMARK    6  A    between atoms: C_24  and  O_25
REMARK    7  A    between atoms: O_25  and  C_26
REMARK    8  A    between atoms: C_26  and  C_27
REMARK    9  A    between atoms: C_27  and  O_28
REMARK   10  A    between atoms: O_28  and  C_29
REMARK   11  A    between atoms: C_29  and  C_30
REMARK   12  A    between atoms: C_30  and  O_31
REMARK   13  A    between atoms: O_31  and  C_32
REMARK   14  A    between atoms: C_32  and  C_33
REMARK   15  A    between atoms: C_33  and  O_34
REMARK   16  A    between atoms: O_34  and  C_35
REMARK   17  A    between atoms: C_35  and  C_36
REMARK   18  A    between atoms: C_36  and  O_37
REMARK   19  A    between atoms: O_37  and  C_38
REMARK   20  A    between atoms: C_38  and  C_39
REMARK   21  A    between atoms: C_39  and  O_40
REMARK   22  A    between atoms: O_40  and  C_41
REMARK   23  A    between atoms: C_41  and  C_42
REMARK   24  A    between atoms: C_42  and  O_43
REMARK                            x       y       z     vdW  Elec       q    Type
REMARK                         _______ _______ _______ _____ _____    ______ ____
ROOT
ATOM      1  N   UNL     1     -11.884   8.971  70.990  0.00  0.00    -0.268 NA
ATOM      2  C   UNL     1     -10.479   9.133  71.669  0.00  0.00    +0.091 C 
ATOM      3  C   UNL     1     -10.254   7.562  72.042  0.00  0.00    +0.147 C 
ATOM      4  C   UNL     1     -10.490   6.770  70.926  0.00  0.00    +0.089 C 
ATOM      5  C   UNL     1      -9.944   5.265  71.017  0.00  0.00    +0.199 C 
ATOM      6  O   UNL     1     -10.301   4.906  69.569  0.00  0.00    -0.473 OA
ATOM      7  C   UNL     1     -10.783   5.995  68.908  0.00  0.00    +0.173 A 
ATOM      8  C   UNL     1     -10.878   6.263  67.537  0.00  0.00    +0.229 A 
ATOM      9  C   UNL     1     -10.828   7.575  67.054  0.00  0.00    +0.045 A 
ATOM     10  C   UNL     1     -10.597   8.656  67.913  0.00  0.00    -0.001 A 
ATOM     11  C   UNL     1     -10.360   8.399  69.235  0.00  0.00    -0.021 A 
ATOM     12  O   UNL     1     -10.697   5.206  66.634  0.00  0.00    -0.283 OA
ATOM     13  C   UNL     1      -8.251   5.524  70.762  0.00  0.00    +0.156 C 
ATOM     14  C   UNL     1      -8.137   7.077  71.241  0.00  0.00    +0.036 C 
ATOM     15  C   UNL     1     -10.412   7.105  69.581  0.00  0.00    +0.016 A 
ATOM     16  C   UNL     1     -11.993   6.458  71.036  0.00  0.00    +0.027 C 
ATOM     17  C   UNL     1      -8.854   7.329  72.479  0.00  0.00    +0.035 C 
ATOM     18  O   UNL     1     -11.069   7.413  73.164  0.00  0.00    -0.224 OA
ATOM     19  C   UNL     1      -9.663   9.177  70.239  0.00  0.00    +0.045 C 
ATOM     20  C   UNL     1     -12.516   7.807  71.131  0.00  0.00    +0.073 C 
ENDROOT
BRANCH  13  21
ATOM     21  O   UNL     1      -8.315   5.943  69.313  0.00  0.00    -0.350 OA
BRANCH  21  22
ATOM     22  C   UNL     1      -6.991   6.283  69.076  0.00  0.00    +0.174 C 
BRANCH  22  23
ATOM     23  C   UNL     1      -6.924   7.020  67.770  0.00  0.00    +0.174 C 
BRANCH  23  24
ATOM     24  O   UNL     1      -7.086   8.393  67.964  0.00  0.00    -0.348 OA
BRANCH  24  25
ATOM     25  C   UNL     1      -7.056   9.085  66.763  0.00  0.00    +0.174 C 
BRANCH  25  26
ATOM     26  C   UNL     1      -7.409  10.523  67.030  0.00  0.00    +0.174 C 
BRANCH  26  27
ATOM     27  O   UNL     1      -8.529  10.855  66.273  0.00  0.00    -0.348 OA
BRANCH  27  28
ATOM     28  C   UNL     1      -8.427  10.331  64.994  0.00  0.00    +0.174 C 
BRANCH  28  29
ATOM     29  C   UNL     1      -9.824  10.055  64.504  0.00  0.00    +0.174 C 
BRANCH  29  30
ATOM     30  O   UNL     1     -10.630  11.165  64.679  0.00  0.00    -0.348 OA
BRANCH  30  31
ATOM     31  C   UNL     1     -11.186  11.572  63.479  0.00  0.00    +0.174 C 
BRANCH  31  32
ATOM     32  C   UNL     1     -12.090  12.753  63.721  0.00  0.00    +0.174 C 
BRANCH  32  33
ATOM     33  O   UNL     1     -12.817  12.632  64.906  0.00  0.00    -0.348 OA
BRANCH  33  34
ATOM     34  C   UNL     1     -12.743  13.849  65.595  0.00  0.00    +0.174 C 
BRANCH  34  35
ATOM     35  C   UNL     1     -12.005  13.673  66.898  0.00  0.00    +0.174 C 
BRANCH  35  36
ATOM     36  O   UNL     1     -10.660  13.956  66.707  0.00  0.00    -0.348 OA
BRANCH  36  37
ATOM     37  C   UNL     1     -10.137  14.613  67.806  0.00  0.00    +0.174 C 
BRANCH  37  38
ATOM     38  C   UNL     1     -10.704  16.014  67.921  0.00  0.00    +0.174 C 
BRANCH  38  39
ATOM     39  O   UNL     1      -9.687  16.914  68.226  0.00  0.00    -0.348 OA
BRANCH  39  40
ATOM     40  C   UNL     1     -10.150  18.219  68.226  0.00  0.00    +0.174 C 
BRANCH  40  41
ATOM     41  C   UNL     1      -9.041  19.149  67.816  0.00  0.00    +0.174 C 
BRANCH  41  42
ATOM     42  O   UNL     1      -9.606  20.219  67.143  0.00  0.00    -0.348 OA
ATOM     43  C   UNL     1     -10.501  19.752  66.196  0.00  0.00    +0.174 C 
ENDBRANCH  41  42
ENDBRANCH  40  41
ENDBRANCH  39  40
ENDBRANCH  38  39
ENDBRANCH  37  38
ENDBRANCH  36  37
ENDBRANCH  35  36
ENDBRANCH  34  35
ENDBRANCH  33  34
ENDBRANCH  32  33
ENDBRANCH  31  32
ENDBRANCH  30  31
ENDBRANCH  29  30
ENDBRANCH  28  29
ENDBRANCH  27  28
ENDBRANCH  26  27
ENDBRANCH  25  26
ENDBRANCH  24  25
ENDBRANCH  23  24
ENDBRANCH  22  23
ENDBRANCH  21  22
ENDBRANCH  13  21
BRANCH   1  44
ATOM     44  C   UNL     1     -12.726   9.958  71.683  0.00  0.00    +0.099 C 
BRANCH  44  46
ATOM     45  C   UNL     1     -12.390  11.570  70.074  0.00  0.00    -0.003 C 
ATOM     46  C   UNL     1     -12.458  11.332  71.136  0.00  0.00    -0.009 C 
ENDBRANCH  44  46
ENDBRANCH   1  44
TORSDOF 24
ENDMDL
MODEL 8
REMARK VINA RESULT:      -5.3      2.763      8.139
REMARK  Name = 
REMARK  24 active torsions:
REMARK  status: ('A' for Active; 'I' for Inactive)
REMARK    1  A    between atoms: C_2  and  C_3
REMARK    2  A    between atoms: C_3  and  N_4
REMARK    3  A    between atoms: C_21  and  O_22
REMARK    4  A    between atoms: O_22  and  C_23
REMARK    5  A    between atoms: C_23  and  C_24
REMARK    6  A    between atoms: C_24  and  O_25
REMARK    7  A    between atoms: O_25  and  C_26
REMARK    8  A    between atoms: C_26  and  C_27
REMARK    9  A    between atoms: C_27  and  O_28
REMARK   10  A    between atoms: O_28  and  C_29
REMARK   11  A    between atoms: C_29  and  C_30
REMARK   12  A    between atoms: C_30  and  O_31
REMARK   13  A    between atoms: O_31  and  C_32
REMARK   14  A    between atoms: C_32  and  C_33
REMARK   15  A    between atoms: C_33  and  O_34
REMARK   16  A    between atoms: O_34  and  C_35
REMARK   17  A    between atoms: C_35  and  C_36
REMARK   18  A    between atoms: C_36  and  O_37
REMARK   19  A    between atoms: O_37  and  C_38
REMARK   20  A    between atoms: C_38  and  C_39
REMARK   21  A    between atoms: C_39  and  O_40
REMARK   22  A    between atoms: O_40  and  C_41
REMARK   23  A    between atoms: C_41  and  C_42
REMARK   24  A    between atoms: C_42  and  O_43
REMARK                            x       y       z     vdW  Elec       q    Type
REMARK                         _______ _______ _______ _____ _____    ______ ____
ROOT
ATOM      1  N   UNL     1     -10.432   5.547  71.961  0.00  0.00    -0.268 NA
ATOM      2  C   UNL     1     -11.539   6.655  72.047  0.00  0.00    +0.091 C 
ATOM      3  C   UNL     1     -10.538   7.942  72.012  0.00  0.00    +0.147 C 
ATOM      4  C   UNL     1      -9.643   7.820  70.957  0.00  0.00    +0.089 C 
ATOM      5  C   UNL     1      -8.861   9.160  70.553  0.00  0.00    +0.199 C 
ATOM      6  O   UNL     1      -8.175   8.549  69.324  0.00  0.00    -0.473 OA
ATOM      7  C   UNL     1      -8.610   7.274  69.115  0.00  0.00    +0.173 A 
ATOM      8  C   UNL     1      -8.577   6.476  67.965  0.00  0.00    +0.229 A 
ATOM      9  C   UNL     1      -9.543   5.488  67.746  0.00  0.00    +0.045 A 
ATOM     10  C   UNL     1     -10.621   5.320  68.623  0.00  0.00    -0.001 A 
ATOM     11  C   UNL     1     -10.746   6.185  69.675  0.00  0.00    -0.021 A 
ATOM     12  O   UNL     1      -7.774   6.883  66.890  0.00  0.00    -0.283 OA
ATOM     13  C   UNL     1     -10.106  10.011  69.701  0.00  0.00    +0.156 C 
ATOM     14  C   UNL     1     -11.419   9.313  70.367  0.00  0.00    +0.036 C 
ATOM     15  C   UNL     1      -9.775   7.103  69.774  0.00  0.00    +0.016 A 
ATOM     16  C   UNL     1      -8.461   7.067  71.593  0.00  0.00    +0.027 C 
ATOM     17  C   UNL     1     -11.311   9.194  71.811  0.00  0.00    +0.035 C 
ATOM     18  O   UNL     1     -10.048   7.961  73.318  0.00  0.00    -0.224 OA
ATOM     19  C   UNL     1     -11.910   6.575  70.445  0.00  0.00    +0.045 C 
ATOM     20  C   UNL     1      -9.163   5.917  72.128  0.00  0.00    +0.073 C 
ENDROOT
BRANCH  13  21
ATOM     21  O   UNL     1     -10.198   9.105  68.497  0.00  0.00    -0.350 OA
BRANCH  21  22
ATOM     22  C   UNL     1     -10.767   9.961  67.565  0.00  0.00    +0.174 C 
BRANCH  22  23
ATOM     23  C   UNL     1      -9.862  11.148  67.405  0.00  0.00    +0.174 C 
BRANCH  23  24
ATOM     24  O   UNL     1      -9.034  10.997  66.290  0.00  0.00    -0.348 OA
BRANCH  24  25
ATOM     25  C   UNL     1      -9.682  10.329  65.261  0.00  0.00    +0.174 C 
BRANCH  25  26
ATOM     26  C   UNL     1      -9.941  11.305  64.146  0.00  0.00    +0.174 C 
BRANCH  26  27
ATOM     27  O   UNL     1     -11.252  11.144  63.709  0.00  0.00    -0.348 OA
BRANCH  27  28
ATOM     28  C   UNL     1     -11.883  12.372  63.588  0.00  0.00    +0.174 C 
BRANCH  28  29
ATOM     29  C   UNL     1     -12.520  12.688  64.915  0.00  0.00    +0.174 C 
BRANCH  29  30
ATOM     30  O   UNL     1     -12.794  14.040  65.014  0.00  0.00    -0.348 OA
BRANCH  30  31
ATOM     31  C   UNL     1     -11.628  14.780  65.096  0.00  0.00    +0.174 C 
BRANCH  31  32
ATOM     32  C   UNL     1     -11.335  15.094  66.540  0.00  0.00    +0.174 C 
BRANCH  32  33
ATOM     33  O   UNL     1     -10.004  14.852  66.878  0.00  0.00    -0.348 OA
BRANCH  33  34
ATOM     34  C   UNL     1      -9.630  15.756  67.880  0.00  0.00    +0.174 C 
BRANCH  34  35
ATOM     35  C   UNL     1     -10.706  16.792  68.082  0.00  0.00    +0.174 C 
BRANCH  35  36
ATOM     36  O   UNL     1     -10.918  16.975  69.441  0.00  0.00    -0.348 OA
BRANCH  36  37
ATOM     37  C   UNL     1     -11.017  15.758  70.091  0.00  0.00    +0.174 C 
BRANCH  37  38
ATOM     38  C   UNL     1     -12.431  15.518  70.584  0.00  0.00    +0.174 C 
BRANCH  38  39
ATOM     39  O   UNL     1     -12.550  15.939  71.906  0.00  0.00    -0.348 OA
BRANCH  39  40
ATOM     40  C   UNL     1     -13.824  15.709  72.396  0.00  0.00    +0.174 C 
BRANCH  40  41
ATOM     41  C   UNL     1     -14.346  14.406  71.856  0.00  0.00    +0.174 C 
BRANCH  41  42
ATOM     42  O   UNL     1     -13.949  13.396  72.716  0.00  0.00    -0.348 OA
ATOM     43  C   UNL     1     -13.337  12.385  71.994  0.00  0.00    +0.174 C 
ENDBRANCH  41  42
ENDBRANCH  40  41
ENDBRANCH  39  40
ENDBRANCH  38  39
ENDBRANCH  37  38
ENDBRANCH  36  37
ENDBRANCH  35  36
ENDBRANCH  34  35
ENDBRANCH  33  34
ENDBRANCH  32  33
ENDBRANCH  31  32
ENDBRANCH  30  31
ENDBRANCH  29  30
ENDBRANCH  28  29
ENDBRANCH  27  28
ENDBRANCH  26  27
ENDBRANCH  25  26
ENDBRANCH  24  25
ENDBRANCH  23  24
ENDBRANCH  22  23
ENDBRANCH  21  22
ENDBRANCH  13  21
BRANCH   1  44
ATOM     44  C   UNL     1     -10.732   4.660  73.095  0.00  0.00    +0.099 C 
BRANCH  44  46
ATOM     45  C   UNL     1      -9.748   2.638  72.603  0.00  0.00    -0.003 C 
ATOM     46  C   UNL     1     -10.665   3.225  72.653  0.00  0.00    -0.009 C 
ENDBRANCH  44  46
ENDBRANCH   1  44
TORSDOF 24
ENDMDL
MODEL 9
REMARK VINA RESULT:      -5.3      2.835      8.200
REMARK  Name = 
REMARK  24 active torsions:
REMARK  status: ('A' for Active; 'I' for Inactive)
REMARK    1  A    between atoms: C_2  and  C_3
REMARK    2  A    between atoms: C_3  and  N_4
REMARK    3  A    between atoms: C_21  and  O_22
REMARK    4  A    between atoms: O_22  and  C_23
REMARK    5  A    between atoms: C_23  and  C_24
REMARK    6  A    between atoms: C_24  and  O_25
REMARK    7  A    between atoms: O_25  and  C_26
REMARK    8  A    between atoms: C_26  and  C_27
REMARK    9  A    between atoms: C_27  and  O_28
REMARK   10  A    between atoms: O_28  and  C_29
REMARK   11  A    between atoms: C_29  and  C_30
REMARK   12  A    between atoms: C_30  and  O_31
REMARK   13  A    between atoms: O_31  and  C_32
REMARK   14  A    between atoms: C_32  and  C_33
REMARK   15  A    between atoms: C_33  and  O_34
REMARK   16  A    between atoms: O_34  and  C_35
REMARK   17  A    between atoms: C_35  and  C_36
REMARK   18  A    between atoms: C_36  and  O_37
REMARK   19  A    between atoms: O_37  and  C_38
REMARK   20  A    between atoms: C_38  and  C_39
REMARK   21  A    between atoms: C_39  and  O_40
REMARK   22  A    between atoms: O_40  and  C_41
REMARK   23  A    between atoms: C_41  and  C_42
REMARK   24  A    between atoms: C_42  and  O_43
REMARK                            x       y       z     vdW  Elec       q    Type
REMARK                         _______ _______ _______ _____ _____    ______ ____
ROOT
ATOM      1  N   UNL     1      -9.860   5.251  70.635  0.00  0.00    -0.268 NA
ATOM      2  C   UNL     1     -10.927   6.112  71.397  0.00  0.00    +0.091 C 
ATOM      3  C   UNL     1     -10.019   7.455  71.567  0.00  0.00    +0.147 C 
ATOM      4  C   UNL     1      -9.464   7.811  70.344  0.00  0.00    +0.089 C 
ATOM      5  C   UNL     1      -8.873   9.300  70.259  0.00  0.00    +0.199 C 
ATOM      6  O   UNL     1      -8.554   9.231  68.760  0.00  0.00    -0.473 OA
ATOM      7  C   UNL     1      -8.992   8.054  68.229  0.00  0.00    +0.173 A 
ATOM      8  C   UNL     1      -9.269   7.699  66.902  0.00  0.00    +0.229 A 
ATOM      9  C   UNL     1     -10.227   6.724  66.604  0.00  0.00    +0.045 A 
ATOM     10  C   UNL     1     -10.999   6.133  67.610  0.00  0.00    -0.001 A 
ATOM     11  C   UNL     1     -10.841   6.571  68.895  0.00  0.00    -0.021 A 
ATOM     12  O   UNL     1      -8.825   8.544  65.876  0.00  0.00    -0.283 OA
ATOM     13  C   UNL     1     -10.336  10.216  70.124  0.00  0.00    +0.156 C 
ATOM     14  C   UNL     1     -11.379   9.170  70.812  0.00  0.00    +0.036 C 
ATOM     15  C   UNL     1      -9.911   7.522  69.061  0.00  0.00    +0.016 A 
ATOM     16  C   UNL     1      -8.127   7.051  70.338  0.00  0.00    +0.027 C 
ATOM     17  C   UNL     1     -10.854   8.590  72.036  0.00  0.00    +0.035 C 
ATOM     18  O   UNL     1      -9.172   7.100  72.617  0.00  0.00    -0.224 OA
ATOM     19  C   UNL     1     -11.744   6.525  70.028  0.00  0.00    +0.045 C 
ATOM     20  C   UNL     1      -8.608   5.706  70.587  0.00  0.00    +0.073 C 
ENDROOT
BRANCH  13  21
ATOM     21  O   UNL     1     -10.745   9.763  68.743  0.00  0.00    -0.350 OA
BRANCH  21  22
ATOM     22  C   UNL     1     -11.685  10.729  68.414  0.00  0.00    +0.174 C 
BRANCH  22  23
ATOM     23  C   UNL     1     -11.211  11.440  67.179  0.00  0.00    +0.174 C 
BRANCH  23  24
ATOM     24  O   UNL     1     -12.184  12.324  66.709  0.00  0.00    -0.348 OA
BRANCH  24  25
ATOM     25  C   UNL     1     -11.747  13.015  65.588  0.00  0.00    +0.174 C 
BRANCH  25  26
ATOM     26  C   UNL     1     -10.244  12.956  65.545  0.00  0.00    +0.174 C 
BRANCH  26  27
ATOM     27  O   UNL     1      -9.751  14.255  65.461  0.00  0.00    -0.348 OA
BRANCH  27  28
ATOM     28  C   UNL     1     -10.771  15.148  65.171  0.00  0.00    +0.174 C 
BRANCH  28  29
ATOM     29  C   UNL     1     -10.421  16.462  65.819  0.00  0.00    +0.174 C 
BRANCH  29  30
ATOM     30  O   UNL     1      -9.059  16.690  65.754  0.00  0.00    -0.348 OA
BRANCH  30  31
ATOM     31  C   UNL     1      -8.692  17.752  66.562  0.00  0.00    +0.174 C 
BRANCH  31  32
ATOM     32  C   UNL     1      -8.446  17.254  67.962  0.00  0.00    +0.174 C 
BRANCH  32  33
ATOM     33  O   UNL     1      -7.310  16.450  68.049  0.00  0.00    -0.348 OA
BRANCH  33  34
ATOM     34  C   UNL     1      -7.710  15.154  68.394  0.00  0.00    +0.174 C 
BRANCH  34  35
ATOM     35  C   UNL     1      -8.949  15.196  69.252  0.00  0.00    +0.174 C 
BRANCH  35  36
ATOM     36  O   UNL     1      -9.913  14.357  68.710  0.00  0.00    -0.348 OA
BRANCH  36  37
ATOM     37  C   UNL     1     -11.058  14.359  69.487  0.00  0.00    +0.174 C 
BRANCH  37  38
ATOM     38  C   UNL     1     -11.940  15.546  69.153  0.00  0.00    +0.174 C 
BRANCH  38  39
ATOM     39  O   UNL     1     -12.652  15.941  70.282  0.00  0.00    -0.348 OA
BRANCH  39  40
ATOM     40  C   UNL     1     -12.651  14.952  71.250  0.00  0.00    +0.174 C 
BRANCH  40  41
ATOM     41  C   UNL     1     -13.851  15.117  72.143  0.00  0.00    +0.174 C 
BRANCH  41  42
ATOM     42  O   UNL     1     -14.310  13.855  72.482  0.00  0.00    -0.348 OA
ATOM     43  C   UNL     1     -13.405  12.900  72.049  0.00  0.00    +0.174 C 
ENDBRANCH  41  42
ENDBRANCH  40  41
ENDBRANCH  39  40
ENDBRANCH  38  39
ENDBRANCH  37  38
ENDBRANCH  36  37
ENDBRANCH  35  36
ENDBRANCH  34  35
ENDBRANCH  33  34
ENDBRANCH  32  33
ENDBRANCH  31  32
ENDBRANCH  30  31
ENDBRANCH  29  30
ENDBRANCH  28  29
ENDBRANCH  27  28
ENDBRANCH  26  27
ENDBRANCH  25  26
ENDBRANCH  24  25
ENDBRANCH  23  24
ENDBRANCH  22  23
ENDBRANCH  21  22
ENDBRANCH  13  21
BRANCH   1  44
ATOM     44  C   UNL     1      -9.792   4.005  71.412  0.00  0.00    +0.099 C 
BRANCH  44  46
ATOM     45  C   UNL     1      -9.399   1.815  70.822  0.00  0.00    -0.003 C 
ATOM     46  C   UNL     1      -9.434   2.858  70.509  0.00  0.00    -0.009 C 
ENDBRANCH  44  46
ENDBRANCH   1  44
TORSDOF 24
ENDMDL
