MODEL 1
REMARK VINA RESULT:      -8.8      0.000      0.000
REMARK  Name = 
REMARK  5 active torsions:
REMARK  status: ('A' for Active; 'I' for Inactive)
REMARK    1  A    between atoms: O_2  and  C_3
REMARK    2  A    between atoms: C_5  and  C_6
REMARK    3  A    between atoms: C_13  and  O_14
REMARK    4  A    between atoms: O_14  and  C_15
REMARK    5  A    between atoms: C_38  and  O_39
REMARK                            x       y       z     vdW  Elec       q    Type
REMARK                         _______ _______ _______ _____ _____    ______ ____
ROOT
ATOM      1  C   UNL     1      -9.892  13.353  68.482  0.00  0.00    +0.055 C 
ATOM      2  C   UNL     1     -10.109  13.713  66.832  0.00  0.00    +0.113 C 
ATOM      3  C   UNL     1     -11.292  14.917  67.073  0.00  0.00    +0.086 C 
ATOM      4  C   UNL     1     -10.988  15.149  65.514  0.00  0.00    +0.212 C 
ATOM      5  O   UNL     1     -11.655  13.853  65.328  0.00  0.00    -0.448 OA
ATOM      6  C   UNL     1     -10.310  15.993  67.912  0.00  0.00    +0.144 C 
ATOM      7  C   UNL     1     -10.919  15.281  69.246  0.00  0.00    +0.004 A 
ATOM      8  C   UNL     1     -12.064  15.940  69.720  0.00  0.00    +0.038 A 
ATOM      9  C   UNL     1     -12.828  15.301  70.696  0.00  0.00    +0.176 A 
ATOM     10  O   UNL     1     -13.936  15.686  71.430  0.00  0.00    -0.435 OA
ATOM     11  C   UNL     1     -14.675  14.513  71.766  0.00  0.00    +0.429 C 
ATOM     12  O   UNL     1     -13.681  13.542  71.750  0.00  0.00    -0.435 OA
ATOM     13  C   UNL     1     -12.553  13.993  71.060  0.00  0.00    +0.176 A 
ATOM     14  C   UNL     1     -11.594  13.376  70.272  0.00  0.00    +0.036 A 
ATOM     15  C   UNL     1     -11.414  12.947  66.406  0.00  0.00    +0.317 C 
ATOM     16  O   UNL     1     -12.440  12.775  67.119  0.00  0.00    -0.250 OA
ATOM     17  C   UNL     1     -11.284  13.917  69.029  0.00  0.00    -0.016 A 
ENDROOT
BRANCH   1  23
ATOM     18  C   UNL     1      -8.406  10.156  68.508  0.00  0.00    +0.180 A 
ATOM     19  C   UNL     1      -8.960   9.684  69.701  0.00  0.00    +0.263 A 
ATOM     20  O   UNL     1      -8.139   9.565  70.831  0.00  0.00    -0.280 OA
ATOM     21  C   UNL     1     -10.314   9.990  69.827  0.00  0.00    +0.180 A 
ATOM     22  C   UNL     1     -10.867  11.081  69.176  0.00  0.00    +0.036 A 
ATOM     23  C   UNL     1     -10.212  11.798  68.284  0.00  0.00    -0.012 A 
ATOM     24  C   UNL     1      -8.943  11.304  67.916  0.00  0.00    +0.036 A 
BRANCH  18  26
ATOM     25  C   UNL     1      -6.480   9.452  67.789  0.00  0.00    +0.253 C 
ATOM     26  O   UNL     1      -7.154   9.660  68.213  0.00  0.00    -0.468 OA
ENDBRANCH  18  26
BRANCH  21  27
ATOM     27  O   UNL     1     -10.944   9.731  71.049  0.00  0.00    -0.468 OA
ATOM     28  C   UNL     1     -12.300   9.919  71.286  0.00  0.00    +0.253 C 
ENDBRANCH  21  27
ENDBRANCH   1  23
BRANCH   6  29
ATOM     29  O   UNL     1      -9.031  15.178  67.886  0.00  0.00    -0.326 OA
BRANCH  29  30
ATOM     30  C   UNL     1      -8.029  16.193  68.384  0.00  0.00    +0.270 C 
ATOM     31  C   UNL     1      -6.892  15.737  67.170  0.00  0.00    +0.240 C 
ATOM     32  O   UNL     1      -6.214  14.770  68.086  0.00  0.00    -0.215 OA
ATOM     33  C   UNL     1      -5.794  16.963  67.596  0.00  0.00    +0.217 C 
ATOM     34  O   UNL     1      -4.927  16.663  66.413  0.00  0.00    -0.218 OA
ATOM     35  C   UNL     1      -6.667  18.117  66.708  0.00  0.00    +0.180 C 
ATOM     36  C   UNL     1      -7.679  18.356  68.065  0.00  0.00    +0.177 C 
ATOM     37  C   UNL     1      -8.496  19.555  67.309  0.00  0.00    +0.177 C 
ATOM     38  O   UNL     1      -7.552  20.542  67.464  0.00  0.00    -0.328 OA
ATOM     39  C   UNL     1      -6.533  20.301  66.346  0.00  0.00    +0.235 C 
ATOM     40  C   UNL     1      -5.531  21.473  66.966  0.00  0.00    +0.067 C 
ATOM     41  O   UNL     1      -5.794  19.237  67.163  0.00  0.00    -0.328 OA
ATOM     42  O   UNL     1      -8.590  17.306  67.505  0.00  0.00    -0.326 OA
ENDBRANCH  29  30
ENDBRANCH   6  29
TORSDOF 5
ENDMDL
MODEL 2
REMARK VINA RESULT:      -7.8      2.371      8.476
REMARK  Name = 
REMARK  5 active torsions:
REMARK  status: ('A' for Active; 'I' for Inactive)
REMARK    1  A    between atoms: O_2  and  C_3
REMARK    2  A    between atoms: C_5  and  C_6
REMARK    3  A    between atoms: C_13  and  O_14
REMARK    4  A    between atoms: O_14  and  C_15
REMARK    5  A    between atoms: C_38  and  O_39
REMARK                            x       y       z     vdW  Elec       q    Type
REMARK                         _______ _______ _______ _____ _____    ______ ____
ROOT
ATOM      1  C   UNL     1     -10.510  12.616  68.550  0.00  0.00    +0.055 C 
ATOM      2  C   UNL     1     -11.093  11.768  67.192  0.00  0.00    +0.113 C 
ATOM      3  C   UNL     1      -9.637  11.840  66.307  0.00  0.00    +0.086 C 
ATOM      4  C   UNL     1     -10.450  10.793  65.401  0.00  0.00    +0.212 C 
ATOM      5  O   UNL     1     -11.284  11.950  65.047  0.00  0.00    -0.448 OA
ATOM      6  C   UNL     1      -8.712  10.927  67.372  0.00  0.00    +0.144 C 
ATOM      7  C   UNL     1      -8.276  12.367  67.999  0.00  0.00    +0.004 A 
ATOM      8  C   UNL     1      -7.110  12.870  67.402  0.00  0.00    +0.038 A 
ATOM      9  C   UNL     1      -6.766  14.197  67.659  0.00  0.00    +0.176 A 
ATOM     10  O   UNL     1      -5.670  14.972  67.319  0.00  0.00    -0.435 OA
ATOM     11  C   UNL     1      -6.092  16.332  67.252  0.00  0.00    +0.429 C 
ATOM     12  O   UNL     1      -7.181  16.330  68.116  0.00  0.00    -0.435 OA
ATOM     13  C   UNL     1      -7.634  15.029  68.346  0.00  0.00    +0.176 A 
ATOM     14  C   UNL     1      -8.879  14.471  68.589  0.00  0.00    +0.036 A 
ATOM     15  C   UNL     1     -11.438  12.872  66.128  0.00  0.00    +0.317 C 
ATOM     16  O   UNL     1     -10.800  13.942  65.933  0.00  0.00    -0.250 OA
ATOM     17  C   UNL     1      -9.286  13.367  67.847  0.00  0.00    -0.016 A 
ENDROOT
BRANCH   1  23
ATOM     18  C   UNL     1     -12.819  14.394  70.534  0.00  0.00    +0.180 A 
ATOM     19  C   UNL     1     -12.204  15.648  70.486  0.00  0.00    +0.263 A 
ATOM     20  O   UNL     1     -11.554  16.131  71.630  0.00  0.00    -0.280 OA
ATOM     21  C   UNL     1     -11.751  15.980  69.210  0.00  0.00    +0.180 A 
ATOM     22  C   UNL     1     -11.426  15.000  68.286  0.00  0.00    +0.036 A 
ATOM     23  C   UNL     1     -11.667  13.718  68.478  0.00  0.00    -0.012 A 
ATOM     24  C   UNL     1     -12.414  13.403  69.633  0.00  0.00    +0.036 A 
BRANCH  18  26
ATOM     25  C   UNL     1     -13.962  13.736  72.261  0.00  0.00    +0.253 C 
ATOM     26  O   UNL     1     -13.511  14.131  71.697  0.00  0.00    -0.468 OA
ENDBRANCH  18  26
BRANCH  21  27
ATOM     27  O   UNL     1     -10.964  17.127  69.060  0.00  0.00    -0.468 OA
ATOM     28  C   UNL     1     -10.551  17.639  67.837  0.00  0.00    +0.253 C 
ENDBRANCH  21  27
ENDBRANCH   1  23
BRANCH   6  29
ATOM     29  O   UNL     1      -9.790  10.644  68.401  0.00  0.00    -0.326 OA
BRANCH  29  30
ATOM     30  C   UNL     1      -9.238   9.407  69.069  0.00  0.00    +0.270 C 
ATOM     31  C   UNL     1     -10.796   8.979  69.672  0.00  0.00    +0.240 C 
ATOM     32  O   UNL     1     -10.546   9.669  70.974  0.00  0.00    -0.215 OA
ATOM     33  C   UNL     1     -10.253   7.501  70.313  0.00  0.00    +0.217 C 
ATOM     34  O   UNL     1     -11.649   7.078  70.648  0.00  0.00    -0.218 OA
ATOM     35  C   UNL     1     -10.352   6.752  68.792  0.00  0.00    +0.180 C 
ATOM     36  C   UNL     1      -8.786   7.335  68.433  0.00  0.00    +0.177 C 
ATOM     37  C   UNL     1      -8.768   6.550  66.997  0.00  0.00    +0.177 C 
ATOM     38  O   UNL     1      -8.512   5.290  67.484  0.00  0.00    -0.328 OA
ATOM     39  C   UNL     1      -9.871   4.758  67.950  0.00  0.00    +0.235 C 
ATOM     40  C   UNL     1      -9.150   3.414  68.612  0.00  0.00    +0.067 C 
ATOM     41  O   UNL     1      -9.762   5.480  69.296  0.00  0.00    -0.328 OA
ATOM     42  O   UNL     1      -9.432   8.545  67.827  0.00  0.00    -0.326 OA
ENDBRANCH  29  30
ENDBRANCH   6  29
TORSDOF 5
ENDMDL
MODEL 3
REMARK VINA RESULT:      -7.6      1.644      2.555
REMARK  Name = 
REMARK  5 active torsions:
REMARK  status: ('A' for Active; 'I' for Inactive)
REMARK    1  A    between atoms: O_2  and  C_3
REMARK    2  A    between atoms: C_5  and  C_6
REMARK    3  A    between atoms: C_13  and  O_14
REMARK    4  A    between atoms: O_14  and  C_15
REMARK    5  A    between atoms: C_38  and  O_39
REMARK                            x       y       z     vdW  Elec       q    Type
REMARK                         _______ _______ _______ _____ _____    ______ ____
ROOT
ATOM      1  C   UNL     1      -9.549  12.236  67.298  0.00  0.00    +0.055 C 
ATOM      2  C   UNL     1     -10.305  13.145  66.073  0.00  0.00    +0.113 C 
ATOM      3  C   UNL     1     -11.647  13.616  67.013  0.00  0.00    +0.086 C 
ATOM      4  C   UNL     1     -11.864  14.571  65.741  0.00  0.00    +0.212 C 
ATOM      5  O   UNL     1     -12.189  13.327  65.030  0.00  0.00    -0.448 OA
ATOM      6  C   UNL     1     -10.791  14.519  68.143  0.00  0.00    +0.144 C 
ATOM      7  C   UNL     1     -10.792  13.146  69.023  0.00  0.00    +0.004 A 
ATOM      8  C   UNL     1     -11.891  13.080  69.894  0.00  0.00    +0.038 A 
ATOM      9  C   UNL     1     -12.154  11.862  70.519  0.00  0.00    +0.176 A 
ATOM     10  O   UNL     1     -13.074  11.471  71.478  0.00  0.00    -0.435 OA
ATOM     11  C   UNL     1     -13.353  10.086  71.287  0.00  0.00    +0.429 C 
ATOM     12  O   UNL     1     -12.184   9.647  70.678  0.00  0.00    -0.435 OA
ATOM     13  C   UNL     1     -11.454  10.722  70.164  0.00  0.00    +0.176 A 
ATOM     14  C   UNL     1     -10.625  10.887  69.065  0.00  0.00    +0.036 A 
ATOM     15  C   UNL     1     -11.427  12.210  65.491  0.00  0.00    +0.317 C 
ATOM     16  O   UNL     1     -12.130  11.395  66.149  0.00  0.00    -0.250 OA
ATOM     17  C   UNL     1     -10.830  11.969  68.215  0.00  0.00    -0.016 A 
ENDROOT
BRANCH   1  23
ATOM     18  C   UNL     1      -7.324  10.095  65.594  0.00  0.00    +0.180 A 
ATOM     19  C   UNL     1      -7.388   9.003  66.463  0.00  0.00    +0.263 A 
ATOM     20  O   UNL     1      -6.290   8.725  67.289  0.00  0.00    -0.280 OA
ATOM     21  C   UNL     1      -8.688   8.717  66.878  0.00  0.00    +0.180 A 
ATOM     22  C   UNL     1      -9.664   9.700  66.908  0.00  0.00    +0.036 A 
ATOM     23  C   UNL     1      -9.489  10.907  66.408  0.00  0.00    -0.012 A 
ATOM     24  C   UNL     1      -8.284  11.107  65.701  0.00  0.00    +0.036 A 
BRANCH  18  26
ATOM     25  C   UNL     1      -5.551  10.305  64.354  0.00  0.00    +0.253 C 
ATOM     26  O   UNL     1      -6.114  10.257  64.953  0.00  0.00    -0.468 OA
ENDBRANCH  18  26
BRANCH  21  27
ATOM     27  O   UNL     1      -8.871   7.762  67.883  0.00  0.00    -0.468 OA
ATOM     28  C   UNL     1     -10.110   7.287  68.296  0.00  0.00    +0.253 C 
ENDBRANCH  21  27
ENDBRANCH   1  23
BRANCH   6  29
ATOM     29  O   UNL     1      -9.402  14.317  67.567  0.00  0.00    -0.326 OA
BRANCH  29  30
ATOM     30  C   UNL     1      -8.670  15.501  68.152  0.00  0.00    +0.270 C 
ATOM     31  C   UNL     1      -7.237  15.109  67.276  0.00  0.00    +0.240 C 
ATOM     32  O   UNL     1      -6.681  14.328  68.422  0.00  0.00    -0.215 OA
ATOM     33  C   UNL     1      -6.420  16.508  67.789  0.00  0.00    +0.217 C 
ATOM     34  O   UNL     1      -5.273  16.235  66.867  0.00  0.00    -0.218 OA
ATOM     35  C   UNL     1      -7.192  17.449  66.606  0.00  0.00    +0.180 C 
ATOM     36  C   UNL     1      -8.512  17.657  67.673  0.00  0.00    +0.177 C 
ATOM     37  C   UNL     1      -9.268  18.661  66.625  0.00  0.00    +0.177 C 
ATOM     38  O   UNL     1      -8.508  19.781  66.869  0.00  0.00    -0.328 OA
ATOM     39  C   UNL     1      -7.237  19.592  66.036  0.00  0.00    +0.235 C 
ATOM     40  C   UNL     1      -6.551  20.941  66.722  0.00  0.00    +0.067 C 
ATOM     41  O   UNL     1      -6.587  18.715  67.110  0.00  0.00    -0.328 OA
ATOM     42  O   UNL     1      -9.138  16.446  67.051  0.00  0.00    -0.326 OA
ENDBRANCH  29  30
ENDBRANCH   6  29
TORSDOF 5
ENDMDL
MODEL 4
REMARK VINA RESULT:      -7.5      2.261      8.348
REMARK  Name = 
REMARK  5 active torsions:
REMARK  status: ('A' for Active; 'I' for Inactive)
REMARK    1  A    between atoms: O_2  and  C_3
REMARK    2  A    between atoms: C_5  and  C_6
REMARK    3  A    between atoms: C_13  and  O_14
REMARK    4  A    between atoms: O_14  and  C_15
REMARK    5  A    between atoms: C_38  and  O_39
REMARK                            x       y       z     vdW  Elec       q    Type
REMARK                         _______ _______ _______ _____ _____    ______ ____
ROOT
ATOM      1  C   UNL     1     -10.128  12.298  68.577  0.00  0.00    +0.055 C 
ATOM      2  C   UNL     1     -10.662  11.398  67.233  0.00  0.00    +0.113 C 
ATOM      3  C   UNL     1      -9.256  11.636  66.298  0.00  0.00    +0.086 C 
ATOM      4  C   UNL     1      -9.980  10.510  65.411  0.00  0.00    +0.212 C 
ATOM      5  O   UNL     1     -10.948  11.569  65.097  0.00  0.00    -0.448 OA
ATOM      6  C   UNL     1      -8.198  10.824  67.321  0.00  0.00    +0.144 C 
ATOM      7  C   UNL     1      -7.902  12.301  67.946  0.00  0.00    +0.004 A 
ATOM      8  C   UNL     1      -6.820  12.933  67.314  0.00  0.00    +0.038 A 
ATOM      9  C   UNL     1      -6.615  14.288  67.571  0.00  0.00    +0.176 A 
ATOM     10  O   UNL     1      -5.625  15.182  67.199  0.00  0.00    -0.435 OA
ATOM     11  C   UNL     1      -6.197  16.487  67.160  0.00  0.00    +0.429 C 
ATOM     12  O   UNL     1      -7.246  16.360  68.062  0.00  0.00    -0.435 OA
ATOM     13  C   UNL     1      -7.544  15.016  68.295  0.00  0.00    +0.176 A 
ATOM     14  C   UNL     1      -8.711  14.322  68.576  0.00  0.00    +0.036 A 
ATOM     15  C   UNL     1     -11.165  12.463  66.192  0.00  0.00    +0.317 C 
ATOM     16  O   UNL     1     -10.656  13.598  65.984  0.00  0.00    -0.250 OA
ATOM     17  C   UNL     1      -9.020  13.183  67.839  0.00  0.00    -0.016 A 
ENDROOT
BRANCH   1  23
ATOM     18  C   UNL     1     -12.567  13.772  70.652  0.00  0.00    +0.180 A 
ATOM     19  C   UNL     1     -12.096  15.088  70.616  0.00  0.00    +0.263 A 
ATOM     20  O   UNL     1     -11.475  15.619  71.754  0.00  0.00    -0.280 OA
ATOM     21  C   UNL     1     -11.716  15.491  69.337  0.00  0.00    +0.180 A 
ATOM     22  C   UNL     1     -11.309  14.570  68.385  0.00  0.00    +0.036 A 
ATOM     23  C   UNL     1     -11.401  13.266  68.556  0.00  0.00    -0.012 A 
ATOM     24  C   UNL     1     -12.079  12.849  69.721  0.00  0.00    +0.036 A 
BRANCH  18  26
ATOM     25  C   UNL     1     -13.789  13.226  72.365  0.00  0.00    +0.253 C 
ATOM     26  O   UNL     1     -13.195  13.412  71.825  0.00  0.00    -0.468 OA
ENDBRANCH  18  26
BRANCH  21  27
ATOM     27  O   UNL     1     -11.065  16.721  69.193  0.00  0.00    -0.468 OA
ATOM     28  C   UNL     1     -10.690  17.270  67.973  0.00  0.00    +0.253 C 
ENDBRANCH  21  27
ENDBRANCH   1  23
BRANCH   6  29
ATOM     29  O   UNL     1      -9.201  10.419  68.385  0.00  0.00    -0.326 OA
BRANCH  29  30
ATOM     30  C   UNL     1      -8.605   9.118  68.867  0.00  0.00    +0.270 C 
ATOM     31  C   UNL     1      -8.716   9.620  70.513  0.00  0.00    +0.240 C 
ATOM     32  O   UNL     1      -7.316  10.141  70.508  0.00  0.00    -0.215 OA
ATOM     33  C   UNL     1      -8.191   8.118  71.112  0.00  0.00    +0.217 C 
ATOM     34  O   UNL     1      -8.484   8.523  72.522  0.00  0.00    -0.218 OA
ATOM     35  C   UNL     1      -9.745   7.455  70.942  0.00  0.00    +0.180 C 
ATOM     36  C   UNL     1      -9.382   7.092  69.311  0.00  0.00    +0.177 C 
ATOM     37  C   UNL     1     -10.821   6.340  69.104  0.00  0.00    +0.177 C 
ATOM     38  O   UNL     1     -10.505   5.167  69.748  0.00  0.00    -0.328 OA
ATOM     39  C   UNL     1     -10.684   5.468  71.239  0.00  0.00    +0.235 C 
ATOM     40  C   UNL     1     -10.049   3.986  71.645  0.00  0.00    +0.067 C 
ATOM     41  O   UNL     1      -9.290   6.094  71.344  0.00  0.00    -0.328 OA
ATOM     42  O   UNL     1      -9.961   8.424  68.940  0.00  0.00    -0.326 OA
ENDBRANCH  29  30
ENDBRANCH   6  29
TORSDOF 5
ENDMDL
MODEL 5
REMARK VINA RESULT:      -7.5      2.644      6.580
REMARK  Name = 
REMARK  5 active torsions:
REMARK  status: ('A' for Active; 'I' for Inactive)
REMARK    1  A    between atoms: O_2  and  C_3
REMARK    2  A    between atoms: C_5  and  C_6
REMARK    3  A    between atoms: C_13  and  O_14
REMARK    4  A    between atoms: O_14  and  C_15
REMARK    5  A    between atoms: C_38  and  O_39
REMARK                            x       y       z     vdW  Elec       q    Type
REMARK                         _______ _______ _______ _____ _____    ______ ____
ROOT
ATOM      1  C   UNL     1     -10.351   9.841  68.540  0.00  0.00    +0.055 C 
ATOM      2  C   UNL     1      -8.925  10.756  68.704  0.00  0.00    +0.113 C 
ATOM      3  C   UNL     1      -7.999   9.827  67.615  0.00  0.00    +0.086 C 
ATOM      4  C   UNL     1      -7.004  11.071  67.818  0.00  0.00    +0.212 C 
ATOM      5  O   UNL     1      -6.826  10.535  69.174  0.00  0.00    -0.448 OA
ATOM      6  C   UNL     1      -8.908  10.168  66.242  0.00  0.00    +0.144 C 
ATOM      7  C   UNL     1      -9.689   8.780  66.594  0.00  0.00    +0.004 A 
ATOM      8  C   UNL     1      -9.113   7.674  65.949  0.00  0.00    +0.038 A 
ATOM      9  C   UNL     1      -9.517   6.402  66.353  0.00  0.00    +0.176 A 
ATOM     10  O   UNL     1      -9.231   5.129  65.889  0.00  0.00    -0.435 OA
ATOM     11  C   UNL     1      -9.347   4.222  66.983  0.00  0.00    +0.429 C 
ATOM     12  O   UNL     1     -10.246   4.889  67.806  0.00  0.00    -0.435 OA
ATOM     13  C   UNL     1     -10.333   6.240  67.459  0.00  0.00    +0.176 A 
ATOM     14  C   UNL     1     -10.554   7.406  68.175  0.00  0.00    +0.036 A 
ATOM     15  C   UNL     1      -8.017   9.939  69.695  0.00  0.00    +0.317 C 
ATOM     16  O   UNL     1      -7.930   8.683  69.758  0.00  0.00    -0.250 OA
ATOM     17  C   UNL     1      -9.699   8.489  67.992  0.00  0.00    -0.016 A 
ENDROOT
BRANCH   1  23
ATOM     18  C   UNL     1     -12.367  10.434  71.372  0.00  0.00    +0.180 A 
ATOM     19  C   UNL     1     -12.883   9.144  71.528  0.00  0.00    +0.263 A 
ATOM     20  O   UNL     1     -14.224   8.904  71.199  0.00  0.00    -0.280 OA
ATOM     21  C   UNL     1     -11.916   8.152  71.368  0.00  0.00    +0.180 A 
ATOM     22  C   UNL     1     -10.783   8.371  70.601  0.00  0.00    +0.036 A 
ATOM     23  C   UNL     1     -10.460   9.551  70.110  0.00  0.00    -0.012 A 
ATOM     24  C   UNL     1     -11.266  10.629  70.531  0.00  0.00    +0.036 A 
BRANCH  18  26
ATOM     25  C   UNL     1     -13.472  12.181  72.042  0.00  0.00    +0.253 C 
ATOM     26  O   UNL     1     -13.209  11.449  71.774  0.00  0.00    -0.468 OA
ENDBRANCH  18  26
BRANCH  21  27
ATOM     27  O   UNL     1     -12.333   6.818  71.324  0.00  0.00    -0.468 OA
ATOM     28  C   UNL     1     -11.857   5.820  72.166  0.00  0.00    +0.253 C 
ENDBRANCH  21  27
ENDBRANCH   1  23
BRANCH   6  29
ATOM     29  O   UNL     1      -9.936  11.077  66.889  0.00  0.00    -0.326 OA
BRANCH  29  30
ATOM     30  C   UNL     1      -9.857  12.290  65.993  0.00  0.00    +0.270 C 
ATOM     31  C   UNL     1     -11.567  12.509  66.058  0.00  0.00    +0.240 C 
ATOM     32  O   UNL     1     -11.773  11.722  64.804  0.00  0.00    -0.215 OA
ATOM     33  C   UNL     1     -11.515  13.962  65.178  0.00  0.00    +0.217 C 
ATOM     34  O   UNL     1     -12.970  14.217  65.421  0.00  0.00    -0.218 OA
ATOM     35  C   UNL     1     -11.093  14.842  66.567  0.00  0.00    +0.180 C 
ATOM     36  C   UNL     1      -9.453  14.447  66.285  0.00  0.00    +0.177 C 
ATOM     37  C   UNL     1      -8.962  15.366  67.547  0.00  0.00    +0.177 C 
ATOM     38  O   UNL     1      -9.083  16.591  66.936  0.00  0.00    -0.328 OA
ATOM     39  C   UNL     1     -10.570  16.945  67.039  0.00  0.00    +0.235 C 
ATOM     40  C   UNL     1     -10.349  18.280  66.074  0.00  0.00    +0.067 C 
ATOM     41  O   UNL     1     -10.918  16.110  65.803  0.00  0.00    -0.328 OA
ATOM     42  O   UNL     1      -9.646  13.247  67.162  0.00  0.00    -0.326 OA
ENDBRANCH  29  30
ENDBRANCH   6  29
TORSDOF 5
ENDMDL
MODEL 6
REMARK VINA RESULT:      -7.4      2.506      4.930
REMARK  Name = 
REMARK  5 active torsions:
REMARK  status: ('A' for Active; 'I' for Inactive)
REMARK    1  A    between atoms: O_2  and  C_3
REMARK    2  A    between atoms: C_5  and  C_6
REMARK    3  A    between atoms: C_13  and  O_14
REMARK    4  A    between atoms: O_14  and  C_15
REMARK    5  A    between atoms: C_38  and  O_39
REMARK                            x       y       z     vdW  Elec       q    Type
REMARK                         _______ _______ _______ _____ _____    ______ ____
ROOT
ATOM      1  C   UNL     1      -9.190  11.215  69.120  0.00  0.00    +0.055 C 
ATOM      2  C   UNL     1      -9.402  11.117  67.433  0.00  0.00    +0.113 C 
ATOM      3  C   UNL     1     -10.878  10.265  67.495  0.00  0.00    +0.086 C 
ATOM      4  C   UNL     1     -10.850  10.638  65.933  0.00  0.00    +0.212 C 
ATOM      5  O   UNL     1      -9.743   9.675  65.859  0.00  0.00    -0.448 OA
ATOM      6  C   UNL     1     -11.770  11.469  68.254  0.00  0.00    +0.144 C 
ATOM      7  C   UNL     1     -11.384  10.684  69.630  0.00  0.00    +0.004 A 
ATOM      8  C   UNL     1     -12.352   9.731  69.983  0.00  0.00    +0.038 A 
ATOM      9  C   UNL     1     -12.032   8.819  70.988  0.00  0.00    +0.176 A 
ATOM     10  O   UNL     1     -12.757   7.829  71.631  0.00  0.00    -0.435 OA
ATOM     11  C   UNL     1     -11.846   6.819  72.059  0.00  0.00    +0.429 C 
ATOM     12  O   UNL     1     -10.666   7.542  72.187  0.00  0.00    -0.435 OA
ATOM     13  C   UNL     1     -10.748   8.757  71.501  0.00  0.00    +0.176 A 
ATOM     14  C   UNL     1      -9.830   9.545  70.825  0.00  0.00    +0.036 A 
ATOM     15  C   UNL     1      -8.934   9.669  67.037  0.00  0.00    +0.317 C 
ATOM     16  O   UNL     1      -9.100   8.622  67.720  0.00  0.00    -0.250 OA
ATOM     17  C   UNL     1     -10.134   9.997  69.544  0.00  0.00    -0.016 A 
ENDROOT
BRANCH   1  23
ATOM     18  C   UNL     1      -5.742  11.891  69.416  0.00  0.00    +0.180 A 
ATOM     19  C   UNL     1      -5.524  11.291  70.659  0.00  0.00    +0.263 A 
ATOM     20  O   UNL     1      -5.307  12.106  71.779  0.00  0.00    -0.280 OA
ATOM     21  C   UNL     1      -6.159  10.056  70.783  0.00  0.00    +0.180 A 
ATOM     22  C   UNL     1      -7.291   9.754  70.043  0.00  0.00    +0.036 A 
ATOM     23  C   UNL     1      -7.748  10.523  69.075  0.00  0.00    -0.012 A 
ATOM     24  C   UNL     1      -6.931  11.620  68.730  0.00  0.00    +0.036 A 
BRANCH  18  26
ATOM     25  C   UNL     1      -4.502  13.538  68.727  0.00  0.00    +0.253 C 
ATOM     26  O   UNL     1      -4.935  12.975  69.144  0.00  0.00    -0.468 OA
ENDBRANCH  18  26
BRANCH  21  27
ATOM     27  O   UNL     1      -6.166   9.434  72.036  0.00  0.00    -0.468 OA
ATOM     28  C   UNL     1      -6.756   8.203  72.295  0.00  0.00    +0.253 C 
ENDBRANCH  21  27
ENDBRANCH   1  23
BRANCH   6  29
ATOM     29  O   UNL     1     -10.670  12.508  68.369  0.00  0.00    -0.326 OA
BRANCH  29  30
ATOM     30  C   UNL     1     -11.412  13.762  67.975  0.00  0.00    +0.270 C 
ATOM     31  C   UNL     1     -11.060  14.506  69.490  0.00  0.00    +0.240 C 
ATOM     32  O   UNL     1     -12.355  14.049  70.080  0.00  0.00    -0.215 OA
ATOM     33  C   UNL     1     -11.752  15.991  69.037  0.00  0.00    +0.217 C 
ATOM     34  O   UNL     1     -11.260  16.655  70.285  0.00  0.00    -0.218 OA
ATOM     35  C   UNL     1     -10.346  16.443  68.199  0.00  0.00    +0.180 C 
ATOM     36  C   UNL     1     -10.922  15.594  66.831  0.00  0.00    +0.177 C 
ATOM     37  C   UNL     1      -9.646  16.082  65.929  0.00  0.00    +0.177 C 
ATOM     38  O   UNL     1     -10.077  17.365  65.687  0.00  0.00    -0.328 OA
ATOM     39  C   UNL     1      -9.705  18.155  66.945  0.00  0.00    +0.235 C 
ATOM     40  C   UNL     1     -10.521  19.490  66.383  0.00  0.00    +0.067 C 
ATOM     41  O   UNL     1     -10.966  17.695  67.682  0.00  0.00    -0.328 OA
ATOM     42  O   UNL     1     -10.181  14.391  67.330  0.00  0.00    -0.326 OA
ENDBRANCH  29  30
ENDBRANCH   6  29
TORSDOF 5
ENDMDL
MODEL 7
REMARK VINA RESULT:      -7.1      3.668      9.081
REMARK  Name = 
REMARK  5 active torsions:
REMARK  status: ('A' for Active; 'I' for Inactive)
REMARK    1  A    between atoms: O_2  and  C_3
REMARK    2  A    between atoms: C_5  and  C_6
REMARK    3  A    between atoms: C_13  and  O_14
REMARK    4  A    between atoms: O_14  and  C_15
REMARK    5  A    between atoms: C_38  and  O_39
REMARK                            x       y       z     vdW  Elec       q    Type
REMARK                         _______ _______ _______ _____ _____    ______ ____
ROOT
ATOM      1  C   UNL     1     -10.043  10.182  67.212  0.00  0.00    +0.055 C 
ATOM      2  C   UNL     1      -8.539   9.631  67.790  0.00  0.00    +0.113 C 
ATOM      3  C   UNL     1      -8.856   9.958  69.433  0.00  0.00    +0.086 C 
ATOM      4  C   UNL     1      -7.505   9.103  69.586  0.00  0.00    +0.212 C 
ATOM      5  O   UNL     1      -6.854  10.273  68.982  0.00  0.00    -0.448 OA
ATOM      6  C   UNL     1     -10.126   8.871  69.609  0.00  0.00    +0.144 C 
ATOM      7  C   UNL     1     -11.076  10.156  69.282  0.00  0.00    +0.004 A 
ATOM      8  C   UNL     1     -11.476  10.826  70.449  0.00  0.00    +0.038 A 
ATOM      9  C   UNL     1     -12.076  12.077  70.308  0.00  0.00    +0.176 A 
ATOM     10  O   UNL     1     -12.655  12.953  71.211  0.00  0.00    -0.435 OA
ATOM     11  C   UNL     1     -12.515  14.276  70.697  0.00  0.00    +0.429 C 
ATOM     12  O   UNL     1     -12.435  14.038  69.330  0.00  0.00    -0.435 OA
ATOM     13  C   UNL     1     -12.126  12.700  69.073  0.00  0.00    +0.176 A 
ATOM     14  C   UNL     1     -11.406  12.050  68.083  0.00  0.00    +0.036 A 
ATOM     15  C   UNL     1      -7.678  10.927  68.014  0.00  0.00    +0.317 C 
ATOM     16  O   UNL     1      -8.103  12.039  68.428  0.00  0.00    -0.250 OA
ATOM     17  C   UNL     1     -10.436  11.120  68.445  0.00  0.00    -0.016 A 
ENDROOT
BRANCH   1  23
ATOM     18  C   UNL     1      -9.664  10.903  63.781  0.00  0.00    +0.180 A 
ATOM     19  C   UNL     1     -10.502  12.020  63.715  0.00  0.00    +0.263 A 
ATOM     20  O   UNL     1     -11.745  11.901  63.078  0.00  0.00    -0.280 OA
ATOM     21  C   UNL     1     -10.327  12.892  64.788  0.00  0.00    +0.180 A 
ATOM     22  C   UNL     1      -9.847  12.442  66.008  0.00  0.00    +0.036 A 
ATOM     23  C   UNL     1      -9.379  11.224  66.195  0.00  0.00    -0.012 A 
ATOM     24  C   UNL     1      -9.258  10.431  65.034  0.00  0.00    +0.036 A 
BRANCH  18  26
ATOM     25  C   UNL     1      -9.308   9.760  61.968  0.00  0.00    +0.253 C 
ATOM     26  O   UNL     1      -9.607  10.151  62.628  0.00  0.00    -0.468 OA
ENDBRANCH  18  26
BRANCH  21  27
ATOM     27  O   UNL     1     -11.224  13.956  64.935  0.00  0.00    -0.468 OA
ATOM     28  C   UNL     1     -11.011  15.051  65.763  0.00  0.00    +0.253 C 
ENDBRANCH  21  27
ENDBRANCH   1  23
BRANCH   6  29
ATOM     29  O   UNL     1     -10.136   8.324  68.194  0.00  0.00    -0.326 OA
BRANCH  29  30
ATOM     30  C   UNL     1     -10.670   6.930  68.424  0.00  0.00    +0.270 C 
ATOM     31  C   UNL     1      -9.264   6.223  67.719  0.00  0.00    +0.240 C 
ATOM     32  O   UNL     1      -9.911   6.138  66.374  0.00  0.00    -0.215 OA
ATOM     33  C   UNL     1      -9.752   4.638  68.091  0.00  0.00    +0.217 C 
ATOM     34  O   UNL     1      -8.438   4.077  67.646  0.00  0.00    -0.218 OA
ATOM     35  C   UNL     1      -9.189   4.789  69.685  0.00  0.00    +0.180 C 
ATOM     36  C   UNL     1     -10.681   5.502  70.116  0.00  0.00    +0.177 C 
ATOM     37  C   UNL     1     -10.247   5.580  71.693  0.00  0.00    +0.177 C 
ATOM     38  O   UNL     1     -10.449   4.256  72.001  0.00  0.00    -0.328 OA
ATOM     39  C   UNL     1      -9.189   3.535  71.514  0.00  0.00    +0.235 C 
ATOM     40  C   UNL     1      -9.869   2.056  71.850  0.00  0.00    +0.067 C 
ATOM     41  O   UNL     1      -9.715   3.451  70.078  0.00  0.00    -0.328 OA
ATOM     42  O   UNL     1     -10.069   6.838  69.823  0.00  0.00    -0.326 OA
ENDBRANCH  29  30
ENDBRANCH   6  29
TORSDOF 5
ENDMDL
MODEL 8
REMARK VINA RESULT:      -7.0      2.177      6.571
REMARK  Name = 
REMARK  5 active torsions:
REMARK  status: ('A' for Active; 'I' for Inactive)
REMARK    1  A    between atoms: O_2  and  C_3
REMARK    2  A    between atoms: C_5  and  C_6
REMARK    3  A    between atoms: C_13  and  O_14
REMARK    4  A    between atoms: O_14  and  C_15
REMARK    5  A    between atoms: C_38  and  O_39
REMARK                            x       y       z     vdW  Elec       q    Type
REMARK                         _______ _______ _______ _____ _____    ______ ____
ROOT
ATOM      1  C   UNL     1     -10.436  13.712  68.585  0.00  0.00    +0.055 C 
ATOM      2  C   UNL     1     -10.659  12.503  67.407  0.00  0.00    +0.113 C 
ATOM      3  C   UNL     1     -10.006  13.401  66.113  0.00  0.00    +0.086 C 
ATOM      4  C   UNL     1     -10.110  11.961  65.412  0.00  0.00    +0.212 C 
ATOM      5  O   UNL     1     -11.560  12.186  65.468  0.00  0.00    -0.448 OA
ATOM      6  C   UNL     1      -8.444  13.520  66.723  0.00  0.00    +0.144 C 
ATOM      7  C   UNL     1      -8.944  14.951  67.323  0.00  0.00    +0.004 A 
ATOM      8  C   UNL     1      -8.690  16.011  66.439  0.00  0.00    +0.038 A 
ATOM      9  C   UNL     1      -9.285  17.242  66.709  0.00  0.00    +0.176 A 
ATOM     10  O   UNL     1      -9.185  18.490  66.117  0.00  0.00    -0.435 OA
ATOM     11  C   UNL     1     -10.413  19.183  66.331  0.00  0.00    +0.429 C 
ATOM     12  O   UNL     1     -10.876  18.579  67.494  0.00  0.00    -0.435 OA
ATOM     13  C   UNL     1     -10.222  17.365  67.721  0.00  0.00    +0.176 A 
ATOM     14  C   UNL     1     -10.599  16.159  68.292  0.00  0.00    +0.036 A 
ATOM     15  C   UNL     1     -11.964  12.912  66.631  0.00  0.00    +0.317 C 
ATOM     16  O   UNL     1     -12.326  14.088  66.354  0.00  0.00    -0.250 OA
ATOM     17  C   UNL     1     -10.344  14.974  67.609  0.00  0.00    -0.016 A 
ENDROOT
BRANCH   1  23
ATOM     18  C   UNL     1     -12.734  12.324  70.871  0.00  0.00    +0.180 A 
ATOM     19  C   UNL     1     -12.949  13.459  71.657  0.00  0.00    +0.263 A 
ATOM     20  O   UNL     1     -12.403  13.506  72.947  0.00  0.00    -0.280 OA
ATOM     21  C   UNL     1     -13.103  14.619  70.901  0.00  0.00    +0.180 A 
ATOM     22  C   UNL     1     -12.545  14.732  69.637  0.00  0.00    +0.036 A 
ATOM     23  C   UNL     1     -11.980  13.723  69.005  0.00  0.00    -0.012 A 
ATOM     24  C   UNL     1     -12.101  12.465  69.632  0.00  0.00    +0.036 A 
BRANCH  18  26
ATOM     25  C   UNL     1     -12.943  10.321  71.688  0.00  0.00    +0.253 C 
ATOM     26  O   UNL     1     -12.837  11.124  71.542  0.00  0.00    -0.468 OA
ENDBRANCH  18  26
BRANCH  21  27
ATOM     27  O   UNL     1     -13.148  15.848  71.568  0.00  0.00    -0.468 OA
ATOM     28  C   UNL     1     -12.057  16.443  72.188  0.00  0.00    +0.253 C 
ENDBRANCH  21  27
ENDBRANCH   1  23
BRANCH   6  29
ATOM     29  O   UNL     1      -8.659  12.744  68.009  0.00  0.00    -0.326 OA
BRANCH  29  30
ATOM     30  C   UNL     1      -7.411  11.896  68.050  0.00  0.00    +0.270 C 
ATOM     31  C   UNL     1      -7.054  12.411  69.656  0.00  0.00    +0.240 C 
ATOM     32  O   UNL     1      -6.168  13.511  69.169  0.00  0.00    -0.215 OA
ATOM     33  C   UNL     1      -5.726  11.362  69.806  0.00  0.00    +0.217 C 
ATOM     34  O   UNL     1      -5.568  11.691  71.258  0.00  0.00    -0.218 OA
ATOM     35  C   UNL     1      -6.742  10.053  70.178  0.00  0.00    +0.180 C 
ATOM     36  C   UNL     1      -6.953   9.777  68.504  0.00  0.00    +0.177 C 
ATOM     37  C   UNL     1      -7.853   8.440  68.785  0.00  0.00    +0.177 C 
ATOM     38  O   UNL     1      -6.819   7.590  69.100  0.00  0.00    -0.328 OA
ATOM     39  C   UNL     1      -6.491   7.885  70.567  0.00  0.00    +0.235 C 
ATOM     40  C   UNL     1      -5.162   6.888  70.500  0.00  0.00    +0.067 C 
ATOM     41  O   UNL     1      -5.612   9.082  70.195  0.00  0.00    -0.328 OA
ATOM     42  O   UNL     1      -8.157  10.668  68.561  0.00  0.00    -0.326 OA
ENDBRANCH  29  30
ENDBRANCH   6  29
TORSDOF 5
ENDMDL
MODEL 9
REMARK VINA RESULT:      -7.0      2.301      3.532
REMARK  Name = 
REMARK  5 active torsions:
REMARK  status: ('A' for Active; 'I' for Inactive)
REMARK    1  A    between atoms: O_2  and  C_3
REMARK    2  A    between atoms: C_5  and  C_6
REMARK    3  A    between atoms: C_13  and  O_14
REMARK    4  A    between atoms: O_14  and  C_15
REMARK    5  A    between atoms: C_38  and  O_39
REMARK                            x       y       z     vdW  Elec       q    Type
REMARK                         _______ _______ _______ _____ _____    ______ ____
ROOT
ATOM      1  C   UNL     1      -8.836  10.784  68.413  0.00  0.00    +0.055 C 
ATOM      2  C   UNL     1      -9.325  11.153  66.824  0.00  0.00    +0.113 C 
ATOM      3  C   UNL     1     -10.942  11.516  67.221  0.00  0.00    +0.086 C 
ATOM      4  C   UNL     1     -10.915  12.043  65.705  0.00  0.00    +0.212 C 
ATOM      5  O   UNL     1     -10.816  10.620  65.353  0.00  0.00    -0.448 OA
ATOM      6  C   UNL     1     -10.614  12.849  68.191  0.00  0.00    +0.144 C 
ATOM      7  C   UNL     1     -10.664  11.781  69.423  0.00  0.00    +0.004 A 
ATOM      8  C   UNL     1     -11.948  11.680  69.980  0.00  0.00    +0.038 A 
ATOM      9  C   UNL     1     -12.194  10.632  70.866  0.00  0.00    +0.176 A 
ATOM     10  O   UNL     1     -13.285  10.290  71.646  0.00  0.00    -0.435 OA
ATOM     11  C   UNL     1     -13.276   8.876  71.828  0.00  0.00    +0.429 C 
ATOM     12  O   UNL     1     -11.924   8.584  71.684  0.00  0.00    -0.435 OA
ATOM     13  C   UNL     1     -11.251   9.636  71.057  0.00  0.00    +0.176 A 
ATOM     14  C   UNL     1     -10.168   9.709  70.194  0.00  0.00    +0.036 A 
ATOM     15  C   UNL     1     -10.062   9.865  66.305  0.00  0.00    +0.317 C 
ATOM     16  O   UNL     1     -10.794   9.101  66.991  0.00  0.00    -0.250 OA
ATOM     17  C   UNL     1     -10.276  10.464  69.030  0.00  0.00    -0.016 A 
ENDROOT
BRANCH   1  23
ATOM     18  C   UNL     1      -5.901   8.867  68.040  0.00  0.00    +0.180 A 
ATOM     19  C   UNL     1      -6.052   8.044  69.159  0.00  0.00    +0.263 A 
ATOM     20  O   UNL     1      -5.223   8.248  70.270  0.00  0.00    -0.280 OA
ATOM     21  C   UNL     1      -7.356   7.575  69.313  0.00  0.00    +0.180 A 
ATOM     22  C   UNL     1      -8.436   8.278  68.803  0.00  0.00    +0.036 A 
ATOM     23  C   UNL     1      -8.308   9.327  68.015  0.00  0.00    -0.012 A 
ATOM     24  C   UNL     1      -6.993   9.620  67.596  0.00  0.00    +0.036 A 
BRANCH  18  26
ATOM     25  C   UNL     1      -3.916   9.248  67.239  0.00  0.00    +0.253 C 
ATOM     26  O   UNL     1      -4.595   9.142  67.693  0.00  0.00    -0.468 OA
ENDBRANCH  18  26
BRANCH  21  27
ATOM     27  O   UNL     1      -7.682   6.888  70.487  0.00  0.00    -0.468 OA
ATOM     28  C   UNL     1      -8.889   6.235  70.703  0.00  0.00    +0.253 C 
ENDBRANCH  21  27
ENDBRANCH   1  23
BRANCH   6  29
ATOM     29  O   UNL     1      -9.102  12.841  68.058  0.00  0.00    -0.326 OA
BRANCH  29  30
ATOM     30  C   UNL     1      -8.755  14.206  68.601  0.00  0.00    +0.270 C 
ATOM     31  C   UNL     1      -7.633  14.483  67.321  0.00  0.00    +0.240 C 
ATOM     32  O   UNL     1      -6.488  13.979  68.138  0.00  0.00    -0.215 OA
ATOM     33  C   UNL     1      -7.319  16.082  67.806  0.00  0.00    +0.217 C 
ATOM     34  O   UNL     1      -6.506  16.346  66.578  0.00  0.00    -0.218 OA
ATOM     35  C   UNL     1      -8.726  16.640  67.038  0.00  0.00    +0.180 C 
ATOM     36  C   UNL     1      -9.619  16.239  68.439  0.00  0.00    +0.177 C 
ATOM     37  C   UNL     1     -10.994  16.858  67.804  0.00  0.00    +0.177 C 
ATOM     38  O   UNL     1     -10.703  18.186  68.005  0.00  0.00    -0.328 OA
ATOM     39  C   UNL     1      -9.788  18.577  66.841  0.00  0.00    +0.235 C 
ATOM     40  C   UNL     1      -9.515  20.070  67.519  0.00  0.00    +0.067 C 
ATOM     41  O   UNL     1      -8.547  18.028  67.550  0.00  0.00    -0.328 OA
ATOM     42  O   UNL     1      -9.875  14.894  67.828  0.00  0.00    -0.326 OA
ENDBRANCH  29  30
ENDBRANCH   6  29
TORSDOF 5
ENDMDL
