MODEL 1
REMARK VINA RESULT:      -7.3      0.000      0.000
REMARK  Name = 
REMARK  7 active torsions:
REMARK  status: ('A' for Active; 'I' for Inactive)
REMARK    1  A    between atoms: O_2  and  C_3
REMARK    2  A    between atoms: C_6  and  C_7
REMARK    3  A    between atoms: C_7  and  C_8
REMARK    4  A    between atoms: C_8  and  N_11
REMARK    5  A    between atoms: N_11  and  C_12
REMARK    6  A    between atoms: C_12  and  C_13
REMARK    7  A    between atoms: C_13  and  C_15
REMARK                            x       y       z     vdW  Elec       q    Type
REMARK                         _______ _______ _______ _____ _____    ______ ____
ROOT
ATOM      1  C   UNL     1     -11.846  13.082  67.590  0.00  0.00    +0.126 C 
ENDROOT
BRANCH   1   2
ATOM      2  C   UNL     1     -10.804  13.287  68.849  0.00  0.00    +0.195 C 
ATOM      3  O   UNL     1     -10.074  11.969  68.631  0.00  0.00    -0.217 OA
BRANCH   2   4
ATOM      4  C   UNL     1     -11.841  12.665  69.922  0.00  0.00    +0.048 A 
ATOM      5  C   UNL     1     -12.462  13.604  70.715  0.00  0.00    +0.153 A 
ATOM      6  O   UNL     1     -12.235  14.960  70.615  0.00  0.00    -0.464 OA
ATOM      7  C   UNL     1     -12.367  15.884  71.662  0.00  0.00    +0.292 C 
ATOM      8  C   UNL     1     -13.116  15.366  72.822  0.00  0.00    +0.290 C 
ATOM      9  N   UNL     1     -13.712  14.087  72.750  0.00  0.00    -0.173 NA
ATOM     10  O   UNL     1     -13.035  16.030  73.900  0.00  0.00    -0.269 OA
ATOM     11  C   UNL     1     -13.219  13.154  71.781  0.00  0.00    +0.110 A 
ATOM     12  C   UNL     1     -13.342  11.782  71.963  0.00  0.00    +0.062 A 
ATOM     13  C   UNL     1     -12.703  10.874  71.156  0.00  0.00    +0.197 A 
ATOM     14  O   UNL     1     -12.336   9.679  71.789  0.00  0.00    -0.287 OA
ATOM     15  C   UNL     1     -11.930  11.344  70.099  0.00  0.00    +0.043 A 
ENDBRANCH   2   4
ENDBRANCH   1   2
BRANCH   1  16
ATOM     16  N   UNL     1     -11.825  14.172  66.723  0.00  0.00    -0.217 NA
BRANCH  16  17
ATOM     17  C   UNL     1     -11.432  13.762  65.394  0.00  0.00    +0.064 C 
ATOM     18  C   UNL     1     -12.529  14.137  64.408  0.00  0.00    +0.018 C 
ATOM     19  C   UNL     1     -11.255  12.271  65.288  0.00  0.00    +0.018 C 
BRANCH  17  20
ATOM     20  C   UNL     1     -10.163  14.451  64.941  0.00  0.00    +0.042 C 
BRANCH  20  24
ATOM     21  C   UNL     1      -8.735  17.686  67.166  0.00  0.00    +0.139 A 
ATOM     22  C   UNL     1      -7.978  16.525  67.078  0.00  0.00    +0.037 A 
ATOM     23  C   UNL     1      -8.606  15.369  66.635  0.00  0.00    -0.001 A 
ATOM     24  C   UNL     1      -9.776  15.518  65.899  0.00  0.00    -0.021 A 
ATOM     25  C   UNL     1     -10.369  16.753  65.740  0.00  0.00    -0.001 A 
ATOM     26  C   UNL     1      -9.901  17.854  66.440  0.00  0.00    +0.037 A 
BRANCH  21  28
ATOM     27  C   UNL     1      -8.352  19.157  68.621  0.00  0.00    +0.252 C 
ATOM     28  O   UNL     1      -8.467  18.627  68.165  0.00  0.00    -0.471 OA
ENDBRANCH  21  28
ENDBRANCH  20  24
ENDBRANCH  17  20
ENDBRANCH  16  17
ENDBRANCH   1  16
TORSDOF 7
ENDMDL
MODEL 2
REMARK VINA RESULT:      -7.1      2.224      4.403
REMARK  Name = 
REMARK  7 active torsions:
REMARK  status: ('A' for Active; 'I' for Inactive)
REMARK    1  A    between atoms: O_2  and  C_3
REMARK    2  A    between atoms: C_6  and  C_7
REMARK    3  A    between atoms: C_7  and  C_8
REMARK    4  A    between atoms: C_8  and  N_11
REMARK    5  A    between atoms: N_11  and  C_12
REMARK    6  A    between atoms: C_12  and  C_13
REMARK    7  A    between atoms: C_13  and  C_15
REMARK                            x       y       z     vdW  Elec       q    Type
REMARK                         _______ _______ _______ _____ _____    ______ ____
ROOT
ATOM      1  C   UNL     1     -12.001  13.547  67.621  0.00  0.00    +0.126 C 
ENDROOT
BRANCH   1   2
ATOM      2  C   UNL     1     -10.942  13.808  68.854  0.00  0.00    +0.195 C 
ATOM      3  O   UNL     1     -10.126  12.549  68.596  0.00  0.00    -0.217 OA
BRANCH   2   4
ATOM      4  C   UNL     1     -11.901  13.098  69.945  0.00  0.00    +0.048 A 
ATOM      5  C   UNL     1     -12.447  13.967  70.863  0.00  0.00    +0.153 A 
ATOM      6  O   UNL     1     -12.211  15.326  70.867  0.00  0.00    -0.464 OA
ATOM      7  C   UNL     1     -12.250  16.153  71.999  0.00  0.00    +0.292 C 
ATOM      8  C   UNL     1     -12.914  15.539  73.162  0.00  0.00    +0.290 C 
ATOM      9  N   UNL     1     -13.531  14.274  73.024  0.00  0.00    -0.173 NA
ATOM     10  O   UNL     1     -12.742  16.104  74.285  0.00  0.00    -0.269 OA
ATOM     11  C   UNL     1     -13.126  13.429  71.941  0.00  0.00    +0.110 A 
ATOM     12  C   UNL     1     -13.252  12.047  72.010  0.00  0.00    +0.062 A 
ATOM     13  C   UNL     1     -12.689  11.211  71.079  0.00  0.00    +0.197 A 
ATOM     14  O   UNL     1     -12.290   9.961  71.574  0.00  0.00    -0.287 OA
ATOM     15  C   UNL     1     -11.993  11.768  70.011  0.00  0.00    +0.043 A 
ENDBRANCH   2   4
ENDBRANCH   1   2
BRANCH   1  16
ATOM     16  N   UNL     1     -11.925  14.549  66.656  0.00  0.00    -0.217 NA
BRANCH  16  17
ATOM     17  C   UNL     1     -11.615  13.990  65.360  0.00  0.00    +0.064 C 
ATOM     18  C   UNL     1     -10.112  14.059  65.130  0.00  0.00    +0.018 C 
ATOM     19  C   UNL     1     -12.253  14.766  64.239  0.00  0.00    +0.018 C 
BRANCH  17  20
ATOM     20  C   UNL     1     -12.021  12.536  65.257  0.00  0.00    +0.042 C 
BRANCH  20  24
ATOM     21  C   UNL     1      -9.259   9.776  63.771  0.00  0.00    +0.139 A 
ATOM     22  C   UNL     1      -9.650   9.707  65.102  0.00  0.00    +0.037 A 
ATOM     23  C   UNL     1     -10.286  10.813  65.652  0.00  0.00    -0.001 A 
ATOM     24  C   UNL     1     -10.885  11.709  64.774  0.00  0.00    -0.021 A 
ATOM     25  C   UNL     1     -10.731  11.587  63.410  0.00  0.00    -0.001 A 
ATOM     26  C   UNL     1      -9.845  10.660  62.882  0.00  0.00    +0.037 A 
BRANCH  21  28
ATOM     27  C   UNL     1      -7.514   8.832  63.069  0.00  0.00    +0.252 C 
ATOM     28  O   UNL     1      -8.103   9.116  63.344  0.00  0.00    -0.471 OA
ENDBRANCH  21  28
ENDBRANCH  20  24
ENDBRANCH  17  20
ENDBRANCH  16  17
ENDBRANCH   1  16
TORSDOF 7
ENDMDL
MODEL 3
REMARK VINA RESULT:      -7.0      2.467      6.426
REMARK  Name = 
REMARK  7 active torsions:
REMARK  status: ('A' for Active; 'I' for Inactive)
REMARK    1  A    between atoms: O_2  and  C_3
REMARK    2  A    between atoms: C_6  and  C_7
REMARK    3  A    between atoms: C_7  and  C_8
REMARK    4  A    between atoms: C_8  and  N_11
REMARK    5  A    between atoms: N_11  and  C_12
REMARK    6  A    between atoms: C_12  and  C_13
REMARK    7  A    between atoms: C_13  and  C_15
REMARK                            x       y       z     vdW  Elec       q    Type
REMARK                         _______ _______ _______ _____ _____    ______ ____
ROOT
ATOM      1  C   UNL     1     -11.662  12.509  65.654  0.00  0.00    +0.126 C 
ENDROOT
BRANCH   1   2
ATOM      2  C   UNL     1     -12.731  13.688  66.078  0.00  0.00    +0.195 C 
ATOM      3  O   UNL     1     -12.812  14.298  64.686  0.00  0.00    -0.217 OA
BRANCH   2   4
ATOM      4  C   UNL     1     -11.564  14.691  66.571  0.00  0.00    +0.048 A 
ATOM      5  C   UNL     1     -11.400  14.734  67.938  0.00  0.00    +0.153 A 
ATOM      6  O   UNL     1     -12.153  13.993  68.824  0.00  0.00    -0.464 OA
ATOM      7  C   UNL     1     -12.438  14.354  70.148  0.00  0.00    +0.292 C 
ATOM      8  C   UNL     1     -11.578  15.434  70.668  0.00  0.00    +0.290 C 
ATOM      9  N   UNL     1     -10.513  15.918  69.875  0.00  0.00    -0.173 NA
ATOM     10  O   UNL     1     -11.953  15.999  71.740  0.00  0.00    -0.269 OA
ATOM     11  C   UNL     1     -10.558  15.699  68.460  0.00  0.00    +0.110 A 
ATOM     12  C   UNL     1      -9.896  16.538  67.572  0.00  0.00    +0.062 A 
ATOM     13  C   UNL     1     -10.088  16.470  66.215  0.00  0.00    +0.197 A 
ATOM     14  O   UNL     1      -9.959  17.692  65.540  0.00  0.00    -0.287 OA
ATOM     15  C   UNL     1     -10.953  15.506  65.707  0.00  0.00    +0.043 A 
ENDBRANCH   2   4
ENDBRANCH   1   2
BRANCH   1  16
ATOM     16  N   UNL     1     -11.687  11.444  66.552  0.00  0.00    -0.217 NA
BRANCH  16  17
ATOM     17  C   UNL     1     -10.353  10.943  66.791  0.00  0.00    +0.064 C 
ATOM     18  C   UNL     1      -9.414  11.489  65.725  0.00  0.00    +0.018 C 
ATOM     19  C   UNL     1     -10.284   9.443  66.692  0.00  0.00    +0.018 C 
BRANCH  17  20
ATOM     20  C   UNL     1      -9.815  11.382  68.136  0.00  0.00    +0.042 C 
BRANCH  20  24
ATOM     21  C   UNL     1     -10.739   9.114  71.521  0.00  0.00    +0.139 A 
ATOM     22  C   UNL     1      -9.441   9.108  71.023  0.00  0.00    +0.037 A 
ATOM     23  C   UNL     1      -9.237   9.579  69.733  0.00  0.00    -0.001 A 
ATOM     24  C   UNL     1     -10.207  10.417  69.196  0.00  0.00    -0.021 A 
ATOM     25  C   UNL     1     -11.393  10.656  69.857  0.00  0.00    -0.001 A 
ATOM     26  C   UNL     1     -11.717   9.943  71.001  0.00  0.00    +0.037 A 
BRANCH  21  28
ATOM     27  C   UNL     1     -11.313   7.565  72.825  0.00  0.00    +0.252 C 
ATOM     28  O   UNL     1     -11.155   8.116  72.408  0.00  0.00    -0.471 OA
ENDBRANCH  21  28
ENDBRANCH  20  24
ENDBRANCH  17  20
ENDBRANCH  16  17
ENDBRANCH   1  16
TORSDOF 7
ENDMDL
MODEL 4
REMARK VINA RESULT:      -7.0      2.676      7.511
REMARK  Name = 
REMARK  7 active torsions:
REMARK  status: ('A' for Active; 'I' for Inactive)
REMARK    1  A    between atoms: O_2  and  C_3
REMARK    2  A    between atoms: C_6  and  C_7
REMARK    3  A    between atoms: C_7  and  C_8
REMARK    4  A    between atoms: C_8  and  N_11
REMARK    5  A    between atoms: N_11  and  C_12
REMARK    6  A    between atoms: C_12  and  C_13
REMARK    7  A    between atoms: C_13  and  C_15
REMARK                            x       y       z     vdW  Elec       q    Type
REMARK                         _______ _______ _______ _____ _____    ______ ____
ROOT
ATOM      1  C   UNL     1      -9.277  15.606  68.351  0.00  0.00    +0.126 C 
ENDROOT
BRANCH   1   2
ATOM      2  C   UNL     1      -8.444  14.799  67.181  0.00  0.00    +0.195 C 
ATOM      3  O   UNL     1      -7.953  16.057  66.479  0.00  0.00    -0.217 OA
BRANCH   2   4
ATOM      4  C   UNL     1      -9.746  14.645  66.237  0.00  0.00    +0.048 A 
ATOM      5  C   UNL     1     -10.017  13.348  65.860  0.00  0.00    +0.153 A 
ATOM      6  O   UNL     1      -9.257  12.264  66.245  0.00  0.00    -0.464 OA
ATOM      7  C   UNL     1      -9.115  11.073  65.518  0.00  0.00    +0.292 C 
ATOM      8  C   UNL     1     -10.122  10.901  64.455  0.00  0.00    +0.290 C 
ATOM      9  N   UNL     1     -11.171  11.841  64.331  0.00  0.00    -0.173 NA
ATOM     10  O   UNL     1      -9.893  10.004  63.588  0.00  0.00    -0.269 OA
ATOM     11  C   UNL     1     -10.995  13.142  64.904  0.00  0.00    +0.110 A 
ATOM     12  C   UNL     1     -11.675  14.250  64.414  0.00  0.00    +0.062 A 
ATOM     13  C   UNL     1     -11.374  15.530  64.810  0.00  0.00    +0.197 A 
ATOM     14  O   UNL     1     -11.583  16.513  63.832  0.00  0.00    -0.287 OA
ATOM     15  C   UNL     1     -10.374  15.722  65.758  0.00  0.00    +0.043 A 
ENDBRANCH   2   4
ENDBRANCH   1   2
BRANCH   1  16
ATOM     16  N   UNL     1      -9.754  14.740  69.333  0.00  0.00    -0.217 NA
BRANCH  16  17
ATOM     17  C   UNL     1     -11.130  15.040  69.657  0.00  0.00    +0.064 C 
ATOM     18  C   UNL     1     -11.530  16.345  68.984  0.00  0.00    +0.018 C 
ATOM     19  C   UNL     1     -11.334  15.243  71.135  0.00  0.00    +0.018 C 
BRANCH  17  20
ATOM     20  C   UNL     1     -12.076  13.968  69.162  0.00  0.00    +0.042 C 
BRANCH  20  24
ATOM     21  C   UNL     1     -11.939  10.170  70.899  0.00  0.00    +0.139 A 
ATOM     22  C   UNL     1     -12.844  11.111  71.375  0.00  0.00    +0.037 A 
ATOM     23  C   UNL     1     -12.643  12.441  71.028  0.00  0.00    -0.001 A 
ATOM     24  C   UNL     1     -11.864  12.700  69.907  0.00  0.00    -0.021 A 
ATOM     25  C   UNL     1     -11.196  11.688  69.250  0.00  0.00    -0.001 A 
ATOM     26  C   UNL     1     -11.156  10.409  69.784  0.00  0.00    +0.037 A 
BRANCH  21  28
ATOM     27  C   UNL     1     -11.540   8.477  72.083  0.00  0.00    +0.252 C 
ATOM     28  O   UNL     1     -11.625   9.046  71.669  0.00  0.00    -0.471 OA
ENDBRANCH  21  28
ENDBRANCH  20  24
ENDBRANCH  17  20
ENDBRANCH  16  17
ENDBRANCH   1  16
TORSDOF 7
ENDMDL
MODEL 5
REMARK VINA RESULT:      -6.9      1.899      4.812
REMARK  Name = 
REMARK  7 active torsions:
REMARK  status: ('A' for Active; 'I' for Inactive)
REMARK    1  A    between atoms: O_2  and  C_3
REMARK    2  A    between atoms: C_6  and  C_7
REMARK    3  A    between atoms: C_7  and  C_8
REMARK    4  A    between atoms: C_8  and  N_11
REMARK    5  A    between atoms: N_11  and  C_12
REMARK    6  A    between atoms: C_12  and  C_13
REMARK    7  A    between atoms: C_13  and  C_15
REMARK                            x       y       z     vdW  Elec       q    Type
REMARK                         _______ _______ _______ _____ _____    ______ ____
ROOT
ATOM      1  C   UNL     1     -10.074  15.628  69.660  0.00  0.00    +0.126 C 
ENDROOT
BRANCH   1   2
ATOM      2  C   UNL     1     -11.416  15.028  68.919  0.00  0.00    +0.195 C 
ATOM      3  O   UNL     1     -12.086  16.383  68.743  0.00  0.00    -0.217 OA
BRANCH   2   4
ATOM      4  C   UNL     1     -12.159  14.717  70.321  0.00  0.00    +0.048 A 
ATOM      5  C   UNL     1     -12.183  13.383  70.661  0.00  0.00    +0.153 A 
ATOM      6  O   UNL     1     -11.627  12.385  69.888  0.00  0.00    -0.464 OA
ATOM      7  C   UNL     1     -12.057  11.051  69.853  0.00  0.00    +0.292 C 
ATOM      8  C   UNL     1     -12.939  10.680  70.975  0.00  0.00    +0.290 C 
ATOM      9  N   UNL     1     -13.179  11.613  72.009  0.00  0.00    -0.173 NA
ATOM     10  O   UNL     1     -13.584   9.593  70.862  0.00  0.00    -0.269 OA
ATOM     11  C   UNL     1     -12.957  13.003  71.742  0.00  0.00    +0.110 A 
ATOM     12  C   UNL     1     -13.627  13.996  72.447  0.00  0.00    +0.062 A 
ATOM     13  C   UNL     1     -13.584  15.316  72.075  0.00  0.00    +0.197 A 
ATOM     14  O   UNL     1     -14.743  16.049  72.368  0.00  0.00    -0.287 OA
ATOM     15  C   UNL     1     -12.817  15.679  70.973  0.00  0.00    +0.043 A 
ENDBRANCH   2   4
ENDBRANCH   1   2
BRANCH   1  16
ATOM     16  N   UNL     1      -8.942  14.871  69.365  0.00  0.00    -0.217 NA
BRANCH  16  17
ATOM     17  C   UNL     1      -7.968  15.664  68.650  0.00  0.00    +0.064 C 
ATOM     18  C   UNL     1      -6.665  15.687  69.436  0.00  0.00    +0.018 C 
ATOM     19  C   UNL     1      -8.401  17.098  68.502  0.00  0.00    +0.018 C 
BRANCH  17  20
ATOM     20  C   UNL     1      -7.661  15.089  67.284  0.00  0.00    +0.042 C 
BRANCH  20  24
ATOM     21  C   UNL     1     -10.701  13.175  65.151  0.00  0.00    +0.139 A 
ATOM     22  C   UNL     1     -10.403  14.504  64.879  0.00  0.00    +0.037 A 
ATOM     23  C   UNL     1      -9.648  15.206  65.809  0.00  0.00    -0.001 A 
ATOM     24  C   UNL     1      -8.875  14.465  66.696  0.00  0.00    -0.021 A 
ATOM     25  C   UNL     1      -8.965  13.090  66.749  0.00  0.00    -0.001 A 
ATOM     26  C   UNL     1      -9.943  12.421  66.029  0.00  0.00    +0.037 A 
BRANCH  21  28
ATOM     27  C   UNL     1     -12.534  12.406  64.459  0.00  0.00    +0.252 C 
ATOM     28  O   UNL     1     -11.914  12.625  64.724  0.00  0.00    -0.471 OA
ENDBRANCH  21  28
ENDBRANCH  20  24
ENDBRANCH  17  20
ENDBRANCH  16  17
ENDBRANCH   1  16
TORSDOF 7
ENDMDL
MODEL 6
REMARK VINA RESULT:      -6.8      3.091      7.781
REMARK  Name = 
REMARK  7 active torsions:
REMARK  status: ('A' for Active; 'I' for Inactive)
REMARK    1  A    between atoms: O_2  and  C_3
REMARK    2  A    between atoms: C_6  and  C_7
REMARK    3  A    between atoms: C_7  and  C_8
REMARK    4  A    between atoms: C_8  and  N_11
REMARK    5  A    between atoms: N_11  and  C_12
REMARK    6  A    between atoms: C_12  and  C_13
REMARK    7  A    between atoms: C_13  and  C_15
REMARK                            x       y       z     vdW  Elec       q    Type
REMARK                         _______ _______ _______ _____ _____    ______ ____
ROOT
ATOM      1  C   UNL     1      -9.801  11.329  68.026  0.00  0.00    +0.126 C 
ENDROOT
BRANCH   1   2
ATOM      2  C   UNL     1     -11.012  12.399  68.342  0.00  0.00    +0.195 C 
ATOM      3  O   UNL     1     -12.130  11.374  68.216  0.00  0.00    -0.217 OA
BRANCH   2   4
ATOM      4  C   UNL     1     -11.118  12.870  66.799  0.00  0.00    +0.048 A 
ATOM      5  C   UNL     1     -10.587  14.116  66.553  0.00  0.00    +0.153 A 
ATOM      6  O   UNL     1     -10.009  14.907  67.524  0.00  0.00    -0.464 OA
ATOM      7  C   UNL     1      -9.957  16.309  67.503  0.00  0.00    +0.292 C 
ATOM      8  C   UNL     1     -10.256  16.896  66.185  0.00  0.00    +0.290 C 
ATOM      9  N   UNL     1     -10.449  16.046  65.071  0.00  0.00    -0.173 NA
ATOM     10  O   UNL     1     -10.502  18.140  66.154  0.00  0.00    -0.269 OA
ATOM     11  C   UNL     1     -10.799  14.678  65.308  0.00  0.00    +0.110 A 
ATOM     12  C   UNL     1     -11.499  13.933  64.366  0.00  0.00    +0.062 A 
ATOM     13  C   UNL     1     -12.020  12.695  64.648  0.00  0.00    +0.197 A 
ATOM     14  O   UNL     1     -13.197  12.379  63.956  0.00  0.00    -0.287 OA
ATOM     15  C   UNL     1     -11.813  12.152  65.912  0.00  0.00    +0.043 A 
ENDBRANCH   2   4
ENDBRANCH   1   2
BRANCH   1  16
ATOM     16  N   UNL     1     -10.118  10.048  68.471  0.00  0.00    -0.217 NA
BRANCH  16  17
ATOM     17  C   UNL     1      -8.999   9.455  69.167  0.00  0.00    +0.064 C 
ATOM     18  C   UNL     1      -7.795  10.381  69.060  0.00  0.00    +0.018 C 
ATOM     19  C   UNL     1      -8.582   8.143  68.560  0.00  0.00    +0.018 C 
BRANCH  17  20
ATOM     20  C   UNL     1      -9.287   9.258  70.639  0.00  0.00    +0.042 C 
BRANCH  20  24
ATOM     21  C   UNL     1     -13.156   8.238  71.839  0.00  0.00    +0.139 A 
ATOM     22  C   UNL     1     -12.207   7.239  71.663  0.00  0.00    +0.037 A 
ATOM     23  C   UNL     1     -11.057   7.553  70.950  0.00  0.00    -0.001 A 
ATOM     24  C   UNL     1     -10.712   8.896  70.849  0.00  0.00    -0.021 A 
ATOM     25  C   UNL     1     -11.552   9.887  71.311  0.00  0.00    -0.001 A 
ATOM     26  C   UNL     1     -12.832   9.579  71.745  0.00  0.00    +0.037 A 
BRANCH  21  28
ATOM     27  C   UNL     1     -15.190   7.699  71.856  0.00  0.00    +0.252 C 
ATOM     28  O   UNL     1     -14.515   7.913  71.888  0.00  0.00    -0.471 OA
ENDBRANCH  21  28
ENDBRANCH  20  24
ENDBRANCH  17  20
ENDBRANCH  16  17
ENDBRANCH   1  16
TORSDOF 7
ENDMDL
MODEL 7
REMARK VINA RESULT:      -6.8      2.725      5.327
REMARK  Name = 
REMARK  7 active torsions:
REMARK  status: ('A' for Active; 'I' for Inactive)
REMARK    1  A    between atoms: O_2  and  C_3
REMARK    2  A    between atoms: C_6  and  C_7
REMARK    3  A    between atoms: C_7  and  C_8
REMARK    4  A    between atoms: C_8  and  N_11
REMARK    5  A    between atoms: N_11  and  C_12
REMARK    6  A    between atoms: C_12  and  C_13
REMARK    7  A    between atoms: C_13  and  C_15
REMARK                            x       y       z     vdW  Elec       q    Type
REMARK                         _______ _______ _______ _____ _____    ______ ____
ROOT
ATOM      1  C   UNL     1     -10.331  16.375  68.642  0.00  0.00    +0.126 C 
ENDROOT
BRANCH   1   2
ATOM      2  C   UNL     1     -11.946  16.070  68.749  0.00  0.00    +0.195 C 
ATOM      3  O   UNL     1     -11.991  16.133  70.269  0.00  0.00    -0.217 OA
BRANCH   2   4
ATOM      4  C   UNL     1     -11.734  14.467  68.710  0.00  0.00    +0.048 A 
ATOM      5  C   UNL     1     -11.710  13.934  67.441  0.00  0.00    +0.153 A 
ATOM      6  O   UNL     1     -11.851  14.684  66.292  0.00  0.00    -0.464 OA
ATOM      7  C   UNL     1     -12.372  14.217  65.077  0.00  0.00    +0.292 C 
ATOM      8  C   UNL     1     -12.445  12.747  64.986  0.00  0.00    +0.290 C 
ATOM      9  N   UNL     1     -11.906  11.958  66.028  0.00  0.00    -0.173 NA
ATOM     10  O   UNL     1     -13.154  12.265  64.051  0.00  0.00    -0.269 OA
ATOM     11  C   UNL     1     -11.723  12.557  67.316  0.00  0.00    +0.110 A 
ATOM     12  C   UNL     1     -11.714  11.795  68.478  0.00  0.00    +0.062 A 
ATOM     13  C   UNL     1     -11.744  12.361  69.728  0.00  0.00    +0.197 A 
ATOM     14  O   UNL     1     -12.400  11.600  70.705  0.00  0.00    -0.287 OA
ATOM     15  C   UNL     1     -11.751  13.749  69.836  0.00  0.00    +0.043 A 
ENDBRANCH   2   4
ENDBRANCH   1   2
BRANCH   1  16
ATOM     16  N   UNL     1     -10.057  17.737  68.744  0.00  0.00    -0.217 NA
BRANCH  16  17
ATOM     17  C   UNL     1      -9.373  18.212  67.562  0.00  0.00    +0.064 C 
ATOM     18  C   UNL     1     -10.272  18.017  66.350  0.00  0.00    +0.018 C 
ATOM     19  C   UNL     1      -8.112  17.438  67.286  0.00  0.00    +0.018 C 
BRANCH  17  20
ATOM     20  C   UNL     1      -9.047  19.687  67.650  0.00  0.00    +0.042 C 
BRANCH  20  24
ATOM     21  C   UNL     1      -5.161  20.795  68.710  0.00  0.00    +0.139 A 
ATOM     22  C   UNL     1      -5.695  21.232  67.504  0.00  0.00    +0.037 A 
ATOM     23  C   UNL     1      -6.827  20.588  67.022  0.00  0.00    -0.001 A 
ATOM     24  C   UNL     1      -7.603  19.887  67.937  0.00  0.00    -0.021 A 
ATOM     25  C   UNL     1      -7.191  19.713  69.242  0.00  0.00    -0.001 A 
ATOM     26  C   UNL     1      -5.918  20.097  69.634  0.00  0.00    +0.037 A 
BRANCH  21  28
ATOM     27  C   UNL     1      -3.081  20.793  69.033  0.00  0.00    +0.252 C 
ATOM     28  O   UNL     1      -3.780  20.845  68.926  0.00  0.00    -0.471 OA
ENDBRANCH  21  28
ENDBRANCH  20  24
ENDBRANCH  17  20
ENDBRANCH  16  17
ENDBRANCH   1  16
TORSDOF 7
ENDMDL
MODEL 8
REMARK VINA RESULT:      -6.8      2.897      7.084
REMARK  Name = 
REMARK  7 active torsions:
REMARK  status: ('A' for Active; 'I' for Inactive)
REMARK    1  A    between atoms: O_2  and  C_3
REMARK    2  A    between atoms: C_6  and  C_7
REMARK    3  A    between atoms: C_7  and  C_8
REMARK    4  A    between atoms: C_8  and  N_11
REMARK    5  A    between atoms: N_11  and  C_12
REMARK    6  A    between atoms: C_12  and  C_13
REMARK    7  A    between atoms: C_13  and  C_15
REMARK                            x       y       z     vdW  Elec       q    Type
REMARK                         _______ _______ _______ _____ _____    ______ ____
ROOT
ATOM      1  C   UNL     1     -10.287  11.360  68.500  0.00  0.00    +0.126 C 
ENDROOT
BRANCH   1   2
ATOM      2  C   UNL     1     -11.846  11.883  68.589  0.00  0.00    +0.195 C 
ATOM      3  O   UNL     1     -12.022  12.030  67.084  0.00  0.00    -0.217 OA
BRANCH   2   4
ATOM      4  C   UNL     1     -11.409  13.425  68.802  0.00  0.00    +0.048 A 
ATOM      5  C   UNL     1     -11.849  13.976  69.985  0.00  0.00    +0.153 A 
ATOM      6  O   UNL     1     -12.596  13.290  70.919  0.00  0.00    -0.464 OA
ATOM      7  C   UNL     1     -13.507  13.868  71.814  0.00  0.00    +0.292 C 
ATOM      8  C   UNL     1     -13.366  15.330  71.944  0.00  0.00    +0.290 C 
ATOM      9  N   UNL     1     -12.306  15.989  71.280  0.00  0.00    -0.173 NA
ATOM     10  O   UNL     1     -14.319  15.950  72.508  0.00  0.00    -0.269 OA
ATOM     11  C   UNL     1     -11.685  15.337  70.166  0.00  0.00    +0.110 A 
ATOM     12  C   UNL     1     -11.048  16.058  69.164  0.00  0.00    +0.062 A 
ATOM     13  C   UNL     1     -10.627  15.476  67.995  0.00  0.00    +0.197 A 
ATOM     14  O   UNL     1     -10.658  16.316  66.873  0.00  0.00    -0.287 OA
ATOM     15  C   UNL     1     -10.817  14.108  67.820  0.00  0.00    +0.043 A 
ENDBRANCH   2   4
ENDBRANCH   1   2
BRANCH   1  16
ATOM     16  N   UNL     1     -10.213   9.969  68.462  0.00  0.00    -0.217 NA
BRANCH  16  17
ATOM     17  C   UNL     1      -9.007   9.503  69.109  0.00  0.00    +0.064 C 
ATOM     18  C   UNL     1      -7.962  10.608  69.078  0.00  0.00    +0.018 C 
ATOM     19  C   UNL     1      -8.401   8.323  68.398  0.00  0.00    +0.018 C 
BRANCH  17  20
ATOM     20  C   UNL     1      -9.245   9.146  70.560  0.00  0.00    +0.042 C 
BRANCH  20  24
ATOM     21  C   UNL     1     -13.007   7.750  71.724  0.00  0.00    +0.139 A 
ATOM     22  C   UNL     1     -12.044   6.848  71.288  0.00  0.00    +0.037 A 
ATOM     23  C   UNL     1     -10.949   7.348  70.596  0.00  0.00    -0.001 A 
ATOM     24  C   UNL     1     -10.645   8.694  70.765  0.00  0.00    -0.021 A 
ATOM     25  C   UNL     1     -11.480   9.534  71.472  0.00  0.00    -0.001 A 
ATOM     26  C   UNL     1     -12.723   9.093  71.899  0.00  0.00    +0.037 A 
BRANCH  21  28
ATOM     27  C   UNL     1     -15.044   7.222  71.739  0.00  0.00    +0.252 C 
ATOM     28  O   UNL     1     -14.352   7.371  71.776  0.00  0.00    -0.471 OA
ENDBRANCH  21  28
ENDBRANCH  20  24
ENDBRANCH  17  20
ENDBRANCH  16  17
ENDBRANCH   1  16
TORSDOF 7
ENDMDL
MODEL 9
REMARK VINA RESULT:      -6.8      2.323      6.499
REMARK  Name = 
REMARK  7 active torsions:
REMARK  status: ('A' for Active; 'I' for Inactive)
REMARK    1  A    between atoms: O_2  and  C_3
REMARK    2  A    between atoms: C_6  and  C_7
REMARK    3  A    between atoms: C_7  and  C_8
REMARK    4  A    between atoms: C_8  and  N_11
REMARK    5  A    between atoms: N_11  and  C_12
REMARK    6  A    between atoms: C_12  and  C_13
REMARK    7  A    between atoms: C_13  and  C_15
REMARK                            x       y       z     vdW  Elec       q    Type
REMARK                         _______ _______ _______ _____ _____    ______ ____
ROOT
ATOM      1  C   UNL     1     -11.202  12.506  66.081  0.00  0.00    +0.126 C 
ENDROOT
BRANCH   1   2
ATOM      2  C   UNL     1     -12.429  13.596  66.216  0.00  0.00    +0.195 C 
ATOM      3  O   UNL     1     -12.339  14.073  64.773  0.00  0.00    -0.217 OA
BRANCH   2   4
ATOM      4  C   UNL     1     -11.452  14.756  66.778  0.00  0.00    +0.048 A 
ATOM      5  C   UNL     1     -11.472  14.893  68.148  0.00  0.00    +0.153 A 
ATOM      6  O   UNL     1     -12.248  14.118  68.984  0.00  0.00    -0.464 OA
ATOM      7  C   UNL     1     -12.740  14.517  70.236  0.00  0.00    +0.292 C 
ATOM      8  C   UNL     1     -12.079  15.717  70.780  0.00  0.00    +0.290 C 
ATOM      9  N   UNL     1     -10.980  16.279  70.092  0.00  0.00    -0.173 NA
ATOM     10  O   UNL     1     -12.649  16.293  71.756  0.00  0.00    -0.269 OA
ATOM     11  C   UNL     1     -10.816  15.978  68.701  0.00  0.00    +0.110 A 
ATOM     12  C   UNL     1     -10.141  16.839  67.844  0.00  0.00    +0.062 A 
ATOM     13  C   UNL     1     -10.147  16.674  66.482  0.00  0.00    +0.197 A 
ATOM     14  O   UNL     1     -10.066  17.863  65.744  0.00  0.00    -0.287 OA
ATOM     15  C   UNL     1     -10.828  15.588  65.940  0.00  0.00    +0.043 A 
ENDBRANCH   2   4
ENDBRANCH   1   2
BRANCH   1  16
ATOM     16  N   UNL     1     -11.387  11.417  66.931  0.00  0.00    -0.217 NA
BRANCH  16  17
ATOM     17  C   UNL     1     -10.148  10.695  67.115  0.00  0.00    +0.064 C 
ATOM     18  C   UNL     1      -9.036  11.404  66.354  0.00  0.00    +0.018 C 
ATOM     19  C   UNL     1     -10.217   9.297  66.563  0.00  0.00    +0.018 C 
BRANCH  17  20
ATOM     20  C   UNL     1      -9.735  10.639  68.570  0.00  0.00    +0.042 C 
BRANCH  20  24
ATOM     21  C   UNL     1     -12.541   9.451  71.428  0.00  0.00    +0.139 A 
ATOM     22  C   UNL     1     -11.517   8.583  71.068  0.00  0.00    +0.037 A 
ATOM     23  C   UNL     1     -10.817   8.851  69.899  0.00  0.00    -0.001 A 
ATOM     24  C   UNL     1     -10.858  10.153  69.413  0.00  0.00    -0.021 A 
ATOM     25  C   UNL     1     -11.676  11.105  69.983  0.00  0.00    -0.001 A 
ATOM     26  C   UNL     1     -12.597  10.750  70.957  0.00  0.00    +0.037 A 
BRANCH  21  28
ATOM     27  C   UNL     1     -14.217   8.650  72.416  0.00  0.00    +0.252 C 
ATOM     28  O   UNL     1     -13.671   8.966  72.094  0.00  0.00    -0.471 OA
ENDBRANCH  21  28
ENDBRANCH  20  24
ENDBRANCH  17  20
ENDBRANCH  16  17
ENDBRANCH   1  16
TORSDOF 7
ENDMDL
