MODEL 1
REMARK VINA RESULT:      -6.1      0.000      0.000
REMARK  Name = 
REMARK  6 active torsions:
REMARK  status: ('A' for Active; 'I' for Inactive)
REMARK    1  A    between atoms: C_2  and  C_3
REMARK    2  A    between atoms: C_2  and  C_5
REMARK    3  A    between atoms: C_5  and  C_7
REMARK    4  A    between atoms: C_10  and  O_11
REMARK    5  A    between atoms: O_11  and  C_12
REMARK    6  A    between atoms: C_12  and  C_13
REMARK                            x       y       z     vdW  Elec       q    Type
REMARK                         _______ _______ _______ _____ _____    ______ ____
ROOT
ATOM      1  C   UNL     1     -11.647  10.231  70.210  0.00  0.00    +0.050 A 
ATOM      2  C   UNL     1     -12.084  11.533  70.392  0.00  0.00    +0.074 A 
ATOM      3 CL   UNL     1     -13.039  12.002  71.793  0.00  0.00    -0.081 Cl
ATOM      4  C   UNL     1     -11.967  12.434  69.342  0.00  0.00    +0.102 A 
ATOM      5 CL   UNL     1     -12.002  14.143  69.669  0.00  0.00    -0.078 Cl
ATOM      6  C   UNL     1     -11.711  11.904  68.086  0.00  0.00    +0.151 A 
ATOM      7  C   UNL     1     -11.169  10.646  67.952  0.00  0.00    +0.038 A 
ATOM      8  C   UNL     1     -10.893   9.905  69.094  0.00  0.00    +0.007 A 
ENDROOT
BRANCH   1   9
ATOM      9  C   UNL     1     -11.706   9.331  71.369  0.00  0.00    +0.192 C 
ATOM     10  O   UNL     1     -10.589   9.092  71.922  0.00  0.00    -0.287 OA
BRANCH   9  12
ATOM     11  C   UNL     1     -12.491   7.057  71.396  0.00  0.00    -0.001 C 
ATOM     12  C   UNL     1     -12.790   8.345  71.446  0.00  0.00    +0.017 C 
BRANCH  12  13
ATOM     13  C   UNL     1     -13.996   8.709  72.254  0.00  0.00    +0.030 C 
ATOM     14  C   UNL     1     -15.047   7.657  71.915  0.00  0.00    +0.005 C 
ENDBRANCH  12  13
ENDBRANCH   9  12
ENDBRANCH   1   9
BRANCH   6  15
ATOM     15  O   UNL     1     -11.642  12.799  67.015  0.00  0.00    -0.463 OA
BRANCH  15  16
ATOM     16  C   UNL     1     -11.624  12.220  65.716  0.00  0.00    +0.319 C 
BRANCH  16  17
ATOM     17  C   UNL     1     -12.526  12.948  64.775  0.00  0.00    +0.408 C 
ATOM     18  O   UNL     1     -13.067  12.188  63.733  0.00  0.00    -0.241 OA
ATOM     19  O   UNL     1     -13.149  13.945  65.252  0.00  0.00    -0.241 OA
ENDBRANCH  16  17
ENDBRANCH  15  16
ENDBRANCH   6  15
TORSDOF 6
ENDMDL
MODEL 2
REMARK VINA RESULT:      -6.0      5.286      7.905
REMARK  Name = 
REMARK  6 active torsions:
REMARK  status: ('A' for Active; 'I' for Inactive)
REMARK    1  A    between atoms: C_2  and  C_3
REMARK    2  A    between atoms: C_2  and  C_5
REMARK    3  A    between atoms: C_5  and  C_7
REMARK    4  A    between atoms: C_10  and  O_11
REMARK    5  A    between atoms: O_11  and  C_12
REMARK    6  A    between atoms: C_12  and  C_13
REMARK                            x       y       z     vdW  Elec       q    Type
REMARK                         _______ _______ _______ _____ _____    ______ ____
ROOT
ATOM      1  C   UNL     1     -10.209  17.138  67.337  0.00  0.00    +0.050 A 
ATOM      2  C   UNL     1     -10.777  16.169  68.147  0.00  0.00    +0.074 A 
ATOM      3 CL   UNL     1     -11.042  16.437  69.865  0.00  0.00    -0.081 Cl
ATOM      4  C   UNL     1     -10.930  14.882  67.649  0.00  0.00    +0.102 A 
ATOM      5 CL   UNL     1     -12.074  13.803  68.394  0.00  0.00    -0.078 Cl
ATOM      6  C   UNL     1     -10.226  14.569  66.496  0.00  0.00    +0.151 A 
ATOM      7  C   UNL     1      -9.775  15.561  65.656  0.00  0.00    +0.038 A 
ATOM      8  C   UNL     1     -10.021  16.888  65.987  0.00  0.00    +0.007 A 
ENDROOT
BRANCH   1   9
ATOM      9  C   UNL     1     -10.144  18.507  67.865  0.00  0.00    +0.192 C 
ATOM     10  O   UNL     1     -11.142  19.239  67.586  0.00  0.00    -0.287 OA
BRANCH   9  12
ATOM     11  C   UNL     1      -7.841  18.357  68.544  0.00  0.00    -0.001 C 
ATOM     12  C   UNL     1      -8.829  19.115  68.099  0.00  0.00    +0.017 C 
BRANCH  12  13
ATOM     13  C   UNL     1      -8.434  20.261  67.221  0.00  0.00    +0.030 C 
ATOM     14  C   UNL     1      -7.498  19.669  66.173  0.00  0.00    +0.005 C 
ENDBRANCH  12  13
ENDBRANCH   9  12
ENDBRANCH   1   9
BRANCH   6  15
ATOM     15  O   UNL     1     -10.334  13.260  66.016  0.00  0.00    -0.463 OA
BRANCH  15  16
ATOM     16  C   UNL     1     -10.814  13.119  64.684  0.00  0.00    +0.319 C 
BRANCH  16  17
ATOM     17  C   UNL     1     -12.277  13.408  64.593  0.00  0.00    +0.408 C 
ATOM     18  O   UNL     1     -12.633  14.536  63.846  0.00  0.00    -0.241 OA
ATOM     19  O   UNL     1     -13.054  12.411  64.685  0.00  0.00    -0.241 OA
ENDBRANCH  16  17
ENDBRANCH  15  16
ENDBRANCH   6  15
TORSDOF 6
ENDMDL
MODEL 3
REMARK VINA RESULT:      -5.8      3.625      4.837
REMARK  Name = 
REMARK  6 active torsions:
REMARK  status: ('A' for Active; 'I' for Inactive)
REMARK    1  A    between atoms: C_2  and  C_3
REMARK    2  A    between atoms: C_2  and  C_5
REMARK    3  A    between atoms: C_5  and  C_7
REMARK    4  A    between atoms: C_10  and  O_11
REMARK    5  A    between atoms: O_11  and  C_12
REMARK    6  A    between atoms: C_12  and  C_13
REMARK                            x       y       z     vdW  Elec       q    Type
REMARK                         _______ _______ _______ _____ _____    ______ ____
ROOT
ATOM      1  C   UNL     1     -11.949  14.105  69.921  0.00  0.00    +0.050 A 
ATOM      2  C   UNL     1     -11.708  12.909  69.266  0.00  0.00    +0.074 A 
ATOM      3 CL   UNL     1     -11.745  11.367  70.112  0.00  0.00    -0.081 Cl
ATOM      4  C   UNL     1     -11.203  12.940  67.973  0.00  0.00    +0.102 A 
ATOM      5 CL   UNL     1     -11.376  11.543  66.949  0.00  0.00    -0.078 Cl
ATOM      6  C   UNL     1     -10.680  14.147  67.533  0.00  0.00    +0.151 A 
ATOM      7  C   UNL     1     -11.034  15.329  68.141  0.00  0.00    +0.038 A 
ATOM      8  C   UNL     1     -11.915  15.298  69.216  0.00  0.00    +0.007 A 
ENDROOT
BRANCH   1   9
ATOM      9  C   UNL     1     -12.565  14.035  71.252  0.00  0.00    +0.192 C 
ATOM     10  O   UNL     1     -13.137  12.935  71.522  0.00  0.00    -0.287 OA
BRANCH   9  12
ATOM     11  C   UNL     1     -14.307  15.422  72.162  0.00  0.00    -0.001 C 
ATOM     12  C   UNL     1     -13.022  15.276  71.888  0.00  0.00    +0.017 C 
BRANCH  12  13
ATOM     13  C   UNL     1     -12.070  15.965  72.816  0.00  0.00    +0.030 C 
ATOM     14  C   UNL     1     -12.468  15.516  74.217  0.00  0.00    +0.005 C 
ENDBRANCH  12  13
ENDBRANCH   9  12
ENDBRANCH   1   9
BRANCH   6  15
ATOM     15  O   UNL     1     -10.123  14.174  66.251  0.00  0.00    -0.463 OA
BRANCH  15  16
ATOM     16  C   UNL     1     -10.227  15.407  65.550  0.00  0.00    +0.319 C 
BRANCH  16  17
ATOM     17  C   UNL     1     -11.444  15.449  64.685  0.00  0.00    +0.408 C 
ATOM     18  O   UNL     1     -11.596  16.593  63.895  0.00  0.00    -0.241 OA
ATOM     19  O   UNL     1     -11.907  14.329  64.313  0.00  0.00    -0.241 OA
ENDBRANCH  16  17
ENDBRANCH  15  16
ENDBRANCH   6  15
TORSDOF 6
ENDMDL
MODEL 4
REMARK VINA RESULT:      -5.7      5.452      8.768
REMARK  Name = 
REMARK  6 active torsions:
REMARK  status: ('A' for Active; 'I' for Inactive)
REMARK    1  A    between atoms: C_2  and  C_3
REMARK    2  A    between atoms: C_2  and  C_5
REMARK    3  A    between atoms: C_5  and  C_7
REMARK    4  A    between atoms: C_10  and  O_11
REMARK    5  A    between atoms: O_11  and  C_12
REMARK    6  A    between atoms: C_12  and  C_13
REMARK                            x       y       z     vdW  Elec       q    Type
REMARK                         _______ _______ _______ _____ _____    ______ ____
ROOT
ATOM      1  C   UNL     1     -10.082  16.822  67.357  0.00  0.00    +0.050 A 
ATOM      2  C   UNL     1     -10.758  15.744  66.811  0.00  0.00    +0.074 A 
ATOM      3 CL   UNL     1     -10.988  15.578  65.075  0.00  0.00    -0.081 Cl
ATOM      4  C   UNL     1     -11.468  14.899  67.654  0.00  0.00    +0.102 A 
ATOM      5 CL   UNL     1     -11.877  13.295  67.115  0.00  0.00    -0.078 Cl
ATOM      6  C   UNL     1     -11.713  15.356  68.939  0.00  0.00    +0.151 A 
ATOM      7  C   UNL     1     -10.942  16.355  69.489  0.00  0.00    +0.038 A 
ATOM      8  C   UNL     1      -9.919  16.912  68.731  0.00  0.00    +0.007 A 
ENDROOT
BRANCH   1   9
ATOM      9  C   UNL     1      -9.272  17.642  66.448  0.00  0.00    +0.192 C 
ATOM     10  O   UNL     1      -8.202  17.096  66.040  0.00  0.00    -0.287 OA
BRANCH   9  12
ATOM     11  C   UNL     1     -10.504  19.699  66.246  0.00  0.00    -0.001 C 
ATOM     12  C   UNL     1      -9.360  19.104  66.543  0.00  0.00    +0.017 C 
BRANCH  12  13
ATOM     13  C   UNL     1      -8.518  19.779  67.581  0.00  0.00    +0.030 C 
ATOM     14  C   UNL     1      -7.322  20.351  66.827  0.00  0.00    +0.005 C 
ENDBRANCH  12  13
ENDBRANCH   9  12
ENDBRANCH   1   9
BRANCH   6  15
ATOM     15  O   UNL     1     -12.470  14.533  69.779  0.00  0.00    -0.463 OA
BRANCH  15  16
ATOM     16  C   UNL     1     -12.562  14.942  71.138  0.00  0.00    +0.319 C 
BRANCH  16  17
ATOM     17  C   UNL     1     -13.928  14.703  71.694  0.00  0.00    +0.408 C 
ATOM     18  O   UNL     1     -14.053  13.616  72.565  0.00  0.00    -0.241 OA
ATOM     19  O   UNL     1     -14.676  15.721  71.804  0.00  0.00    -0.241 OA
ENDBRANCH  16  17
ENDBRANCH  15  16
ENDBRANCH   6  15
TORSDOF 6
ENDMDL
MODEL 5
REMARK VINA RESULT:      -5.7      3.814      7.001
REMARK  Name = 
REMARK  6 active torsions:
REMARK  status: ('A' for Active; 'I' for Inactive)
REMARK    1  A    between atoms: C_2  and  C_3
REMARK    2  A    between atoms: C_2  and  C_5
REMARK    3  A    between atoms: C_5  and  C_7
REMARK    4  A    between atoms: C_10  and  O_11
REMARK    5  A    between atoms: O_11  and  C_12
REMARK    6  A    between atoms: C_12  and  C_13
REMARK                            x       y       z     vdW  Elec       q    Type
REMARK                         _______ _______ _______ _____ _____    ______ ____
ROOT
ATOM      1  C   UNL     1     -10.736  13.861  67.861  0.00  0.00    +0.050 A 
ATOM      2  C   UNL     1     -11.251  12.695  68.402  0.00  0.00    +0.074 A 
ATOM      3 CL   UNL     1     -11.355  11.207  67.469  0.00  0.00    -0.081 Cl
ATOM      4  C   UNL     1     -11.909  12.754  69.623  0.00  0.00    +0.102 A 
ATOM      5 CL   UNL     1     -12.099  11.304  70.568  0.00  0.00    -0.078 Cl
ATOM      6  C   UNL     1     -12.282  14.011  70.074  0.00  0.00    +0.151 A 
ATOM      7  C   UNL     1     -11.664  15.142  69.592  0.00  0.00    +0.038 A 
ATOM      8  C   UNL     1     -10.668  15.010  68.633  0.00  0.00    +0.007 A 
ENDROOT
BRANCH   1   9
ATOM      9  C   UNL     1      -9.971  13.745  66.613  0.00  0.00    +0.192 C 
ATOM     10  O   UNL     1      -8.725  13.962  66.723  0.00  0.00    -0.287 OA
BRANCH   9  12
ATOM     11  C   UNL     1     -10.762  15.249  64.909  0.00  0.00    -0.001 C 
ATOM     12  C   UNL     1     -10.652  14.002  65.338  0.00  0.00    +0.017 C 
BRANCH  12  13
ATOM     13  C   UNL     1     -10.552  12.949  64.279  0.00  0.00    +0.030 C 
ATOM     14  C   UNL     1     -11.958  12.811  63.706  0.00  0.00    +0.005 C 
ENDBRANCH  12  13
ENDBRANCH   9  12
ENDBRANCH   1   9
BRANCH   6  15
ATOM     15  O   UNL     1     -12.989  14.076  71.279  0.00  0.00    -0.463 OA
BRANCH  15  16
ATOM     16  C   UNL     1     -12.358  14.786  72.337  0.00  0.00    +0.319 C 
BRANCH  16  17
ATOM     17  C   UNL     1     -13.336  15.611  73.108  0.00  0.00    +0.408 C 
ATOM     18  O   UNL     1     -12.804  16.378  74.150  0.00  0.00    -0.241 OA
ATOM     19  O   UNL     1     -14.373  15.984  72.481  0.00  0.00    -0.241 OA
ENDBRANCH  16  17
ENDBRANCH  15  16
ENDBRANCH   6  15
TORSDOF 6
ENDMDL
MODEL 6
REMARK VINA RESULT:      -5.5      9.599     11.935
REMARK  Name = 
REMARK  6 active torsions:
REMARK  status: ('A' for Active; 'I' for Inactive)
REMARK    1  A    between atoms: C_2  and  C_3
REMARK    2  A    between atoms: C_2  and  C_5
REMARK    3  A    between atoms: C_5  and  C_7
REMARK    4  A    between atoms: C_10  and  O_11
REMARK    5  A    between atoms: O_11  and  C_12
REMARK    6  A    between atoms: C_12  and  C_13
REMARK                            x       y       z     vdW  Elec       q    Type
REMARK                         _______ _______ _______ _____ _____    ______ ____
ROOT
ATOM      1  C   UNL     1      -6.914  19.594  67.416  0.00  0.00    +0.050 A 
ATOM      2  C   UNL     1      -6.140  18.461  67.602  0.00  0.00    +0.074 A 
ATOM      3 CL   UNL     1      -6.735  16.855  67.201  0.00  0.00    -0.081 Cl
ATOM      4  C   UNL     1      -4.962  18.564  68.331  0.00  0.00    +0.102 A 
ATOM      5 CL   UNL     1      -3.732  17.347  68.153  0.00  0.00    -0.078 Cl
ATOM      6  C   UNL     1      -4.792  19.715  69.087  0.00  0.00    +0.151 A 
ATOM      7  C   UNL     1      -5.501  20.858  68.796  0.00  0.00    +0.038 A 
ATOM      8  C   UNL     1      -6.405  20.841  67.741  0.00  0.00    +0.007 A 
ENDROOT
BRANCH   1   9
ATOM      9  C   UNL     1      -8.105  19.465  66.566  0.00  0.00    +0.192 C 
ATOM     10  O   UNL     1      -7.898  19.613  65.323  0.00  0.00    -0.287 OA
BRANCH   9  12
ATOM     11  C   UNL     1     -10.479  19.792  66.343  0.00  0.00    -0.001 C 
ATOM     12  C   UNL     1      -9.420  19.786  67.136  0.00  0.00    +0.017 C 
BRANCH  12  13
ATOM     13  C   UNL     1      -9.667  19.397  68.560  0.00  0.00    +0.030 C 
ATOM     14  C   UNL     1     -10.043  17.920  68.520  0.00  0.00    +0.005 C 
ENDBRANCH  12  13
ENDBRANCH   9  12
ENDBRANCH   1   9
BRANCH   6  15
ATOM     15  O   UNL     1      -3.633  19.805  69.864  0.00  0.00    -0.463 OA
BRANCH  15  16
ATOM     16  C   UNL     1      -3.339  21.089  70.402  0.00  0.00    +0.319 C 
BRANCH  16  17
ATOM     17  C   UNL     1      -3.649  21.159  71.861  0.00  0.00    +0.408 C 
ATOM     18  O   UNL     1      -4.458  22.226  72.265  0.00  0.00    -0.241 OA
ATOM     19  O   UNL     1      -3.657  20.056  72.488  0.00  0.00    -0.241 OA
ENDBRANCH  16  17
ENDBRANCH  15  16
ENDBRANCH   6  15
TORSDOF 6
ENDMDL
MODEL 7
REMARK VINA RESULT:      -5.5      4.410      6.146
REMARK  Name = 
REMARK  6 active torsions:
REMARK  status: ('A' for Active; 'I' for Inactive)
REMARK    1  A    between atoms: C_2  and  C_3
REMARK    2  A    between atoms: C_2  and  C_5
REMARK    3  A    between atoms: C_5  and  C_7
REMARK    4  A    between atoms: C_10  and  O_11
REMARK    5  A    between atoms: O_11  and  C_12
REMARK    6  A    between atoms: C_12  and  C_13
REMARK                            x       y       z     vdW  Elec       q    Type
REMARK                         _______ _______ _______ _____ _____    ______ ____
ROOT
ATOM      1  C   UNL     1     -10.543  12.902  66.370  0.00  0.00    +0.050 A 
ATOM      2  C   UNL     1     -11.058  13.691  65.356  0.00  0.00    +0.074 A 
ATOM      3 CL   UNL     1     -12.052  13.014  64.071  0.00  0.00    -0.081 Cl
ATOM      4  C   UNL     1     -10.598  14.993  65.217  0.00  0.00    +0.102 A 
ATOM      5 CL   UNL     1     -11.552  16.153  64.337  0.00  0.00    -0.078 Cl
ATOM      6  C   UNL     1      -9.435  15.323  65.897  0.00  0.00    +0.151 A 
ATOM      7  C   UNL     1      -9.017  14.577  66.975  0.00  0.00    +0.038 A 
ATOM      8  C   UNL     1      -9.768  13.476  67.366  0.00  0.00    +0.007 A 
ENDROOT
BRANCH   1   9
ATOM      9  C   UNL     1     -11.117  11.561  66.541  0.00  0.00    +0.192 C 
ATOM     10  O   UNL     1     -12.043  11.478  67.404  0.00  0.00    -0.287 OA
BRANCH   9  12
ATOM     11  C   UNL     1     -10.375   9.322  67.019  0.00  0.00    -0.001 C 
ATOM     12  C   UNL     1     -10.283  10.390  66.243  0.00  0.00    +0.017 C 
BRANCH  12  13
ATOM     13  C   UNL     1      -9.944  10.133  64.808  0.00  0.00    +0.030 C 
ATOM     14  C   UNL     1      -8.421  10.164  64.737  0.00  0.00    +0.005 C 
ENDBRANCH  12  13
ENDBRANCH   9  12
ENDBRANCH   1   9
BRANCH   6  15
ATOM     15  O   UNL     1      -8.936  16.617  65.723  0.00  0.00    -0.463 OA
BRANCH  15  16
ATOM     16  C   UNL     1      -8.914  17.441  66.883  0.00  0.00    +0.319 C 
BRANCH  16  17
ATOM     17  C   UNL     1     -10.082  18.371  66.920  0.00  0.00    +0.408 C 
ATOM     18  O   UNL     1     -10.427  18.969  65.703  0.00  0.00    -0.241 OA
ATOM     19  O   UNL     1     -10.955  18.143  67.810  0.00  0.00    -0.241 OA
ENDBRANCH  16  17
ENDBRANCH  15  16
ENDBRANCH   6  15
TORSDOF 6
ENDMDL
MODEL 8
REMARK VINA RESULT:      -5.4      4.984      6.922
REMARK  Name = 
REMARK  6 active torsions:
REMARK  status: ('A' for Active; 'I' for Inactive)
REMARK    1  A    between atoms: C_2  and  C_3
REMARK    2  A    between atoms: C_2  and  C_5
REMARK    3  A    between atoms: C_5  and  C_7
REMARK    4  A    between atoms: C_10  and  O_11
REMARK    5  A    between atoms: O_11  and  C_12
REMARK    6  A    between atoms: C_12  and  C_13
REMARK                            x       y       z     vdW  Elec       q    Type
REMARK                         _______ _______ _______ _____ _____    ______ ____
ROOT
ATOM      1  C   UNL     1     -10.700  14.450  67.039  0.00  0.00    +0.050 A 
ATOM      2  C   UNL     1     -10.091  15.644  67.386  0.00  0.00    +0.074 A 
ATOM      3 CL   UNL     1      -8.573  16.156  66.659  0.00  0.00    -0.081 Cl
ATOM      4  C   UNL     1     -10.561  16.343  68.490  0.00  0.00    +0.102 A 
ATOM      5 CL   UNL     1     -10.203  18.039  68.650  0.00  0.00    -0.078 Cl
ATOM      6  C   UNL     1     -11.399  15.656  69.356  0.00  0.00    +0.151 A 
ATOM      7  C   UNL     1     -12.076  14.534  68.937  0.00  0.00    +0.038 A 
ATOM      8  C   UNL     1     -11.898  14.087  67.633  0.00  0.00    +0.007 A 
ENDROOT
BRANCH   1   9
ATOM      9  C   UNL     1     -10.233  13.784  65.816  0.00  0.00    +0.192 C 
ATOM     10  O   UNL     1     -10.740  14.223  64.739  0.00  0.00    -0.287 OA
BRANCH   9  12
ATOM     11  C   UNL     1      -8.889  12.065  66.828  0.00  0.00    -0.001 C 
ATOM     12  C   UNL     1      -9.770  12.394  65.898  0.00  0.00    +0.017 C 
BRANCH  12  13
ATOM     13  C   UNL     1     -10.735  11.322  65.498  0.00  0.00    +0.030 C 
ATOM     14  C   UNL     1     -10.162  10.712  64.223  0.00  0.00    +0.005 C 
ENDBRANCH  12  13
ENDBRANCH   9  12
ENDBRANCH   1   9
BRANCH   6  15
ATOM     15  O   UNL     1     -11.836  16.335  70.497  0.00  0.00    -0.463 OA
BRANCH  15  16
ATOM     16  C   UNL     1     -11.862  15.581  71.703  0.00  0.00    +0.319 C 
BRANCH  16  17
ATOM     17  C   UNL     1     -13.199  15.647  72.366  0.00  0.00    +0.408 C 
ATOM     18  O   UNL     1     -13.232  16.270  73.618  0.00  0.00    -0.241 OA
ATOM     19  O   UNL     1     -14.207  15.664  71.597  0.00  0.00    -0.241 OA
ENDBRANCH  16  17
ENDBRANCH  15  16
ENDBRANCH   6  15
TORSDOF 6
ENDMDL
MODEL 9
REMARK VINA RESULT:      -5.4      3.313      4.651
REMARK  Name = 
REMARK  6 active torsions:
REMARK  status: ('A' for Active; 'I' for Inactive)
REMARK    1  A    between atoms: C_2  and  C_3
REMARK    2  A    between atoms: C_2  and  C_5
REMARK    3  A    between atoms: C_5  and  C_7
REMARK    4  A    between atoms: C_10  and  O_11
REMARK    5  A    between atoms: O_11  and  C_12
REMARK    6  A    between atoms: C_12  and  C_13
REMARK                            x       y       z     vdW  Elec       q    Type
REMARK                         _______ _______ _______ _____ _____    ______ ____
ROOT
ATOM      1  C   UNL     1     -11.911   9.808  71.163  0.00  0.00    +0.050 A 
ATOM      2  C   UNL     1     -11.398  10.445  70.046  0.00  0.00    +0.074 A 
ATOM      3 CL   UNL     1     -10.034   9.787  69.149  0.00  0.00    -0.081 Cl
ATOM      4  C   UNL     1     -11.812  11.739  69.760  0.00  0.00    +0.102 A 
ATOM      5 CL   UNL     1     -11.619  12.367  68.148  0.00  0.00    -0.078 Cl
ATOM      6  C   UNL     1     -12.468  12.425  70.771  0.00  0.00    +0.151 A 
ATOM      7  C   UNL     1     -13.066  11.746  71.807  0.00  0.00    +0.038 A 
ATOM      8  C   UNL     1     -12.990  10.359  71.838  0.00  0.00    +0.007 A 
ENDROOT
BRANCH   1   9
ATOM      9  C   UNL     1     -11.518   8.411  71.384  0.00  0.00    +0.192 C 
ATOM     10  O   UNL     1     -12.362   7.547  70.994  0.00  0.00    -0.287 OA
BRANCH   9  12
ATOM     11  C   UNL     1     -10.867   7.062  73.267  0.00  0.00    -0.001 C 
ATOM     12  C   UNL     1     -10.603   8.098  72.488  0.00  0.00    +0.017 C 
BRANCH  12  13
ATOM     13  C   UNL     1      -9.155   8.424  72.295  0.00  0.00    +0.030 C 
ATOM     14  C   UNL     1      -8.476   8.061  73.612  0.00  0.00    +0.005 C 
ENDBRANCH  12  13
ENDBRANCH   9  12
ENDBRANCH   1   9
BRANCH   6  15
ATOM     15  O   UNL     1     -12.844  13.746  70.509  0.00  0.00    -0.463 OA
BRANCH  15  16
ATOM     16  C   UNL     1     -12.589  14.686  71.546  0.00  0.00    +0.319 C 
BRANCH  16  17
ATOM     17  C   UNL     1     -13.835  15.396  71.964  0.00  0.00    +0.408 C 
ATOM     18  O   UNL     1     -15.035  14.864  71.481  0.00  0.00    -0.241 OA
ATOM     19  O   UNL     1     -13.788  16.007  73.074  0.00  0.00    -0.241 OA
ENDBRANCH  16  17
ENDBRANCH  15  16
ENDBRANCH   6  15
TORSDOF 6
ENDMDL
