MODEL 1
REMARK VINA RESULT:      -7.3      0.000      0.000
REMARK  Name = 
REMARK  5 active torsions:
REMARK  status: ('A' for Active; 'I' for Inactive)
REMARK    1  A    between atoms: O_2  and  C_3
REMARK    2  A    between atoms: N_26  and  C_27
REMARK    3  A    between atoms: C_27  and  C_28
REMARK    4  A    between atoms: C_53  and  O_54
REMARK    5  A    between atoms: O_54  and  C_55
REMARK                            x       y       z     vdW  Elec       q    Type
REMARK                         _______ _______ _______ _____ _____    ______ ____
ROOT
ATOM      1  C   UNL     1      -9.031   8.536  65.640  0.00  0.00    +0.144 C 
ATOM      2  C   UNL     1      -7.548   9.125  66.266  0.00  0.00    +0.072 C 
ATOM      3  C   UNL     1      -8.127   9.911  67.540  0.00  0.00    +0.007 C 
ATOM      4  C   UNL     1      -7.181   7.748  67.174  0.00  0.00    +0.174 C 
ATOM      5  C   UNL     1      -5.516   7.809  66.893  0.00  0.00    +0.071 C 
ATOM      6  C   UNL     1      -5.303   6.500  67.792  0.00  0.00    +0.006 C 
ATOM      7  C   UNL     1      -5.144   8.958  68.082  0.00  0.00    +0.158 C 
ATOM      8  O   UNL     1      -4.617   9.826  66.977  0.00  0.00    -0.223 OA
ATOM      9  C   UNL     1      -3.674   8.203  68.407  0.00  0.00    +0.061 C 
ATOM     10  C   UNL     1      -4.194   7.740  69.866  0.00  0.00    +0.005 C 
ATOM     11  C   UNL     1      -2.752   9.445  69.087  0.00  0.00    +0.158 C 
ATOM     12  O   UNL     1      -2.504  10.100  67.751  0.00  0.00    -0.223 OA
ATOM     13  C   UNL     1      -4.008  10.475  69.521  0.00  0.00    +0.053 C 
ATOM     14  C   UNL     1      -4.038  10.087  71.091  0.00  0.00    +0.007 C 
ATOM     15  C   UNL     1      -3.040  11.761  69.819  0.00  0.00    -0.024 C 
ATOM     16  C   UNL     1      -3.432  12.461  68.868  0.00  0.00    -0.005 C 
ATOM     17  C   UNL     1      -4.743  12.624  69.605  0.00  0.00    -0.000 C 
ATOM     18  C   UNL     1      -5.243  13.523  70.233  0.00  0.00    +0.033 C 
ATOM     19  C   UNL     1      -5.845  13.663  71.607  0.00  0.00    +0.036 C 
ATOM     20  C   UNL     1      -4.059  14.329  69.861  0.00  0.00    +0.265 C 
ATOM     21  O   UNL     1      -3.795  15.311  70.678  0.00  0.00    -0.268 OA
ATOM     22  N   UNL     1      -4.314  14.837  68.528  0.00  0.00    -0.171 NA
ATOM     23  C   UNL     1      -5.547  14.556  67.834  0.00  0.00    +0.129 C 
ATOM     24  C   UNL     1      -6.319  15.578  67.380  0.00  0.00    +0.103 C 
ATOM     25  C   UNL     1      -7.796  15.478  67.421  0.00  0.00    +0.094 C 
ATOM     26  C   UNL     1      -8.446  14.174  67.186  0.00  0.00    +0.031 A 
ATOM     27  C   UNL     1      -7.647  13.151  67.715  0.00  0.00    +0.081 A 
ATOM     28  C   UNL     1      -8.197  12.065  68.403  0.00  0.00    +0.198 A 
ATOM     29  C   UNL     1      -9.578  12.190  68.565  0.00  0.00    +0.051 A 
ATOM     30  C   UNL     1     -10.249  12.785  67.490  0.00  0.00    +0.145 A 
ATOM     31  O   UNL     1     -11.238  12.174  66.704  0.00  0.00    -0.443 OA
ATOM     32  C   UNL     1     -11.106  12.454  65.384  0.00  0.00    +0.326 C 
ATOM     33  C   UNL     1     -10.298  13.720  65.460  0.00  0.00    +0.251 C 
ATOM     34  O   UNL     1     -10.682  14.584  64.603  0.00  0.00    -0.284 OA
ATOM     35  C   UNL     1     -12.553  12.739  64.967  0.00  0.00    +0.100 C 
ATOM     36  O   UNL     1     -10.570  11.656  64.452  0.00  0.00    -0.440 OA
ATOM     37  C   UNL     1     -10.112  10.374  64.475  0.00  0.00    +0.174 C 
ATOM     38  C   UNL     1     -10.186  11.133  69.402  0.00  0.00    +0.038 C 
ATOM     39  O   UNL     1      -7.497  10.894  68.650  0.00  0.00    -0.287 OA
ATOM     40  C   UNL     1      -9.708  13.883  66.799  0.00  0.00    +0.077 A 
ATOM     41  N   UNL     1      -8.331  16.620  67.555  0.00  0.00    -0.253 NA
ATOM     42  C   UNL     1      -7.364  17.652  67.314  0.00  0.00    +0.162 C 
ATOM     43  C   UNL     1      -7.480  18.271  65.941  0.00  0.00    +0.060 C 
ATOM     44  C   UNL     1      -6.459  19.401  65.905  0.00  0.00    +0.076 C 
ATOM     45  N   UNL     1      -6.747  20.412  66.915  0.00  0.00    -0.272 NA
ATOM     46  C   UNL     1      -7.971  19.979  67.588  0.00  0.00    +0.076 C 
ATOM     47  C   UNL     1      -7.559  18.722  68.348  0.00  0.00    +0.060 C 
ATOM     48  N   UNL     1      -6.093  16.999  67.383  0.00  0.00    -0.216 NA
ATOM     49  C   UNL     1      -6.163  13.283  67.711  0.00  0.00    +0.215 C 
ATOM     50  O   UNL     1      -5.887  12.450  66.723  0.00  0.00    -0.285 OA
ATOM     51  C   UNL     1      -9.759   9.971  65.668  0.00  0.00    +0.043 C 
ENDROOT
BRANCH   1  53
ATOM     52  C   UNL     1     -10.443   7.949  66.873  0.00  0.00    +0.174 C 
ATOM     53  O   UNL     1      -9.606   8.138  66.986  0.00  0.00    -0.349 OA
ENDBRANCH   1  53
BRANCH   4  54
ATOM     54  O   UNL     1      -7.360   6.832  65.973  0.00  0.00    -0.452 OA
BRANCH  54  55
ATOM     55  C   UNL     1      -7.685   5.525  66.186  0.00  0.00    +0.317 C 
ATOM     56  O   UNL     1      -8.312   5.188  67.208  0.00  0.00    -0.250 OA
ATOM     57  C   UNL     1      -7.130   4.480  65.268  0.00  0.00    +0.121 C 
ENDBRANCH  54  55
ENDBRANCH   4  54
BRANCH  45  58
ATOM     58  C   UNL     1      -5.717  20.345  67.949  0.00  0.00    +0.072 C 
BRANCH  58  59
ATOM     59  C   UNL     1      -4.345  20.132  67.385  0.00  0.00    +0.016 C 
ATOM     60  C   UNL     1      -3.425  19.358  68.280  0.00  0.00    +0.001 C 
ATOM     61  C   UNL     1      -3.731  21.386  66.831  0.00  0.00    +0.001 C 
ENDBRANCH  58  59
ENDBRANCH  45  58
TORSDOF 5
ENDMDL
MODEL 2
REMARK VINA RESULT:      -7.1      4.643      7.557
REMARK  Name = 
REMARK  5 active torsions:
REMARK  status: ('A' for Active; 'I' for Inactive)
REMARK    1  A    between atoms: O_2  and  C_3
REMARK    2  A    between atoms: N_26  and  C_27
REMARK    3  A    between atoms: C_27  and  C_28
REMARK    4  A    between atoms: C_53  and  O_54
REMARK    5  A    between atoms: O_54  and  C_55
REMARK                            x       y       z     vdW  Elec       q    Type
REMARK                         _______ _______ _______ _____ _____    ______ ____
ROOT
ATOM      1  C   UNL     1      -5.705   3.584  68.165  0.00  0.00    +0.144 C 
ATOM      2  C   UNL     1      -6.459   4.339  69.507  0.00  0.00    +0.072 C 
ATOM      3  C   UNL     1      -7.947   4.434  68.916  0.00  0.00    +0.007 C 
ATOM      4  C   UNL     1      -6.790   2.911  70.348  0.00  0.00    +0.174 C 
ATOM      5  C   UNL     1      -6.502   3.557  71.881  0.00  0.00    +0.071 C 
ATOM      6  C   UNL     1      -6.856   2.148  72.556  0.00  0.00    +0.006 C 
ATOM      7  C   UNL     1      -8.017   4.288  72.090  0.00  0.00    +0.158 C 
ATOM      8  O   UNL     1      -7.290   5.595  72.212  0.00  0.00    -0.223 OA
ATOM      9  C   UNL     1      -8.001   3.943  73.738  0.00  0.00    +0.061 C 
ATOM     10  C   UNL     1      -9.205   2.878  73.563  0.00  0.00    +0.005 C 
ATOM     11  C   UNL     1      -9.060   5.093  74.378  0.00  0.00    +0.158 C 
ATOM     12  O   UNL     1      -8.048   6.206  74.259  0.00  0.00    -0.223 OA
ATOM     13  C   UNL     1      -9.876   5.491  72.963  0.00  0.00    +0.053 C 
ATOM     14  C   UNL     1     -11.197   4.602  73.250  0.00  0.00    +0.007 C 
ATOM     15  C   UNL     1     -10.594   6.824  73.583  0.00  0.00    -0.024 C 
ATOM     16  C   UNL     1      -9.975   7.655  72.894  0.00  0.00    -0.005 C 
ATOM     17  C   UNL     1     -10.759   7.159  71.699  0.00  0.00    -0.000 C 
ATOM     18  C   UNL     1     -11.686   7.599  71.067  0.00  0.00    +0.033 C 
ATOM     19  C   UNL     1     -13.034   7.078  70.639  0.00  0.00    +0.036 C 
ATOM     20  C   UNL     1     -11.599   8.798  71.930  0.00  0.00    +0.265 C 
ATOM     21  O   UNL     1     -12.709   9.474  72.031  0.00  0.00    -0.268 OA
ATOM     22  N   UNL     1     -10.552   9.628  71.371  0.00  0.00    -0.171 NA
ATOM     23  C   UNL     1      -9.840   9.246  70.176  0.00  0.00    +0.129 C 
ATOM     24  C   UNL     1      -9.812  10.082  69.105  0.00  0.00    +0.103 C 
ATOM     25  C   UNL     1      -9.858   9.539  67.729  0.00  0.00    +0.094 C 
ATOM     26  C   UNL     1      -9.182   8.262  67.425  0.00  0.00    +0.031 A 
ATOM     27  C   UNL     1      -9.279   7.408  68.532  0.00  0.00    +0.081 A 
ATOM     28  C   UNL     1      -9.539   6.041  68.390  0.00  0.00    +0.198 A 
ATOM     29  C   UNL     1      -9.776   5.686  67.061  0.00  0.00    +0.051 A 
ATOM     30  C   UNL     1      -9.012   6.383  66.117  0.00  0.00    +0.145 A 
ATOM     31  O   UNL     1      -8.087   5.810  65.230  0.00  0.00    -0.443 OA
ATOM     32  C   UNL     1      -6.957   6.548  65.104  0.00  0.00    +0.326 C 
ATOM     33  C   UNL     1      -7.465   7.892  65.546  0.00  0.00    +0.251 C 
ATOM     34  O   UNL     1      -6.993   8.840  64.834  0.00  0.00    -0.284 OA
ATOM     35  C   UNL     1      -6.715   6.514  63.590  0.00  0.00    +0.100 C 
ATOM     36  O   UNL     1      -5.782   6.313  65.702  0.00  0.00    -0.440 OA
ATOM     37  C   UNL     1      -5.323   5.299  66.485  0.00  0.00    +0.174 C 
ATOM     38  C   UNL     1     -10.187   4.278  66.876  0.00  0.00    +0.038 C 
ATOM     39  O   UNL     1      -9.321   5.122  69.405  0.00  0.00    -0.287 OA
ATOM     40  C   UNL     1      -8.754   7.758  66.247  0.00  0.00    +0.077 A 
ATOM     41  N   UNL     1     -10.415  10.352  66.931  0.00  0.00    -0.253 NA
ATOM     42  C   UNL     1     -10.538  11.643  67.545  0.00  0.00    +0.162 C 
ATOM     43  C   UNL     1      -9.490  12.628  67.084  0.00  0.00    +0.060 C 
ATOM     44  C   UNL     1      -9.838  13.952  67.752  0.00  0.00    +0.076 C 
ATOM     45  N   UNL     1     -11.154  14.425  67.343  0.00  0.00    -0.272 NA
ATOM     46  C   UNL     1     -11.660  13.445  66.382  0.00  0.00    +0.076 C 
ATOM     47  C   UNL     1     -11.897  12.187  67.213  0.00  0.00    +0.060 C 
ATOM     48  N   UNL     1     -10.326  11.416  68.942  0.00  0.00    -0.216 NA
ATOM     49  C   UNL     1      -9.279   7.968  69.912  0.00  0.00    +0.215 C 
ATOM     50  O   UNL     1      -8.047   7.645  70.265  0.00  0.00    -0.285 OA
ATOM     51  C   UNL     1      -6.275   4.638  67.090  0.00  0.00    +0.043 C 
ENDROOT
BRANCH   1  53
ATOM     52  C   UNL     1      -6.683   2.226  67.137  0.00  0.00    +0.174 C 
ATOM     53  O   UNL     1      -6.830   2.600  67.905  0.00  0.00    -0.349 OA
ENDBRANCH   1  53
BRANCH   4  54
ATOM     54  O   UNL     1      -5.344   2.449  70.259  0.00  0.00    -0.452 OA
BRANCH  54  55
ATOM     55  C   UNL     1      -5.076   1.114  70.327  0.00  0.00    +0.317 C 
ATOM     56  O   UNL     1      -5.922   0.279  69.958  0.00  0.00    -0.250 OA
ATOM     57  C   UNL     1      -3.823   0.660  71.011  0.00  0.00    +0.121 C 
ENDBRANCH  54  55
ENDBRANCH   4  54
BRANCH  45  58
ATOM     58  C   UNL     1     -12.063  14.320  68.484  0.00  0.00    +0.072 C 
BRANCH  58  59
ATOM     59  C   UNL     1     -11.450  14.818  69.757  0.00  0.00    +0.016 C 
ATOM     60  C   UNL     1     -12.058  14.242  71.000  0.00  0.00    +0.001 C 
ATOM     61  C   UNL     1     -11.300  16.313  69.798  0.00  0.00    +0.001 C 
ENDBRANCH  58  59
ENDBRANCH  45  58
TORSDOF 5
ENDMDL
MODEL 3
REMARK VINA RESULT:      -6.8      4.593      8.105
REMARK  Name = 
REMARK  5 active torsions:
REMARK  status: ('A' for Active; 'I' for Inactive)
REMARK    1  A    between atoms: O_2  and  C_3
REMARK    2  A    between atoms: N_26  and  C_27
REMARK    3  A    between atoms: C_27  and  C_28
REMARK    4  A    between atoms: C_53  and  O_54
REMARK    5  A    between atoms: O_54  and  C_55
REMARK                            x       y       z     vdW  Elec       q    Type
REMARK                         _______ _______ _______ _____ _____    ______ ____
ROOT
ATOM      1  C   UNL     1      -9.406   2.425  71.023  0.00  0.00    +0.144 C 
ATOM      2  C   UNL     1      -9.290   2.908  69.382  0.00  0.00    +0.072 C 
ATOM      3  C   UNL     1      -8.093   3.966  69.535  0.00  0.00    +0.007 C 
ATOM      4  C   UNL     1      -8.247   1.667  68.907  0.00  0.00    +0.174 C 
ATOM      5  C   UNL     1      -8.932   1.458  67.377  0.00  0.00    +0.071 C 
ATOM      6  C   UNL     1      -7.873   0.302  67.045  0.00  0.00    +0.006 C 
ATOM      7  C   UNL     1      -8.119   2.731  66.607  0.00  0.00    +0.158 C 
ATOM      8  O   UNL     1      -9.468   3.322  66.318  0.00  0.00    -0.223 OA
ATOM      9  C   UNL     1      -8.021   1.853  65.173  0.00  0.00    +0.061 C 
ATOM     10  C   UNL     1      -6.418   1.714  65.326  0.00  0.00    +0.005 C 
ATOM     11  C   UNL     1      -7.845   3.057  64.001  0.00  0.00    +0.158 C 
ATOM     12  O   UNL     1      -9.302   3.439  64.061  0.00  0.00    -0.223 OA
ATOM     13  C   UNL     1      -7.328   4.304  65.005  0.00  0.00    +0.053 C 
ATOM     14  C   UNL     1      -5.754   4.192  64.651  0.00  0.00    +0.007 C 
ATOM     15  C   UNL     1      -7.535   5.480  63.887  0.00  0.00    -0.024 C 
ATOM     16  C   UNL     1      -8.480   6.056  64.455  0.00  0.00    -0.005 C 
ATOM     17  C   UNL     1      -7.492   6.514  65.506  0.00  0.00    -0.000 C 
ATOM     18  C   UNL     1      -6.950   7.564  65.743  0.00  0.00    +0.033 C 
ATOM     19  C   UNL     1      -5.526   8.012  65.947  0.00  0.00    +0.036 C 
ATOM     20  C   UNL     1      -7.751   8.132  64.636  0.00  0.00    +0.265 C 
ATOM     21  O   UNL     1      -7.233   9.192  64.082  0.00  0.00    -0.268 OA
ATOM     22  N   UNL     1      -9.054   8.437  65.190  0.00  0.00    -0.171 NA
ATOM     23  C   UNL     1      -9.357   8.211  66.582  0.00  0.00    +0.129 C 
ATOM     24  C   UNL     1      -9.801   9.235  67.357  0.00  0.00    +0.103 C 
ATOM     25  C   UNL     1      -9.381   9.341  68.773  0.00  0.00    +0.094 C 
ATOM     26  C   UNL     1      -9.190   8.114  69.571  0.00  0.00    +0.031 A 
ATOM     27  C   UNL     1      -8.681   7.097  68.751  0.00  0.00    +0.081 A 
ATOM     28  C   UNL     1      -7.680   6.225  69.190  0.00  0.00    +0.198 A 
ATOM     29  C   UNL     1      -7.214   6.558  70.463  0.00  0.00    +0.051 A 
ATOM     30  C   UNL     1      -8.188   7.048  71.341  0.00  0.00    +0.145 A 
ATOM     31  O   UNL     1      -8.573   6.450  72.551  0.00  0.00    -0.443 OA
ATOM     32  C   UNL     1      -9.913   6.484  72.749  0.00  0.00    +0.326 C 
ATOM     33  C   UNL     1     -10.287   7.626  71.846  0.00  0.00    +0.251 C 
ATOM     34  O   UNL     1     -11.177   8.377  72.367  0.00  0.00    -0.284 OA
ATOM     35  C   UNL     1     -10.012   6.886  74.226  0.00  0.00    +0.100 C 
ATOM     36  O   UNL     1     -10.772   5.477  72.550  0.00  0.00    -0.440 OA
ATOM     37  C   UNL     1     -10.610   4.168  72.213  0.00  0.00    +0.174 C 
ATOM     38  C   UNL     1      -6.062   5.747  70.916  0.00  0.00    +0.038 C 
ATOM     39  O   UNL     1      -7.386   5.030  68.551  0.00  0.00    -0.287 OA
ATOM     40  C   UNL     1      -9.191   7.933  70.910  0.00  0.00    +0.077 A 
ATOM     41  N   UNL     1      -9.348  10.549  69.155  0.00  0.00    -0.253 NA
ATOM     42  C   UNL     1     -10.015  11.388  68.202  0.00  0.00    +0.162 C 
ATOM     43  C   UNL     1     -11.413  11.778  68.623  0.00  0.00    +0.060 C 
ATOM     44  C   UNL     1     -11.919  12.740  67.556  0.00  0.00    +0.076 C 
ATOM     45  N   UNL     1     -11.089  13.935  67.479  0.00  0.00    -0.272 NA
ATOM     46  C   UNL     1     -10.065  13.788  68.513  0.00  0.00    +0.076 C 
ATOM     47  C   UNL     1      -9.196  12.633  68.024  0.00  0.00    +0.060 C 
ATOM     48  N   UNL     1     -10.133  10.593  67.018  0.00  0.00    -0.216 NA
ATOM     49  C   UNL     1      -9.073   7.028  67.315  0.00  0.00    +0.215 C 
ATOM     50  O   UNL     1      -9.915   6.012  67.382  0.00  0.00    -0.285 OA
ATOM     51  C   UNL     1      -9.484   3.928  71.593  0.00  0.00    +0.043 C 
ENDROOT
BRANCH   1  53
ATOM     52  C   UNL     1      -7.777   2.220  72.100  0.00  0.00    +0.174 C 
ATOM     53  O   UNL     1      -7.909   2.338  71.252  0.00  0.00    -0.349 OA
ENDBRANCH   1  53
BRANCH   4  54
ATOM     54  O   UNL     1      -9.163   0.594  69.475  0.00  0.00    -0.452 OA
BRANCH  54  55
ATOM     55  C   UNL     1      -8.625  -0.605  69.837  0.00  0.00    +0.317 C 
ATOM     56  O   UNL     1      -7.430  -0.686  70.177  0.00  0.00    -0.250 OA
ATOM     57  C   UNL     1      -9.438  -1.850  69.653  0.00  0.00    +0.121 C 
ENDBRANCH  54  55
ENDBRANCH   4  54
BRANCH  45  58
ATOM     58  C   UNL     1     -10.344  13.906  66.221  0.00  0.00    +0.072 C 
BRANCH  58  59
ATOM     59  C   UNL     1     -11.197  13.512  65.055  0.00  0.00    +0.016 C 
ATOM     60  C   UNL     1     -10.497  12.662  64.039  0.00  0.00    +0.001 C 
ATOM     61  C   UNL     1     -11.953  14.665  64.456  0.00  0.00    +0.001 C 
ENDBRANCH  58  59
ENDBRANCH  45  58
TORSDOF 5
ENDMDL
MODEL 4
REMARK VINA RESULT:      -6.4      3.060      5.363
REMARK  Name = 
REMARK  5 active torsions:
REMARK  status: ('A' for Active; 'I' for Inactive)
REMARK    1  A    between atoms: O_2  and  C_3
REMARK    2  A    between atoms: N_26  and  C_27
REMARK    3  A    between atoms: C_27  and  C_28
REMARK    4  A    between atoms: C_53  and  O_54
REMARK    5  A    between atoms: O_54  and  C_55
REMARK                            x       y       z     vdW  Elec       q    Type
REMARK                         _______ _______ _______ _____ _____    ______ ____
ROOT
ATOM      1  C   UNL     1     -10.188   4.544  70.156  0.00  0.00    +0.144 C 
ATOM      2  C   UNL     1      -9.168   5.171  68.929  0.00  0.00    +0.072 C 
ATOM      3  C   UNL     1      -8.408   6.282  69.802  0.00  0.00    +0.007 C 
ATOM      4  C   UNL     1      -7.930   4.039  69.133  0.00  0.00    +0.174 C 
ATOM      5  C   UNL     1      -7.548   3.921  67.492  0.00  0.00    +0.071 C 
ATOM      6  C   UNL     1      -6.392   2.863  67.824  0.00  0.00    +0.006 C 
ATOM      7  C   UNL     1      -6.568   5.301  67.404  0.00  0.00    +0.158 C 
ATOM      8  O   UNL     1      -7.531   5.833  66.385  0.00  0.00    -0.223 OA
ATOM      9  C   UNL     1      -5.551   4.555  66.288  0.00  0.00    +0.061 C 
ATOM     10  C   UNL     1      -4.348   4.500  67.366  0.00  0.00    +0.005 C 
ATOM     11  C   UNL     1      -4.833   5.863  65.495  0.00  0.00    +0.158 C 
ATOM     12  O   UNL     1      -6.070   6.151  64.682  0.00  0.00    -0.223 OA
ATOM     13  C   UNL     1      -5.140   7.048  66.648  0.00  0.00    +0.053 C 
ATOM     14  C   UNL     1      -3.662   7.062  67.304  0.00  0.00    +0.007 C 
ATOM     15  C   UNL     1      -4.757   8.302  65.668  0.00  0.00    -0.024 C 
ATOM     16  C   UNL     1      -5.906   8.769  65.575  0.00  0.00    -0.005 C 
ATOM     17  C   UNL     1      -5.786   9.194  67.023  0.00  0.00    -0.000 C 
ATOM     18  C   UNL     1      -5.599  10.251  67.570  0.00  0.00    +0.033 C 
ATOM     19  C   UNL     1      -4.627  10.764  68.601  0.00  0.00    +0.036 C 
ATOM     20  C   UNL     1      -5.636  10.862  66.223  0.00  0.00    +0.265 C 
ATOM     21  O   UNL     1      -4.999  11.995  66.125  0.00  0.00    -0.268 OA
ATOM     22  N   UNL     1      -7.036  11.041  65.896  0.00  0.00    -0.171 NA
ATOM     23  C   UNL     1      -8.082  10.679  66.821  0.00  0.00    +0.129 C 
ATOM     24  C   UNL     1      -8.998  11.605  67.208  0.00  0.00    +0.103 C 
ATOM     25  C   UNL     1      -9.514  11.615  68.595  0.00  0.00    +0.094 C 
ATOM     26  C   UNL     1      -9.715  10.338  69.309  0.00  0.00    +0.031 A 
ATOM     27  C   UNL     1      -8.720   9.428  68.924  0.00  0.00    +0.081 A 
ATOM     28  C   UNL     1      -8.096   8.583  69.847  0.00  0.00    +0.198 A 
ATOM     29  C   UNL     1      -8.513   8.833  71.156  0.00  0.00    +0.051 A 
ATOM     30  C   UNL     1      -9.861   9.188  71.290  0.00  0.00    +0.145 A 
ATOM     31  O   UNL     1     -10.828   8.468  72.009  0.00  0.00    -0.443 OA
ATOM     32  C   UNL     1     -12.019   8.404  71.365  0.00  0.00    +0.326 C 
ATOM     33  C   UNL     1     -11.893   9.595  70.455  0.00  0.00    +0.251 C 
ATOM     34  O   UNL     1     -12.988  10.244  70.363  0.00  0.00    -0.284 OA
ATOM     35  C   UNL     1     -13.014   8.672  72.500  0.00  0.00    +0.100 C 
ATOM     36  O   UNL     1     -12.487   7.368  70.658  0.00  0.00    -0.440 OA
ATOM     37  C   UNL     1     -12.028   6.105  70.443  0.00  0.00    +0.174 C 
ATOM     38  C   UNL     1      -7.783   8.057  72.181  0.00  0.00    +0.038 C 
ATOM     39  O   UNL     1      -7.364   7.466  69.473  0.00  0.00    -0.287 OA
ATOM     40  C   UNL     1     -10.493  10.044  70.373  0.00  0.00    +0.077 A 
ATOM     41  N   UNL     1      -9.834  12.787  68.960  0.00  0.00    -0.253 NA
ATOM     42  C   UNL     1      -9.884  13.662  67.825  0.00  0.00    +0.162 C 
ATOM     43  C   UNL     1     -11.288  13.931  67.337  0.00  0.00    +0.060 C 
ATOM     44  C   UNL     1     -11.153  14.948  66.211  0.00  0.00    +0.076 C 
ATOM     45  N   UNL     1     -10.563  16.193  66.686  0.00  0.00    -0.272 NA
ATOM     46  C   UNL     1     -10.345  16.020  68.122  0.00  0.00    +0.076 C 
ATOM     47  C   UNL     1      -9.247  14.965  68.214  0.00  0.00    +0.060 C 
ATOM     48  N   UNL     1      -9.196  12.966  66.782  0.00  0.00    -0.216 NA
ATOM     49  C   UNL     1      -8.174   9.457  67.539  0.00  0.00    +0.215 C 
ATOM     50  O   UNL     1      -8.786   8.391  67.055  0.00  0.00    -0.285 OA
ATOM     51  C   UNL     1     -10.737   5.985  70.614  0.00  0.00    +0.043 C 
ENDROOT
BRANCH   1  53
ATOM     52  C   UNL     1      -9.507   4.349  71.988  0.00  0.00    +0.174 C 
ATOM     53  O   UNL     1      -9.121   4.528  71.233  0.00  0.00    -0.349 OA
ENDBRANCH   1  53
BRANCH   4  54
ATOM     54  O   UNL     1      -8.894   2.869  69.004  0.00  0.00    -0.452 OA
BRANCH  54  55
ATOM     55  C   UNL     1      -8.562   1.678  69.579  0.00  0.00    +0.317 C 
ATOM     56  O   UNL     1      -7.794   1.641  70.558  0.00  0.00    -0.250 OA
ATOM     57  C   UNL     1      -8.989   0.407  68.912  0.00  0.00    +0.121 C 
ENDBRANCH  54  55
ENDBRANCH   4  54
BRANCH  45  58
ATOM     58  C   UNL     1      -9.219  16.316  66.125  0.00  0.00    +0.072 C 
BRANCH  58  59
ATOM     59  C   UNL     1      -8.548  17.599  66.509  0.00  0.00    +0.016 C 
ATOM     60  C   UNL     1      -9.310  18.831  66.125  0.00  0.00    +0.001 C 
ATOM     61  C   UNL     1      -7.096  17.647  66.125  0.00  0.00    +0.001 C 
ENDBRANCH  58  59
ENDBRANCH  45  58
TORSDOF 5
ENDMDL
MODEL 5
REMARK VINA RESULT:      -6.3      5.353     10.613
REMARK  Name = 
REMARK  5 active torsions:
REMARK  status: ('A' for Active; 'I' for Inactive)
REMARK    1  A    between atoms: O_2  and  C_3
REMARK    2  A    between atoms: N_26  and  C_27
REMARK    3  A    between atoms: C_27  and  C_28
REMARK    4  A    between atoms: C_53  and  O_54
REMARK    5  A    between atoms: O_54  and  C_55
REMARK                            x       y       z     vdW  Elec       q    Type
REMARK                         _______ _______ _______ _____ _____    ______ ____
ROOT
ATOM      1  C   UNL     1     -10.827  11.794  66.416  0.00  0.00    +0.144 C 
ATOM      2  C   UNL     1     -10.915  10.325  67.295  0.00  0.00    +0.072 C 
ATOM      3  C   UNL     1      -9.356   9.948  67.277  0.00  0.00    +0.007 C 
ATOM      4  C   UNL     1     -10.816  11.031  68.827  0.00  0.00    +0.174 C 
ATOM      5  C   UNL     1     -11.885   9.954  69.570  0.00  0.00    +0.071 C 
ATOM      6  C   UNL     1     -11.690  10.707  70.971  0.00  0.00    +0.006 C 
ATOM      7  C   UNL     1     -10.772   8.703  69.835  0.00  0.00    +0.158 C 
ATOM      8  O   UNL     1     -11.653   7.836  68.983  0.00  0.00    -0.223 OA
ATOM      9  C   UNL     1     -11.514   8.300  71.292  0.00  0.00    +0.061 C 
ATOM     10  C   UNL     1     -10.230   8.812  72.129  0.00  0.00    +0.005 C 
ATOM     11  C   UNL     1     -11.063   6.687  71.514  0.00  0.00    +0.158 C 
ATOM     12  O   UNL     1     -12.049   6.188  70.487  0.00  0.00    -0.223 OA
ATOM     13  C   UNL     1      -9.743   6.654  70.473  0.00  0.00    +0.053 C 
ATOM     14  C   UNL     1      -8.601   6.783  71.611  0.00  0.00    +0.007 C 
ATOM     15  C   UNL     1      -9.606   5.024  70.469  0.00  0.00    -0.024 C 
ATOM     16  C   UNL     1      -9.940   4.853  69.282  0.00  0.00    -0.005 C 
ATOM     17  C   UNL     1      -8.621   5.480  68.884  0.00  0.00    -0.000 C 
ATOM     18  C   UNL     1      -7.581   5.042  68.462  0.00  0.00    +0.033 C 
ATOM     19  C   UNL     1      -6.132   5.158  68.858  0.00  0.00    +0.036 C 
ATOM     20  C   UNL     1      -8.239   3.716  68.454  0.00  0.00    +0.265 C 
ATOM     21  O   UNL     1      -7.420   2.705  68.532  0.00  0.00    -0.268 OA
ATOM     22  N   UNL     1      -9.007   3.650  67.227  0.00  0.00    -0.171 NA
ATOM     23  C   UNL     1      -9.006   4.733  66.274  0.00  0.00    +0.129 C 
ATOM     24  C   UNL     1      -8.646   4.503  64.984  0.00  0.00    +0.103 C 
ATOM     25  C   UNL     1      -7.878   5.517  64.227  0.00  0.00    +0.094 C 
ATOM     26  C   UNL     1      -8.136   6.951  64.460  0.00  0.00    +0.031 A 
ATOM     27  C   UNL     1      -8.450   7.156  65.811  0.00  0.00    +0.081 A 
ATOM     28  C   UNL     1      -7.958   8.253  66.526  0.00  0.00    +0.198 A 
ATOM     29  C   UNL     1      -7.073   9.021  65.767  0.00  0.00    +0.051 A 
ATOM     30  C   UNL     1      -7.393   9.123  64.408  0.00  0.00    +0.145 A 
ATOM     31  O   UNL     1      -7.695  10.312  63.726  0.00  0.00    -0.443 OA
ATOM     32  C   UNL     1      -8.725  10.170  62.857  0.00  0.00    +0.326 C 
ATOM     33  C   UNL     1      -8.688   8.683  62.640  0.00  0.00    +0.251 C 
ATOM     34  O   UNL     1      -8.900   8.372  61.421  0.00  0.00    -0.284 OA
ATOM     35  C   UNL     1      -8.215  10.927  61.624  0.00  0.00    +0.100 C 
ATOM     36  O   UNL     1      -9.995  10.545  63.060  0.00  0.00    -0.440 OA
ATOM     37  C   UNL     1     -10.616  11.224  64.063  0.00  0.00    +0.174 C 
ATOM     38  C   UNL     1      -6.422  10.114  66.521  0.00  0.00    +0.038 C 
ATOM     39  O   UNL     1      -8.492   8.666  67.736  0.00  0.00    -0.287 OA
ATOM     40  C   UNL     1      -7.879   8.024  63.679  0.00  0.00    +0.077 A 
ATOM     41  N   UNL     1      -7.136   4.975  63.354  0.00  0.00    -0.253 NA
ATOM     42  C   UNL     1      -7.506   3.601  63.172  0.00  0.00    +0.162 C 
ATOM     43  C   UNL     1      -8.343   3.365  61.937  0.00  0.00    +0.060 C 
ATOM     44  C   UNL     1      -8.549   1.858  61.852  0.00  0.00    +0.076 C 
ATOM     45  N   UNL     1      -7.280   1.155  61.714  0.00  0.00    -0.272 NA
ATOM     46  C   UNL     1      -6.244   2.186  61.667  0.00  0.00    +0.076 C 
ATOM     47  C   UNL     1      -6.247   2.790  63.068  0.00  0.00    +0.060 C 
ATOM     48  N   UNL     1      -8.316   3.277  64.306  0.00  0.00    -0.216 NA
ATOM     49  C   UNL     1      -9.183   6.109  66.576  0.00  0.00    +0.215 C 
ATOM     50  O   UNL     1     -10.373   6.682  66.618  0.00  0.00    -0.285 OA
ATOM     51  C   UNL     1      -9.977  11.165  65.202  0.00  0.00    +0.043 C 
ENDROOT
BRANCH   1  53
ATOM     52  C   UNL     1      -9.278  12.976  66.662  0.00  0.00    +0.174 C 
ATOM     53  O   UNL     1      -9.583  12.305  67.117  0.00  0.00    -0.349 OA
ENDBRANCH   1  53
BRANCH   4  54
ATOM     54  O   UNL     1     -11.964  11.983  68.531  0.00  0.00    -0.452 OA
BRANCH  54  55
ATOM     55  C   UNL     1     -11.976  13.205  69.137  0.00  0.00    +0.317 C 
ATOM     56  O   UNL     1     -12.063  13.297  70.375  0.00  0.00    -0.250 OA
ATOM     57  C   UNL     1     -12.061  14.435  68.286  0.00  0.00    +0.121 C 
ENDBRANCH  54  55
ENDBRANCH   4  54
BRANCH  45  58
ATOM     58  C   UNL     1      -7.014   0.426  62.953  0.00  0.00    +0.072 C 
BRANCH  58  59
ATOM     59  C   UNL     1      -8.208  -0.333  63.445  0.00  0.00    +0.016 C 
ATOM     60  C   UNL     1      -8.393  -0.294  64.931  0.00  0.00    +0.001 C 
ATOM     61  C   UNL     1      -8.315  -1.714  62.861  0.00  0.00    +0.001 C 
ENDBRANCH  58  59
ENDBRANCH  45  58
TORSDOF 5
ENDMDL
MODEL 6
REMARK VINA RESULT:      -6.3      3.219      6.966
REMARK  Name = 
REMARK  5 active torsions:
REMARK  status: ('A' for Active; 'I' for Inactive)
REMARK    1  A    between atoms: O_2  and  C_3
REMARK    2  A    between atoms: N_26  and  C_27
REMARK    3  A    between atoms: C_27  and  C_28
REMARK    4  A    between atoms: C_53  and  O_54
REMARK    5  A    between atoms: O_54  and  C_55
REMARK                            x       y       z     vdW  Elec       q    Type
REMARK                         _______ _______ _______ _____ _____    ______ ____
ROOT
ATOM      1  C   UNL     1      -6.072   6.939  73.470  0.00  0.00    +0.144 C 
ATOM      2  C   UNL     1      -7.229   7.106  72.215  0.00  0.00    +0.072 C 
ATOM      3  C   UNL     1      -6.230   7.521  71.030  0.00  0.00    +0.007 C 
ATOM      4  C   UNL     1      -7.231   5.479  71.761  0.00  0.00    +0.174 C 
ATOM      5  C   UNL     1      -8.884   5.410  71.419  0.00  0.00    +0.071 C 
ATOM      6  C   UNL     1      -8.746   3.869  71.001  0.00  0.00    +0.006 C 
ATOM      7  C   UNL     1      -8.804   6.070  69.860  0.00  0.00    +0.158 C 
ATOM      8  O   UNL     1      -9.703   7.164  70.355  0.00  0.00    -0.223 OA
ATOM      9  C   UNL     1     -10.049   5.068  69.329  0.00  0.00    +0.061 C 
ATOM     10  C   UNL     1      -9.031   4.242  68.385  0.00  0.00    +0.005 C 
ATOM     11  C   UNL     1     -10.668   5.904  67.998  0.00  0.00    +0.158 C 
ATOM     12  O   UNL     1     -11.390   6.907  68.863  0.00  0.00    -0.223 OA
ATOM     13  C   UNL     1      -9.346   6.899  67.696  0.00  0.00    +0.053 C 
ATOM     14  C   UNL     1      -8.744   6.046  66.461  0.00  0.00    +0.007 C 
ATOM     15  C   UNL     1     -10.147   7.890  66.670  0.00  0.00    -0.024 C 
ATOM     16  C   UNL     1     -10.134   8.897  67.400  0.00  0.00    -0.005 C 
ATOM     17  C   UNL     1      -8.645   8.989  67.145  0.00  0.00    -0.000 C 
ATOM     18  C   UNL     1      -7.957   9.703  66.461  0.00  0.00    +0.033 C 
ATOM     19  C   UNL     1      -6.896   9.482  65.414  0.00  0.00    +0.036 C 
ATOM     20  C   UNL     1      -9.200  10.425  66.110  0.00  0.00    +0.265 C 
ATOM     21  O   UNL     1      -9.154  11.059  64.971  0.00  0.00    -0.268 OA
ATOM     22  N   UNL     1      -9.451  11.353  67.193  0.00  0.00    -0.171 NA
ATOM     23  C   UNL     1      -8.554  11.466  68.317  0.00  0.00    +0.129 C 
ATOM     24  C   UNL     1      -8.007  12.669  68.633  0.00  0.00    +0.103 C 
ATOM     25  C   UNL     1      -6.617  12.753  69.134  0.00  0.00    +0.094 C 
ATOM     26  C   UNL     1      -6.089  11.684  70.004  0.00  0.00    +0.031 A 
ATOM     27  C   UNL     1      -6.633  10.452  69.614  0.00  0.00    +0.081 A 
ATOM     28  C   UNL     1      -5.864   9.286  69.567  0.00  0.00    +0.198 A 
ATOM     29  C   UNL     1      -4.519   9.531  69.853  0.00  0.00    +0.051 A 
ATOM     30  C   UNL     1      -4.290  10.515  70.823  0.00  0.00    +0.145 A 
ATOM     31  O   UNL     1      -3.652  10.314  72.057  0.00  0.00    -0.443 OA
ATOM     32  C   UNL     1      -4.258  10.973  73.074  0.00  0.00    +0.326 C 
ATOM     33  C   UNL     1      -4.990  12.037  72.303  0.00  0.00    +0.251 C 
ATOM     34  O   UNL     1      -4.951  13.168  72.893  0.00  0.00    -0.284 OA
ATOM     35  C   UNL     1      -3.064  11.560  73.836  0.00  0.00    +0.100 C 
ATOM     36  O   UNL     1      -5.092  10.446  73.979  0.00  0.00    -0.440 OA
ATOM     37  C   UNL     1      -5.502   9.174  74.237  0.00  0.00    +0.174 C 
ATOM     38  C   UNL     1      -3.641   8.353  69.685  0.00  0.00    +0.038 C 
ATOM     39  O   UNL     1      -6.418   8.017  69.508  0.00  0.00    -0.287 OA
ATOM     40  C   UNL     1      -5.053  11.694  70.872  0.00  0.00    +0.077 A 
ATOM     41  N   UNL     1      -6.076  13.854  68.812  0.00  0.00    -0.253 NA
ATOM     42  C   UNL     1      -7.071  14.776  68.344  0.00  0.00    +0.162 C 
ATOM     43  C   UNL     1      -7.468  15.804  69.377  0.00  0.00    +0.060 C 
ATOM     44  C   UNL     1      -8.439  16.747  68.678  0.00  0.00    +0.076 C 
ATOM     45  N   UNL     1      -7.809  17.418  67.548  0.00  0.00    -0.272 NA
ATOM     46  C   UNL     1      -6.421  16.958  67.522  0.00  0.00    +0.076 C 
ATOM     47  C   UNL     1      -6.519  15.484  67.141  0.00  0.00    +0.060 C 
ATOM     48  N   UNL     1      -8.226  13.976  68.072  0.00  0.00    -0.216 NA
ATOM     49  C   UNL     1      -8.018  10.386  69.067  0.00  0.00    +0.215 C 
ATOM     50  O   UNL     1      -8.630   9.877  70.122  0.00  0.00    -0.285 OA
ATOM     51  C   UNL     1      -5.393   8.375  73.208  0.00  0.00    +0.043 C 
ENDROOT
BRANCH   1  53
ATOM     52  C   UNL     1      -4.313   6.158  73.081  0.00  0.00    +0.174 C 
ATOM     53  O   UNL     1      -5.044   6.217  72.620  0.00  0.00    -0.349 OA
ENDBRANCH   1  53
BRANCH   4  54
ATOM     54  O   UNL     1      -7.496   5.017  73.186  0.00  0.00    -0.452 OA
BRANCH  54  55
ATOM     55  C   UNL     1      -7.121   3.756  73.548  0.00  0.00    +0.317 C 
ATOM     56  O   UNL     1      -6.168   3.192  72.981  0.00  0.00    -0.250 OA
ATOM     57  C   UNL     1      -7.978   2.994  74.511  0.00  0.00    +0.121 C 
ENDBRANCH  54  55
ENDBRANCH   4  54
BRANCH  45  58
ATOM     58  C   UNL     1      -8.391  16.898  66.313  0.00  0.00    +0.072 C 
BRANCH  58  59
ATOM     59  C   UNL     1      -9.889  16.926  66.323  0.00  0.00    +0.016 C 
ATOM     60  C   UNL     1     -10.531  15.810  65.557  0.00  0.00    +0.001 C 
ATOM     61  C   UNL     1     -10.458  18.280  66.003  0.00  0.00    +0.001 C 
ENDBRANCH  58  59
ENDBRANCH  45  58
TORSDOF 5
ENDMDL
MODEL 7
REMARK VINA RESULT:      -5.9      5.717      8.513
REMARK  Name = 
REMARK  5 active torsions:
REMARK  status: ('A' for Active; 'I' for Inactive)
REMARK    1  A    between atoms: O_2  and  C_3
REMARK    2  A    between atoms: N_26  and  C_27
REMARK    3  A    between atoms: C_27  and  C_28
REMARK    4  A    between atoms: C_53  and  O_54
REMARK    5  A    between atoms: O_54  and  C_55
REMARK                            x       y       z     vdW  Elec       q    Type
REMARK                         _______ _______ _______ _____ _____    ______ ____
ROOT
ATOM      1  C   UNL     1     -11.188   6.104  72.191  0.00  0.00    +0.144 C 
ATOM      2  C   UNL     1     -10.342   5.157  71.039  0.00  0.00    +0.072 C 
ATOM      3  C   UNL     1      -9.047   6.090  70.876  0.00  0.00    +0.007 C 
ATOM      4  C   UNL     1      -9.582   4.150  72.164  0.00  0.00    +0.174 C 
ATOM      5  C   UNL     1      -9.678   2.753  71.220  0.00  0.00    +0.071 C 
ATOM      6  C   UNL     1      -8.933   1.913  72.363  0.00  0.00    +0.006 C 
ATOM      7  C   UNL     1      -8.321   3.060  70.252  0.00  0.00    +0.158 C 
ATOM      8  O   UNL     1      -9.247   3.032  69.071  0.00  0.00    -0.223 OA
ATOM      9  C   UNL     1      -7.942   1.420  70.194  0.00  0.00    +0.061 C 
ATOM     10  C   UNL     1      -6.616   1.658  71.087  0.00  0.00    +0.005 C 
ATOM     11  C   UNL     1      -7.019   1.292  68.785  0.00  0.00    +0.158 C 
ATOM     12  O   UNL     1      -8.228   1.388  67.890  0.00  0.00    -0.223 OA
ATOM     13  C   UNL     1      -6.592   2.911  68.623  0.00  0.00    +0.053 C 
ATOM     14  C   UNL     1      -5.095   2.772  69.220  0.00  0.00    +0.007 C 
ATOM     15  C   UNL     1      -6.035   2.757  67.092  0.00  0.00    -0.024 C 
ATOM     16  C   UNL     1      -6.926   3.432  66.546  0.00  0.00    -0.005 C 
ATOM     17  C   UNL     1      -6.315   4.655  67.194  0.00  0.00    -0.000 C 
ATOM     18  C   UNL     1      -5.635   5.563  66.789  0.00  0.00    +0.033 C 
ATOM     19  C   UNL     1      -4.324   6.184  67.199  0.00  0.00    +0.036 C 
ATOM     20  C   UNL     1      -5.777   4.961  65.445  0.00  0.00    +0.265 C 
ATOM     21  O   UNL     1      -4.820   5.264  64.613  0.00  0.00    -0.268 OA
ATOM     22  N   UNL     1      -7.054   5.410  64.930  0.00  0.00    -0.171 NA
ATOM     23  C   UNL     1      -7.903   6.302  65.682  0.00  0.00    +0.129 C 
ATOM     24  C   UNL     1      -8.302   7.481  65.138  0.00  0.00    +0.103 C 
ATOM     25  C   UNL     1      -8.428   8.692  65.980  0.00  0.00    +0.094 C 
ATOM     26  C   UNL     1      -8.893   8.565  67.376  0.00  0.00    +0.031 A 
ATOM     27  C   UNL     1      -8.416   7.365  67.920  0.00  0.00    +0.081 A 
ATOM     28  C   UNL     1      -7.931   7.288  69.229  0.00  0.00    +0.198 A 
ATOM     29  C   UNL     1      -7.900   8.537  69.852  0.00  0.00    +0.051 A 
ATOM     30  C   UNL     1      -8.956   9.393  69.517  0.00  0.00    +0.145 A 
ATOM     31  O   UNL     1      -9.911   9.903  70.409  0.00  0.00    -0.443 OA
ATOM     32  C   UNL     1     -11.163   9.903  69.892  0.00  0.00    +0.326 C 
ATOM     33  C   UNL     1     -10.845   9.871  68.423  0.00  0.00    +0.251 C 
ATOM     34  O   UNL     1     -11.622  10.627  67.749  0.00  0.00    -0.284 OA
ATOM     35  C   UNL     1     -11.690  11.278  70.319  0.00  0.00    +0.100 C 
ATOM     36  O   UNL     1     -12.128   9.009  70.144  0.00  0.00    -0.440 OA
ATOM     37  C   UNL     1     -12.219   7.953  70.998  0.00  0.00    +0.174 C 
ATOM     38  C   UNL     1      -7.270   8.529  71.191  0.00  0.00    +0.038 C 
ATOM     39  O   UNL     1      -7.762   6.088  69.903  0.00  0.00    -0.287 OA
ATOM     40  C   UNL     1      -9.442   9.484  68.201  0.00  0.00    +0.077 A 
ATOM     41  N   UNL     1      -8.208   9.745  65.309  0.00  0.00    -0.253 NA
ATOM     42  C   UNL     1      -8.215   9.448  63.906  0.00  0.00    +0.162 C 
ATOM     43  C   UNL     1      -9.504   9.835  63.218  0.00  0.00    +0.060 C 
ATOM     44  C   UNL     1      -9.291   9.548  61.737  0.00  0.00    +0.076 C 
ATOM     45  N   UNL     1      -8.197  10.342  61.192  0.00  0.00    -0.272 NA
ATOM     46  C   UNL     1      -7.715  11.180  62.290  0.00  0.00    +0.076 C 
ATOM     47  C   UNL     1      -7.080  10.195  63.267  0.00  0.00    +0.060 C 
ATOM     48  N   UNL     1      -8.097   8.025  63.822  0.00  0.00    -0.216 NA
ATOM     49  C   UNL     1      -8.249   6.165  67.053  0.00  0.00    +0.215 C 
ATOM     50  O   UNL     1      -9.300   5.473  67.456  0.00  0.00    -0.285 OA
ATOM     51  C   UNL     1     -11.056   7.471  71.353  0.00  0.00    +0.043 C 
ENDROOT
BRANCH   1  53
ATOM     52  C   UNL     1     -10.207   6.999  73.637  0.00  0.00    +0.174 C 
ATOM     53  O   UNL     1      -9.970   6.420  73.038  0.00  0.00    -0.349 OA
ENDBRANCH   1  53
BRANCH   4  54
ATOM     54  O   UNL     1     -10.900   3.800  72.836  0.00  0.00    -0.452 OA
BRANCH  54  55
ATOM     55  C   UNL     1     -10.876   3.106  74.009  0.00  0.00    +0.317 C 
ATOM     56  O   UNL     1     -11.536   2.059  74.139  0.00  0.00    -0.250 OA
ATOM     57  C   UNL     1     -10.187   3.710  75.194  0.00  0.00    +0.121 C 
ENDBRANCH  54  55
ENDBRANCH   4  54
BRANCH  45  58
ATOM     58  C   UNL     1      -7.078   9.452  60.893  0.00  0.00    +0.072 C 
BRANCH  58  59
ATOM     59  C   UNL     1      -7.524   8.098  60.434  0.00  0.00    +0.016 C 
ATOM     60  C   UNL     1      -6.580   6.987  60.783  0.00  0.00    +0.001 C 
ATOM     61  C   UNL     1      -7.974   8.076  59.000  0.00  0.00    +0.001 C 
ENDBRANCH  58  59
ENDBRANCH  45  58
TORSDOF 5
ENDMDL
MODEL 8
REMARK VINA RESULT:      -5.8      3.902      7.543
REMARK  Name = 
REMARK  5 active torsions:
REMARK  status: ('A' for Active; 'I' for Inactive)
REMARK    1  A    between atoms: O_2  and  C_3
REMARK    2  A    between atoms: N_26  and  C_27
REMARK    3  A    between atoms: C_27  and  C_28
REMARK    4  A    between atoms: C_53  and  O_54
REMARK    5  A    between atoms: O_54  and  C_55
REMARK                            x       y       z     vdW  Elec       q    Type
REMARK                         _______ _______ _______ _____ _____    ______ ____
ROOT
ATOM      1  C   UNL     1      -6.898   6.231  74.606  0.00  0.00    +0.144 C 
ATOM      2  C   UNL     1      -7.798   6.612  73.198  0.00  0.00    +0.072 C 
ATOM      3  C   UNL     1      -6.574   6.764  72.172  0.00  0.00    +0.007 C 
ATOM      4  C   UNL     1      -8.096   5.013  72.741  0.00  0.00    +0.174 C 
ATOM      5  C   UNL     1      -9.657   5.299  72.163  0.00  0.00    +0.071 C 
ATOM      6  C   UNL     1      -9.806   3.754  71.763  0.00  0.00    +0.006 C 
ATOM      7  C   UNL     1      -9.212   5.881  70.635  0.00  0.00    +0.158 C 
ATOM      8  O   UNL     1      -9.908   7.160  70.999  0.00  0.00    -0.223 OA
ATOM      9  C   UNL     1     -10.559   5.163  69.925  0.00  0.00    +0.061 C 
ATOM     10  C   UNL     1      -9.625   4.107  69.135  0.00  0.00    +0.005 C 
ATOM     11  C   UNL     1     -10.782   6.076  68.521  0.00  0.00    +0.158 C 
ATOM     12  O   UNL     1     -11.379   7.237  69.277  0.00  0.00    -0.223 OA
ATOM     13  C   UNL     1      -9.244   6.749  68.419  0.00  0.00    +0.053 C 
ATOM     14  C   UNL     1      -8.676   5.750  67.281  0.00  0.00    +0.007 C 
ATOM     15  C   UNL     1      -9.651   7.862  67.291  0.00  0.00    -0.024 C 
ATOM     16  C   UNL     1      -9.519   8.862  68.020  0.00  0.00    -0.005 C 
ATOM     17  C   UNL     1      -8.026   8.618  67.985  0.00  0.00    -0.000 C 
ATOM     18  C   UNL     1      -7.107   9.143  67.410  0.00  0.00    +0.033 C 
ATOM     19  C   UNL     1      -5.983   8.666  66.527  0.00  0.00    +0.036 C 
ATOM     20  C   UNL     1      -8.096  10.111  66.886  0.00  0.00    +0.265 C 
ATOM     21  O   UNL     1      -7.750  10.687  65.768  0.00  0.00    -0.268 OA
ATOM     22  N   UNL     1      -8.288  11.101  67.925  0.00  0.00    -0.171 NA
ATOM     23  C   UNL     1      -7.558  11.046  69.168  0.00  0.00    +0.129 C 
ATOM     24  C   UNL     1      -6.809  12.108  69.565  0.00  0.00    +0.103 C 
ATOM     25  C   UNL     1      -5.520  11.899  70.262  0.00  0.00    +0.094 C 
ATOM     26  C   UNL     1      -5.371  10.764  71.196  0.00  0.00    +0.031 A 
ATOM     27  C   UNL     1      -6.113   9.672  70.725  0.00  0.00    +0.081 A 
ATOM     28  C   UNL     1      -5.622   8.364  70.785  0.00  0.00    +0.198 A 
ATOM     29  C   UNL     1      -4.312   8.317  71.265  0.00  0.00    +0.051 A 
ATOM     30  C   UNL     1      -4.011   9.252  72.262  0.00  0.00    +0.145 A 
ATOM     31  O   UNL     1      -3.615   8.951  73.574  0.00  0.00    -0.443 OA
ATOM     32  C   UNL     1      -4.199   9.755  74.495  0.00  0.00    +0.326 C 
ATOM     33  C   UNL     1      -4.561  10.932  73.630  0.00  0.00    +0.251 C 
ATOM     34  O   UNL     1      -4.357  12.042  74.225  0.00  0.00    -0.284 OA
ATOM     35  C   UNL     1      -3.026  10.087  75.425  0.00  0.00    +0.100 C 
ATOM     36  O   UNL     1      -5.249   9.449  75.267  0.00  0.00    -0.440 OA
ATOM     37  C   UNL     1      -5.963   8.306  75.458  0.00  0.00    +0.174 C 
ATOM     38  C   UNL     1      -3.701   6.970  71.220  0.00  0.00    +0.038 C 
ATOM     39  O   UNL     1      -6.430   7.247  70.641  0.00  0.00    -0.287 OA
ATOM     40  C   UNL     1      -4.493  10.572  72.204  0.00  0.00    +0.077 A 
ATOM     41  N   UNL     1      -4.709  12.845  70.027  0.00  0.00    -0.253 NA
ATOM     42  C   UNL     1      -5.398  13.949  69.423  0.00  0.00    +0.162 C 
ATOM     43  C   UNL     1      -5.701  15.067  70.393  0.00  0.00    +0.060 C 
ATOM     44  C   UNL     1      -6.330  16.181  69.564  0.00  0.00    +0.076 C 
ATOM     45  N   UNL     1      -5.413  16.666  68.541  0.00  0.00    -0.272 NA
ATOM     46  C   UNL     1      -4.172  15.911  68.713  0.00  0.00    +0.076 C 
ATOM     47  C   UNL     1      -4.538  14.484  68.316  0.00  0.00    +0.060 C 
ATOM     48  N   UNL     1      -6.650  13.415  68.983  0.00  0.00    -0.216 NA
ATOM     49  C   UNL     1      -7.386   9.896  69.983  0.00  0.00    +0.215 C 
ATOM     50  O   UNL     1      -8.239   9.564  70.935  0.00  0.00    -0.285 OA
ATOM     51  C   UNL     1      -5.888   7.474  74.452  0.00  0.00    +0.043 C 
ENDROOT
BRANCH   1  53
ATOM     52  C   UNL     1      -5.323   5.064  74.477  0.00  0.00    +0.174 C 
ATOM     53  O   UNL     1      -5.945   5.277  73.912  0.00  0.00    -0.349 OA
ENDBRANCH   1  53
BRANCH   4  54
ATOM     54  O   UNL     1      -8.656   4.660  74.110  0.00  0.00    -0.452 OA
BRANCH  54  55
ATOM     55  C   UNL     1      -8.636   3.357  74.513  0.00  0.00    +0.317 C 
ATOM     56  O   UNL     1      -7.768   2.576  74.083  0.00  0.00    -0.250 OA
ATOM     57  C   UNL     1      -9.772   2.836  75.339  0.00  0.00    +0.121 C 
ENDBRANCH  54  55
ENDBRANCH   4  54
BRANCH  45  58
ATOM     58  C   UNL     1      -5.913  16.251  67.231  0.00  0.00    +0.072 C 
BRANCH  58  59
ATOM     59  C   UNL     1      -7.227  16.884  66.889  0.00  0.00    +0.016 C 
ATOM     60  C   UNL     1      -8.297  15.909  66.500  0.00  0.00    +0.001 C 
ATOM     61  C   UNL     1      -7.097  18.044  65.942  0.00  0.00    +0.001 C 
ENDBRANCH  58  59
ENDBRANCH  45  58
TORSDOF 5
ENDMDL
MODEL 9
REMARK VINA RESULT:      -5.6      4.741     10.293
REMARK  Name = 
REMARK  5 active torsions:
REMARK  status: ('A' for Active; 'I' for Inactive)
REMARK    1  A    between atoms: O_2  and  C_3
REMARK    2  A    between atoms: N_26  and  C_27
REMARK    3  A    between atoms: C_27  and  C_28
REMARK    4  A    between atoms: C_53  and  O_54
REMARK    5  A    between atoms: O_54  and  C_55
REMARK                            x       y       z     vdW  Elec       q    Type
REMARK                         _______ _______ _______ _____ _____    ______ ____
ROOT
ATOM      1  C   UNL     1      -6.757   6.646  73.057  0.00  0.00    +0.144 C 
ATOM      2  C   UNL     1      -6.344   7.417  71.582  0.00  0.00    +0.072 C 
ATOM      3  C   UNL     1      -7.828   7.666  71.026  0.00  0.00    +0.007 C 
ATOM      4  C   UNL     1      -6.230   8.975  72.225  0.00  0.00    +0.174 C 
ATOM      5  C   UNL     1      -4.929   9.453  71.260  0.00  0.00    +0.071 C 
ATOM      6  C   UNL     1      -4.938  10.903  71.942  0.00  0.00    +0.006 C 
ATOM      7  C   UNL     1      -5.828   9.853  69.879  0.00  0.00    +0.158 C 
ATOM      8  O   UNL     1      -5.033   8.811  69.148  0.00  0.00    -0.223 OA
ATOM      9  C   UNL     1      -4.786  11.127  69.522  0.00  0.00    +0.061 C 
ATOM     10  C   UNL     1      -5.938  12.210  69.855  0.00  0.00    +0.005 C 
ATOM     11  C   UNL     1      -5.007  11.345  67.861  0.00  0.00    +0.158 C 
ATOM     12  O   UNL     1      -4.183  10.130  67.512  0.00  0.00    -0.223 OA
ATOM     13  C   UNL     1      -6.488  10.563  67.706  0.00  0.00    +0.053 C 
ATOM     14  C   UNL     1      -7.402  11.896  67.665  0.00  0.00    +0.007 C 
ATOM     15  C   UNL     1      -6.443  10.499  66.071  0.00  0.00    -0.024 C 
ATOM     16  C   UNL     1      -6.322   9.265  65.977  0.00  0.00    -0.005 C 
ATOM     17  C   UNL     1      -7.753   9.148  66.457  0.00  0.00    -0.000 C 
ATOM     18  C   UNL     1      -8.799   8.902  65.912  0.00  0.00    +0.033 C 
ATOM     19  C   UNL     1     -10.152   9.562  65.845  0.00  0.00    +0.036 C 
ATOM     20  C   UNL     1      -8.013   8.705  64.674  0.00  0.00    +0.265 C 
ATOM     21  O   UNL     1      -8.687   8.880  63.571  0.00  0.00    -0.268 OA
ATOM     22  N   UNL     1      -7.487   7.357  64.735  0.00  0.00    -0.171 NA
ATOM     23  C   UNL     1      -7.786   6.477  65.838  0.00  0.00    +0.129 C 
ATOM     24  C   UNL     1      -8.354   5.265  65.606  0.00  0.00    +0.103 C 
ATOM     25  C   UNL     1      -9.358   4.715  66.545  0.00  0.00    +0.094 C 
ATOM     26  C   UNL     1      -9.220   4.970  67.993  0.00  0.00    +0.031 A 
ATOM     27  C   UNL     1      -8.681   6.249  68.193  0.00  0.00    +0.081 A 
ATOM     28  C   UNL     1      -9.147   7.097  69.202  0.00  0.00    +0.198 A 
ATOM     29  C   UNL     1     -10.239   6.554  69.883  0.00  0.00    +0.051 A 
ATOM     30  C   UNL     1     -10.193   5.166  70.063  0.00  0.00    +0.145 A 
ATOM     31  O   UNL     1     -10.157   4.503  71.300  0.00  0.00    -0.443 OA
ATOM     32  C   UNL     1      -9.299   3.454  71.306  0.00  0.00    +0.326 C 
ATOM     33  C   UNL     1      -9.213   3.171  69.831  0.00  0.00    +0.251 C 
ATOM     34  O   UNL     1      -9.202   1.919  69.584  0.00  0.00    -0.284 OA
ATOM     35  C   UNL     1     -10.111   2.376  72.034  0.00  0.00    +0.100 C 
ATOM     36  O   UNL     1      -8.063   3.440  71.820  0.00  0.00    -0.440 OA
ATOM     37  C   UNL     1      -7.342   4.345  72.537  0.00  0.00    +0.174 C 
ATOM     38  C   UNL     1     -10.851   7.470  70.869  0.00  0.00    +0.038 C 
ATOM     39  O   UNL     1      -8.444   8.209  69.638  0.00  0.00    -0.287 OA
ATOM     40  C   UNL     1      -9.735   4.306  69.051  0.00  0.00    +0.077 A 
ATOM     41  N   UNL     1     -10.188   3.965  65.947  0.00  0.00    -0.253 NA
ATOM     42  C   UNL     1      -9.709   3.649  64.632  0.00  0.00    +0.162 C 
ATOM     43  C   UNL     1      -9.098   2.270  64.534  0.00  0.00    +0.060 C 
ATOM     44  C   UNL     1      -8.749   2.071  63.064  0.00  0.00    +0.076 C 
ATOM     45  N   UNL     1      -9.936   2.133  62.221  0.00  0.00    -0.272 NA
ATOM     46  C   UNL     1     -11.069   2.330  63.125  0.00  0.00    +0.076 C 
ATOM     47  C   UNL     1     -10.868   3.735  63.683  0.00  0.00    +0.060 C 
ATOM     48  N   UNL     1      -8.670   4.596  64.372  0.00  0.00    -0.216 NA
ATOM     49  C   UNL     1      -7.707   6.811  67.216  0.00  0.00    +0.215 C 
ATOM     50  O   UNL     1      -6.601   6.664  67.923  0.00  0.00    -0.285 OA
ATOM     51  C   UNL     1      -7.745   5.578  72.369  0.00  0.00    +0.043 C 
ENDROOT
BRANCH   1  53
ATOM     52  C   UNL     1      -8.298   7.277  74.098  0.00  0.00    +0.174 C 
ATOM     53  O   UNL     1      -7.895   7.589  73.397  0.00  0.00    -0.349 OA
ENDBRANCH   1  53
BRANCH   4  54
ATOM     54  O   UNL     1      -5.269   8.524  73.314  0.00  0.00    -0.452 OA
BRANCH  54  55
ATOM     55  C   UNL     1      -5.175   9.264  74.455  0.00  0.00    +0.317 C 
ATOM     56  O   UNL     1      -6.143   9.937  74.855  0.00  0.00    -0.250 OA
ATOM     57  C   UNL     1      -3.842   9.397  75.125  0.00  0.00    +0.121 C 
ENDBRANCH  54  55
ENDBRANCH   4  54
BRANCH  45  58
ATOM     58  C   UNL     1      -9.883   3.360  61.429  0.00  0.00    +0.072 C 
BRANCH  58  59
ATOM     59  C   UNL     1      -8.541   3.586  60.803  0.00  0.00    +0.016 C 
ATOM     60  C   UNL     1      -8.074   5.009  60.842  0.00  0.00    +0.001 C 
ATOM     61  C   UNL     1      -8.403   2.945  59.450  0.00  0.00    +0.001 C 
ENDBRANCH  58  59
ENDBRANCH  45  58
TORSDOF 5
ENDMDL
