MODEL 1
REMARK VINA RESULT:      -6.8      0.000      0.000
REMARK  Name = 
REMARK  2 active torsions:
REMARK  status: ('A' for Active; 'I' for Inactive)
REMARK    1  A    between atoms: N_6  and  C_7
REMARK    2  A    between atoms: C_7  and  C_8
REMARK                            x       y       z     vdW  Elec       q    Type
REMARK                         _______ _______ _______ _____ _____    ______ ____
ROOT
ATOM      1  C   UNL     1     -11.502  14.615  65.131  0.00  0.00    +0.085 C 
ATOM      2  C   UNL     1     -10.929  16.130  65.125  0.00  0.00    +0.176 C 
ATOM      3  O   UNL     1     -11.445  16.877  64.272  0.00  0.00    -0.291 OA
ATOM      4  C   UNL     1     -10.012  16.517  66.152  0.00  0.00    +0.048 A 
ATOM      5  C   UNL     1      -9.626  17.808  66.512  0.00  0.00    +0.020 A 
ATOM      6  C   UNL     1      -9.256  17.764  67.852  0.00  0.00    +0.060 A 
ATOM      7  N   UNL     1      -8.941  16.462  68.045  0.00  0.00    -0.329 N 
ATOM      8  C   UNL     1      -8.354  15.933  69.254  0.00  0.00    +0.130 C 
ATOM      9  C   UNL     1      -9.214  18.908  68.643  0.00  0.00    +0.017 A 
ATOM     10  C   UNL     1     -10.102  19.911  68.269  0.00  0.00    +0.001 A 
ATOM     11  C   UNL     1     -10.113  20.159  66.901  0.00  0.00    +0.000 A 
ATOM     12  C   UNL     1      -9.970  19.073  66.047  0.00  0.00    +0.002 A 
ATOM     13  C   UNL     1      -9.637  15.674  67.190  0.00  0.00    +0.040 A 
ATOM     14  C   UNL     1     -10.494  14.477  67.472  0.00  0.00    +0.044 C 
ATOM     15  C   UNL     1     -11.774  14.613  66.763  0.00  0.00    +0.016 C 
ENDROOT
BRANCH   1  16
ATOM     16  C   UNL     1      -9.981  13.961  65.222  0.00  0.00    +0.115 C 
BRANCH  16  19
ATOM     17  C   UNL     1      -8.925  11.158  65.746  0.00  0.00    +0.072 C 
ATOM     18  C   UNL     1      -9.940  11.522  64.953  0.00  0.00    +0.121 A 
ATOM     19  N   UNL     1     -10.163  12.750  64.426  0.00  0.00    -0.313 N 
ATOM     20  C   UNL     1     -11.071  12.600  63.432  0.00  0.00    +0.098 A 
ATOM     21  C   UNL     1     -11.616  11.329  63.562  0.00  0.00    +0.119 A 
ATOM     22  N   UNL     1     -10.671  10.633  64.235  0.00  0.00    -0.229 NA
ENDBRANCH  16  19
ENDBRANCH   1  16
TORSDOF 2
ENDMDL
MODEL 2
REMARK VINA RESULT:      -6.8      3.390      5.507
REMARK  Name = 
REMARK  2 active torsions:
REMARK  status: ('A' for Active; 'I' for Inactive)
REMARK    1  A    between atoms: N_6  and  C_7
REMARK    2  A    between atoms: C_7  and  C_8
REMARK                            x       y       z     vdW  Elec       q    Type
REMARK                         _______ _______ _______ _____ _____    ______ ____
ROOT
ATOM      1  C   UNL     1     -11.008  15.419  66.869  0.00  0.00    +0.085 C 
ATOM      2  C   UNL     1     -11.344  15.750  68.420  0.00  0.00    +0.176 C 
ATOM      3  O   UNL     1     -11.595  16.948  68.652  0.00  0.00    -0.291 OA
ATOM      4  C   UNL     1     -11.460  14.661  69.339  0.00  0.00    +0.048 A 
ATOM      5  C   UNL     1     -12.015  14.678  70.620  0.00  0.00    +0.020 A 
ATOM      6  C   UNL     1     -12.467  13.390  70.884  0.00  0.00    +0.060 A 
ATOM      7  N   UNL     1     -11.726  12.623  70.051  0.00  0.00    -0.329 N 
ATOM      8  C   UNL     1     -11.724  11.179  70.055  0.00  0.00    +0.130 C 
ATOM      9  C   UNL     1     -13.422  13.132  71.863  0.00  0.00    +0.017 A 
ATOM     10  C   UNL     1     -14.313  14.172  72.102  0.00  0.00    +0.001 A 
ATOM     11  C   UNL     1     -13.697  15.414  72.214  0.00  0.00    +0.000 A 
ATOM     12  C   UNL     1     -12.609  15.672  71.390  0.00  0.00    +0.002 A 
ATOM     13  C   UNL     1     -11.358  13.331  68.956  0.00  0.00    +0.040 A 
ATOM     14  C   UNL     1     -11.521  13.001  67.503  0.00  0.00    +0.044 C 
ATOM     15  C   UNL     1     -12.080  14.162  66.797  0.00  0.00    +0.016 C 
ENDROOT
BRANCH   1  16
ATOM     16  C   UNL     1      -9.698  14.488  67.275  0.00  0.00    +0.115 C 
BRANCH  16  19
ATOM     17  C   UNL     1      -7.609  14.756  69.470  0.00  0.00    +0.072 C 
ATOM     18  C   UNL     1      -7.610  15.325  68.258  0.00  0.00    +0.121 A 
ATOM     19  N   UNL     1      -8.680  15.522  67.451  0.00  0.00    -0.313 N 
ATOM     20  C   UNL     1      -8.308  16.417  66.505  0.00  0.00    +0.098 A 
ATOM     21  C   UNL     1      -6.925  16.530  66.567  0.00  0.00    +0.119 A 
ATOM     22  N   UNL     1      -6.620  16.146  67.828  0.00  0.00    -0.229 NA
ENDBRANCH  16  19
ENDBRANCH   1  16
TORSDOF 2
ENDMDL
MODEL 3
REMARK VINA RESULT:      -6.7      2.855      4.246
REMARK  Name = 
REMARK  2 active torsions:
REMARK  status: ('A' for Active; 'I' for Inactive)
REMARK    1  A    between atoms: N_6  and  C_7
REMARK    2  A    between atoms: C_7  and  C_8
REMARK                            x       y       z     vdW  Elec       q    Type
REMARK                         _______ _______ _______ _____ _____    ______ ____
ROOT
ATOM      1  C   UNL     1      -9.438  12.365  67.256  0.00  0.00    +0.085 C 
ATOM      2  C   UNL     1     -10.701  12.613  68.241  0.00  0.00    +0.176 C 
ATOM      3  O   UNL     1     -11.221  11.573  68.688  0.00  0.00    -0.291 OA
ATOM      4  C   UNL     1     -11.019  13.955  68.617  0.00  0.00    +0.048 A 
ATOM      5  C   UNL     1     -11.851  14.378  69.655  0.00  0.00    +0.020 A 
ATOM      6  C   UNL     1     -11.410  15.640  70.041  0.00  0.00    +0.060 A 
ATOM      7  N   UNL     1     -10.756  16.090  68.945  0.00  0.00    -0.329 N 
ATOM      8  C   UNL     1     -10.236  17.429  68.796  0.00  0.00    +0.130 C 
ATOM      9  C   UNL     1     -11.722  16.180  71.285  0.00  0.00    +0.017 A 
ATOM     10  C   UNL     1     -11.919  15.246  72.296  0.00  0.00    +0.001 A 
ATOM     11  C   UNL     1     -12.725  14.179  71.915  0.00  0.00    +0.000 A 
ATOM     12  C   UNL     1     -12.598  13.705  70.616  0.00  0.00    +0.002 A 
ATOM     13  C   UNL     1     -10.261  15.052  68.228  0.00  0.00    +0.040 A 
ATOM     14  C   UNL     1      -8.867  14.807  67.735  0.00  0.00    +0.044 C 
ATOM     15  C   UNL     1      -8.466  13.432  68.063  0.00  0.00    +0.016 C 
ENDROOT
BRANCH   1  16
ATOM     16  C   UNL     1      -9.994  13.465  66.147  0.00  0.00    +0.115 C 
BRANCH  16  19
ATOM     17  C   UNL     1     -12.921  14.018  65.532  0.00  0.00    +0.072 C 
ATOM     18  C   UNL     1     -12.096  13.163  64.915  0.00  0.00    +0.121 A 
ATOM     19  N   UNL     1     -10.946  12.640  65.407  0.00  0.00    -0.313 N 
ATOM     20  C   UNL     1     -10.619  11.585  64.623  0.00  0.00    +0.098 A 
ATOM     21  C   UNL     1     -11.410  11.659  63.483  0.00  0.00    +0.119 A 
ATOM     22  N   UNL     1     -12.483  12.384  63.874  0.00  0.00    -0.229 NA
ENDBRANCH  16  19
ENDBRANCH   1  16
TORSDOF 2
ENDMDL
MODEL 4
REMARK VINA RESULT:      -6.5      2.544      3.863
REMARK  Name = 
REMARK  2 active torsions:
REMARK  status: ('A' for Active; 'I' for Inactive)
REMARK    1  A    between atoms: N_6  and  C_7
REMARK    2  A    between atoms: C_7  and  C_8
REMARK                            x       y       z     vdW  Elec       q    Type
REMARK                         _______ _______ _______ _____ _____    ______ ____
ROOT
ATOM      1  C   UNL     1      -9.308  14.832  67.605  0.00  0.00    +0.085 C 
ATOM      2  C   UNL     1      -8.649  16.060  68.432  0.00  0.00    +0.176 C 
ATOM      3  O   UNL     1      -7.778  15.721  69.256  0.00  0.00    -0.291 OA
ATOM      4  C   UNL     1      -9.003  17.396  68.067  0.00  0.00    +0.048 A 
ATOM      5  C   UNL     1      -8.360  18.581  68.428  0.00  0.00    +0.020 A 
ATOM      6  C   UNL     1      -8.622  19.508  67.426  0.00  0.00    +0.060 A 
ATOM      7  N   UNL     1      -9.757  19.039  66.857  0.00  0.00    -0.329 N 
ATOM      8  C   UNL     1     -10.517  19.742  65.849  0.00  0.00    +0.130 C 
ATOM      9  C   UNL     1      -7.827  20.635  67.240  0.00  0.00    +0.017 A 
ATOM     10  C   UNL     1      -6.500  20.487  67.628  0.00  0.00    +0.001 A 
ATOM     11  C   UNL     1      -6.351  19.878  68.869  0.00  0.00    +0.000 A 
ATOM     12  C   UNL     1      -7.238  18.861  69.200  0.00  0.00    +0.002 A 
ATOM     13  C   UNL     1      -9.838  17.694  66.998  0.00  0.00    +0.040 A 
ATOM     14  C   UNL     1     -10.064  16.634  65.963  0.00  0.00    +0.044 C 
ATOM     15  C   UNL     1      -9.077  15.560  66.138  0.00  0.00    +0.016 C 
ENDROOT
BRANCH   1  16
ATOM     16  C   UNL     1     -10.846  15.410  67.828  0.00  0.00    +0.115 C 
BRANCH  16  19
ATOM     17  C   UNL     1     -12.402  13.761  65.801  0.00  0.00    +0.072 C 
ATOM     18  C   UNL     1     -11.915  13.368  66.984  0.00  0.00    +0.121 A 
ATOM     19  N   UNL     1     -11.574  14.160  68.030  0.00  0.00    -0.313 N 
ATOM     20  C   UNL     1     -11.463  13.360  69.117  0.00  0.00    +0.098 A 
ATOM     21  C   UNL     1     -11.444  12.047  68.662  0.00  0.00    +0.119 A 
ATOM     22  N   UNL     1     -12.063  12.107  67.461  0.00  0.00    -0.229 NA
ENDBRANCH  16  19
ENDBRANCH   1  16
TORSDOF 2
ENDMDL
MODEL 5
REMARK VINA RESULT:      -6.4      1.577      6.248
REMARK  Name = 
REMARK  2 active torsions:
REMARK  status: ('A' for Active; 'I' for Inactive)
REMARK    1  A    between atoms: N_6  and  C_7
REMARK    2  A    between atoms: C_7  and  C_8
REMARK                            x       y       z     vdW  Elec       q    Type
REMARK                         _______ _______ _______ _____ _____    ______ ____
ROOT
ATOM      1  C   UNL     1      -9.409  17.118  65.972  0.00  0.00    +0.085 C 
ATOM      2  C   UNL     1     -10.549  16.147  65.350  0.00  0.00    +0.176 C 
ATOM      3  O   UNL     1     -11.077  16.571  64.305  0.00  0.00    -0.291 OA
ATOM      4  C   UNL     1     -10.753  14.865  65.949  0.00  0.00    +0.048 A 
ATOM      5  C   UNL     1     -11.449  13.776  65.422  0.00  0.00    +0.020 A 
ATOM      6  C   UNL     1     -10.903  12.630  65.990  0.00  0.00    +0.060 A 
ATOM      7  N   UNL     1     -10.341  13.087  67.133  0.00  0.00    -0.329 N 
ATOM      8  C   UNL     1      -9.766  12.244  68.156  0.00  0.00    +0.130 C 
ATOM      9  C   UNL     1     -11.056  11.375  65.409  0.00  0.00    +0.017 A 
ATOM     10  C   UNL     1     -11.199  11.384  64.025  0.00  0.00    +0.001 A 
ATOM     11  C   UNL     1     -12.097  12.343  63.568  0.00  0.00    +0.000 A 
ATOM     12  C   UNL     1     -12.130  13.564  64.228  0.00  0.00    +0.002 A 
ATOM     13  C   UNL     1      -9.980  14.386  66.998  0.00  0.00    +0.040 A 
ATOM     14  C   UNL     1      -8.660  15.045  67.260  0.00  0.00    +0.044 C 
ATOM     15  C   UNL     1      -8.302  15.897  66.117  0.00  0.00    +0.016 C 
ENDROOT
BRANCH   1  16
ATOM     16  C   UNL     1     -10.015  16.967  67.508  0.00  0.00    +0.115 C 
BRANCH  16  19
ATOM     17  C   UNL     1      -7.623  18.202  68.923  0.00  0.00    +0.072 C 
ATOM     18  C   UNL     1      -8.616  18.830  68.282  0.00  0.00    +0.121 A 
ATOM     19  N   UNL     1      -9.844  18.333  67.997  0.00  0.00    -0.313 N 
ATOM     20  C   UNL     1     -10.633  19.383  67.666  0.00  0.00    +0.098 A 
ATOM     21  C   UNL     1      -9.799  20.476  67.463  0.00  0.00    +0.119 A 
ATOM     22  N   UNL     1      -8.690  20.180  68.178  0.00  0.00    -0.229 NA
ENDBRANCH  16  19
ENDBRANCH   1  16
TORSDOF 2
ENDMDL
MODEL 6
REMARK VINA RESULT:      -6.3      3.207      6.734
REMARK  Name = 
REMARK  2 active torsions:
REMARK  status: ('A' for Active; 'I' for Inactive)
REMARK    1  A    between atoms: N_6  and  C_7
REMARK    2  A    between atoms: C_7  and  C_8
REMARK                            x       y       z     vdW  Elec       q    Type
REMARK                         _______ _______ _______ _____ _____    ______ ____
ROOT
ATOM      1  C   UNL     1     -11.295  14.911  68.487  0.00  0.00    +0.085 C 
ATOM      2  C   UNL     1     -11.890  14.130  67.197  0.00  0.00    +0.176 C 
ATOM      3  O   UNL     1     -12.580  14.836  66.437  0.00  0.00    -0.291 OA
ATOM      4  C   UNL     1     -11.476  12.781  66.966  0.00  0.00    +0.048 A 
ATOM      5  C   UNL     1     -11.620  12.030  65.799  0.00  0.00    +0.020 A 
ATOM      6  C   UNL     1     -10.600  11.085  65.794  0.00  0.00    +0.060 A 
ATOM      7  N   UNL     1     -10.275  10.973  67.103  0.00  0.00    -0.329 N 
ATOM      8  C   UNL     1      -9.354   9.995  67.636  0.00  0.00    +0.130 C 
ATOM      9  C   UNL     1     -10.186  10.454  64.626  0.00  0.00    +0.017 A 
ATOM     10  C   UNL     1     -10.355  11.201  63.465  0.00  0.00    +0.001 A 
ATOM     11  C   UNL     1     -11.601  11.813  63.377  0.00  0.00    +0.000 A 
ATOM     12  C   UNL     1     -12.163  12.304  64.548  0.00  0.00    +0.002 A 
ATOM     13  C   UNL     1     -10.543  12.127  67.759  0.00  0.00    +0.040 A 
ATOM     14  C   UNL     1      -9.656  12.959  68.636  0.00  0.00    +0.044 C 
ATOM     15  C   UNL     1      -9.752  14.369  68.233  0.00  0.00    +0.016 C 
ENDROOT
BRANCH   1  16
ATOM     16  C   UNL     1     -11.725  13.686  69.518  0.00  0.00    +0.115 C 
BRANCH  16  19
ATOM     17  C   UNL     1     -13.318  12.648  71.892  0.00  0.00    +0.072 C 
ATOM     18  C   UNL     1     -12.789  13.866  71.724  0.00  0.00    +0.121 A 
ATOM     19  N   UNL     1     -12.428  14.443  70.552  0.00  0.00    -0.313 N 
ATOM     20  C   UNL     1     -12.272  15.767  70.790  0.00  0.00    +0.098 A 
ATOM     21  C   UNL     1     -12.247  15.937  72.168  0.00  0.00    +0.119 A 
ATOM     22  N   UNL     1     -12.903  14.855  72.645  0.00  0.00    -0.229 NA
ENDBRANCH  16  19
ENDBRANCH   1  16
TORSDOF 2
ENDMDL
MODEL 7
REMARK VINA RESULT:      -6.3      1.962      2.339
REMARK  Name = 
REMARK  2 active torsions:
REMARK  status: ('A' for Active; 'I' for Inactive)
REMARK    1  A    between atoms: N_6  and  C_7
REMARK    2  A    between atoms: C_7  and  C_8
REMARK                            x       y       z     vdW  Elec       q    Type
REMARK                         _______ _______ _______ _____ _____    ______ ____
ROOT
ATOM      1  C   UNL     1     -10.965  15.793  66.903  0.00  0.00    +0.085 C 
ATOM      2  C   UNL     1      -9.944  16.914  66.331  0.00  0.00    +0.176 C 
ATOM      3  O   UNL     1     -10.436  17.675  65.476  0.00  0.00    -0.291 OA
ATOM      4  C   UNL     1      -8.652  17.030  66.932  0.00  0.00    +0.048 A 
ATOM      5  C   UNL     1      -7.743  18.082  66.810  0.00  0.00    +0.020 A 
ATOM      6  C   UNL     1      -6.966  18.083  67.962  0.00  0.00    +0.060 A 
ATOM      7  N   UNL     1      -7.074  16.811  68.412  0.00  0.00    -0.329 N 
ATOM      8  C   UNL     1      -6.319  16.268  69.518  0.00  0.00    +0.130 C 
ATOM      9  C   UNL     1      -6.255  19.208  68.370  0.00  0.00    +0.017 A 
ATOM     10  C   UNL     1      -6.812  20.423  67.987  0.00  0.00    +0.001 A 
ATOM     11  C   UNL     1      -7.218  20.451  66.657  0.00  0.00    +0.000 A 
ATOM     12  C   UNL     1      -7.769  19.292  66.125  0.00  0.00    +0.002 A 
ATOM     13  C   UNL     1      -8.252  16.268  68.021  0.00  0.00    +0.040 A 
ATOM     14  C   UNL     1      -9.312  15.591  68.837  0.00  0.00    +0.044 C 
ATOM     15  C   UNL     1     -10.628  16.141  68.484  0.00  0.00    +0.016 C 
ENDROOT
BRANCH   1  16
ATOM     16  C   UNL     1      -9.835  14.587  66.761  0.00  0.00    +0.115 C 
BRANCH  16  19
ATOM     17  C   UNL     1     -11.688  12.363  67.696  0.00  0.00    +0.072 C 
ATOM     18  C   UNL     1     -11.621  12.926  66.483  0.00  0.00    +0.121 A 
ATOM     19  N   UNL     1     -10.579  13.617  65.961  0.00  0.00    -0.313 N 
ATOM     20  C   UNL     1     -10.787  13.705  64.625  0.00  0.00    +0.098 A 
ATOM     21  C   UNL     1     -12.102  13.326  64.387  0.00  0.00    +0.119 A 
ATOM     22  N   UNL     1     -12.418  12.553  65.451  0.00  0.00    -0.229 NA
ENDBRANCH  16  19
ENDBRANCH   1  16
TORSDOF 2
ENDMDL
MODEL 8
REMARK VINA RESULT:      -6.2      6.224      7.966
REMARK  Name = 
REMARK  2 active torsions:
REMARK  status: ('A' for Active; 'I' for Inactive)
REMARK    1  A    between atoms: N_6  and  C_7
REMARK    2  A    between atoms: C_7  and  C_8
REMARK                            x       y       z     vdW  Elec       q    Type
REMARK                         _______ _______ _______ _____ _____    ______ ____
ROOT
ATOM      1  C   UNL     1     -10.877   8.071  71.541  0.00  0.00    +0.085 C 
ATOM      2  C   UNL     1     -12.022   9.199  71.749  0.00  0.00    +0.176 C 
ATOM      3  O   UNL     1     -12.706   9.059  72.781  0.00  0.00    -0.291 OA
ATOM      4  C   UNL     1     -12.064  10.303  70.842  0.00  0.00    +0.048 A 
ATOM      5  C   UNL     1     -12.751  11.508  70.992  0.00  0.00    +0.020 A 
ATOM      6  C   UNL     1     -12.063  12.464  70.252  0.00  0.00    +0.060 A 
ATOM      7  N   UNL     1     -11.390  11.725  69.340  0.00  0.00    -0.329 N 
ATOM      8  C   UNL     1     -10.635  12.276  68.238  0.00  0.00    +0.130 C 
ATOM      9  C   UNL     1     -12.209  13.827  70.492  0.00  0.00    +0.017 A 
ATOM     10  C   UNL     1     -12.529  14.159  71.804  0.00  0.00    +0.001 A 
ATOM     11  C   UNL     1     -13.538  13.369  72.345  0.00  0.00    +0.000 A 
ATOM     12  C   UNL     1     -13.564  12.026  71.995  0.00  0.00    +0.002 A 
ATOM     13  C   UNL     1     -11.134  10.487  69.828  0.00  0.00    +0.040 A 
ATOM     14  C   UNL     1      -9.836   9.743  69.917  0.00  0.00    +0.044 C 
ATOM     15  C   UNL     1      -9.684   9.184  71.268  0.00  0.00    +0.016 C 
ENDROOT
BRANCH   1  16
ATOM     16  C   UNL     1     -11.269   7.862  69.944  0.00  0.00    +0.115 C 
BRANCH  16  19
ATOM     17  C   UNL     1     -10.932   6.213  67.411  0.00  0.00    +0.072 C 
ATOM     18  C   UNL     1     -10.594   5.880  68.662  0.00  0.00    +0.121 A 
ATOM     19  N   UNL     1     -11.075   6.421  69.808  0.00  0.00    -0.313 N 
ATOM     20  C   UNL     1     -10.742   5.581  70.817  0.00  0.00    +0.098 A 
ATOM     21  C   UNL     1      -9.802   4.689  70.316  0.00  0.00    +0.119 A 
ATOM     22  N   UNL     1     -10.025   4.692  68.982  0.00  0.00    -0.229 NA
ENDBRANCH  16  19
ENDBRANCH   1  16
TORSDOF 2
ENDMDL
MODEL 9
REMARK VINA RESULT:      -6.2      3.410      4.585
REMARK  Name = 
REMARK  2 active torsions:
REMARK  status: ('A' for Active; 'I' for Inactive)
REMARK    1  A    between atoms: N_6  and  C_7
REMARK    2  A    between atoms: C_7  and  C_8
REMARK                            x       y       z     vdW  Elec       q    Type
REMARK                         _______ _______ _______ _____ _____    ______ ____
ROOT
ATOM      1  C   UNL     1     -11.200  14.745  66.816  0.00  0.00    +0.085 C 
ATOM      2  C   UNL     1     -11.343  15.285  68.337  0.00  0.00    +0.176 C 
ATOM      3  O   UNL     1     -11.392  16.526  68.444  0.00  0.00    -0.291 OA
ATOM      4  C   UNL     1     -11.536  14.331  69.384  0.00  0.00    +0.048 A 
ATOM      5  C   UNL     1     -11.966  14.570  70.690  0.00  0.00    +0.020 A 
ATOM      6  C   UNL     1     -12.579  13.404  71.136  0.00  0.00    +0.060 A 
ATOM      7  N   UNL     1     -12.038  12.447  70.348  0.00  0.00    -0.329 N 
ATOM      8  C   UNL     1     -12.249  11.028  70.521  0.00  0.00    +0.130 C 
ATOM      9  C   UNL     1     -13.469  13.403  72.206  0.00  0.00    +0.017 A 
ATOM     10  C   UNL     1     -14.171  14.590  72.385  0.00  0.00    +0.001 A 
ATOM     11  C   UNL     1     -13.370  15.725  72.305  0.00  0.00    +0.000 A 
ATOM     12  C   UNL     1     -12.335  15.720  71.379  0.00  0.00    +0.002 A 
ATOM     13  C   UNL     1     -11.668  12.969  69.153  0.00  0.00    +0.040 A 
ATOM     14  C   UNL     1     -12.008  12.518  67.765  0.00  0.00    +0.044 C 
ATOM     15  C   UNL     1     -12.449  13.672  66.969  0.00  0.00    +0.016 C 
ENDROOT
BRANCH   1  16
ATOM     16  C   UNL     1     -10.012  13.667  67.232  0.00  0.00    +0.115 C 
BRANCH  16  19
ATOM     17  C   UNL     1      -8.642  11.038  66.552  0.00  0.00    +0.072 C 
ATOM     18  C   UNL     1      -9.391  11.808  65.753  0.00  0.00    +0.121 A 
ATOM     19  N   UNL     1      -9.672  13.124  65.919  0.00  0.00    -0.313 N 
ATOM     20  C   UNL     1     -10.153  13.582  64.739  0.00  0.00    +0.098 A 
ATOM     21  C   UNL     1     -10.441  12.472  63.954  0.00  0.00    +0.119 A 
ATOM     22  N   UNL     1      -9.650  11.498  64.459  0.00  0.00    -0.229 NA
ENDBRANCH  16  19
ENDBRANCH   1  16
TORSDOF 2
ENDMDL
