MODEL 1
REMARK VINA RESULT:      -4.9      0.000      0.000
REMARK  Name = 
REMARK  3 active torsions:
REMARK  status: ('A' for Active; 'I' for Inactive)
REMARK    1  A    between atoms: C_8  and  O_9
REMARK    2  A    between atoms: O_9  and  C_10
REMARK    3  A    between atoms: C_10  and  C_11
REMARK                            x       y       z     vdW  Elec       q    Type
REMARK                         _______ _______ _______ _____ _____    ______ ____
ROOT
ATOM      1  C   UNL     1     -10.994  15.925  70.280  0.00  0.00    +0.034 C 
ATOM      2  C   UNL     1     -12.014  15.147  70.802  0.00  0.00    +0.012 A 
ATOM      3  C   UNL     1     -12.281  13.838  70.447  0.00  0.00    +0.131 A 
ATOM      4  C   UNL     1     -12.945  13.033  71.360  0.00  0.00    +0.012 A 
ATOM      5  C   UNL     1     -12.716  11.555  71.356  0.00  0.00    +0.034 C 
ATOM      6  C   UNL     1     -13.911  13.613  72.173  0.00  0.00    -0.001 A 
ATOM      7  C   UNL     1     -13.825  14.966  72.365  0.00  0.00    -0.000 A 
ATOM      8  C   UNL     1     -12.867  15.729  71.724  0.00  0.00    -0.001 A 
ENDROOT
BRANCH   3   9
ATOM      9  O   UNL     1     -11.627  13.329  69.364  0.00  0.00    -0.475 OA
BRANCH   9  10
ATOM     10  C   UNL     1     -11.947  13.571  68.032  0.00  0.00    +0.224 C 
BRANCH  10  11
ATOM     11  C   UNL     1     -11.094  12.512  67.121  0.00  0.00    +0.135 C 
ATOM     12  N   UNL     1     -11.918  11.281  67.643  0.00  0.00    -0.129 NA
ATOM     13  C   UNL     1     -12.065  12.702  65.812  0.00  0.00    +0.024 C 
ENDBRANCH  10  11
ENDBRANCH   9  10
ENDBRANCH   3   9
TORSDOF 3
ENDMDL
MODEL 2
REMARK VINA RESULT:      -4.8      2.390      5.173
REMARK  Name = 
REMARK  3 active torsions:
REMARK  status: ('A' for Active; 'I' for Inactive)
REMARK    1  A    between atoms: C_8  and  O_9
REMARK    2  A    between atoms: O_9  and  C_10
REMARK    3  A    between atoms: C_10  and  C_11
REMARK                            x       y       z     vdW  Elec       q    Type
REMARK                         _______ _______ _______ _____ _____    ______ ____
ROOT
ATOM      1  C   UNL     1     -11.663  11.935  69.660  0.00  0.00    +0.034 C 
ATOM      2  C   UNL     1     -11.710  12.892  68.661  0.00  0.00    +0.012 A 
ATOM      3  C   UNL     1     -11.684  14.259  68.863  0.00  0.00    +0.131 A 
ATOM      4  C   UNL     1     -11.223  15.067  67.835  0.00  0.00    +0.012 A 
ATOM      5  C   UNL     1     -10.578  16.379  68.149  0.00  0.00    +0.034 C 
ATOM      6  C   UNL     1     -11.493  14.689  66.526  0.00  0.00    -0.001 A 
ATOM      7  C   UNL     1     -11.762  13.363  66.309  0.00  0.00    -0.000 A 
ATOM      8  C   UNL     1     -11.833  12.459  67.352  0.00  0.00    -0.001 A 
ENDROOT
BRANCH   3   9
ATOM      9  O   UNL     1     -11.823  14.713  70.142  0.00  0.00    -0.475 OA
BRANCH   9  10
ATOM     10  C   UNL     1     -12.978  15.266  70.688  0.00  0.00    +0.224 C 
BRANCH  10  11
ATOM     11  C   UNL     1     -12.868  15.127  72.316  0.00  0.00    +0.135 C 
ATOM     12  N   UNL     1     -14.203  15.920  72.550  0.00  0.00    -0.129 NA
ATOM     13  C   UNL     1     -13.637  13.678  72.343  0.00  0.00    +0.024 C 
ENDBRANCH  10  11
ENDBRANCH   9  10
ENDBRANCH   3   9
TORSDOF 3
ENDMDL
MODEL 3
REMARK VINA RESULT:      -4.8      2.119      2.769
REMARK  Name = 
REMARK  3 active torsions:
REMARK  status: ('A' for Active; 'I' for Inactive)
REMARK    1  A    between atoms: C_8  and  O_9
REMARK    2  A    between atoms: O_9  and  C_10
REMARK    3  A    between atoms: C_10  and  C_11
REMARK                            x       y       z     vdW  Elec       q    Type
REMARK                         _______ _______ _______ _____ _____    ______ ____
ROOT
ATOM      1  C   UNL     1     -10.600  16.554  67.784  0.00  0.00    +0.034 C 
ATOM      2  C   UNL     1     -11.252  15.582  68.524  0.00  0.00    +0.012 A 
ATOM      3  C   UNL     1     -11.613  14.332  68.057  0.00  0.00    +0.131 A 
ATOM      4  C   UNL     1     -11.771  13.308  68.978  0.00  0.00    +0.012 A 
ATOM      5  C   UNL     1     -11.525  11.891  68.566  0.00  0.00    +0.034 C 
ATOM      6  C   UNL     1     -12.282  13.618  70.232  0.00  0.00    -0.001 A 
ATOM      7  C   UNL     1     -12.158  14.918  70.644  0.00  0.00    -0.000 A 
ATOM      8  C   UNL     1     -11.614  15.889  69.824  0.00  0.00    -0.001 A 
ENDROOT
BRANCH   3   9
ATOM      9  O   UNL     1     -11.502  14.100  66.717  0.00  0.00    -0.475 OA
BRANCH   9  10
ATOM     10  C   UNL     1     -12.556  14.062  65.809  0.00  0.00    +0.224 C 
BRANCH  10  11
ATOM     11  C   UNL     1     -12.277  12.814  64.785  0.00  0.00    +0.135 C 
ATOM     12  N   UNL     1     -12.571  13.690  63.516  0.00  0.00    -0.129 NA
ATOM     13  C   UNL     1     -10.665  13.108  64.707  0.00  0.00    +0.024 C 
ENDBRANCH  10  11
ENDBRANCH   9  10
ENDBRANCH   3   9
TORSDOF 3
ENDMDL
MODEL 4
REMARK VINA RESULT:      -4.7      2.179      3.132
REMARK  Name = 
REMARK  3 active torsions:
REMARK  status: ('A' for Active; 'I' for Inactive)
REMARK    1  A    between atoms: C_8  and  O_9
REMARK    2  A    between atoms: O_9  and  C_10
REMARK    3  A    between atoms: C_10  and  C_11
REMARK                            x       y       z     vdW  Elec       q    Type
REMARK                         _______ _______ _______ _____ _____    ______ ____
ROOT
ATOM      1  C   UNL     1     -11.712  15.420  69.414  0.00  0.00    +0.034 C 
ATOM      2  C   UNL     1     -11.877  14.045  69.397  0.00  0.00    +0.012 A 
ATOM      3  C   UNL     1     -11.714  13.236  68.288  0.00  0.00    +0.131 A 
ATOM      4  C   UNL     1     -11.399  11.901  68.490  0.00  0.00    +0.012 A 
ATOM      5  C   UNL     1     -10.613  11.156  67.458  0.00  0.00    +0.034 C 
ATOM      6  C   UNL     1     -11.938  11.254  69.595  0.00  0.00    -0.001 A 
ATOM      7  C   UNL     1     -12.339  12.045  70.638  0.00  0.00    -0.000 A 
ATOM      8  C   UNL     1     -12.277  13.424  70.567  0.00  0.00    -0.001 A 
ENDROOT
BRANCH   3   9
ATOM      9  O   UNL     1     -11.576  13.844  67.074  0.00  0.00    -0.475 OA
BRANCH   9  10
ATOM     10  C   UNL     1     -12.563  13.946  66.099  0.00  0.00    +0.224 C 
BRANCH  10  11
ATOM     11  C   UNL     1     -11.903  13.465  64.679  0.00  0.00    +0.135 C 
ATOM     12  N   UNL     1     -12.537  14.666  63.890  0.00  0.00    -0.129 NA
ATOM     13  C   UNL     1     -10.502  14.279  64.940  0.00  0.00    +0.024 C 
ENDBRANCH  10  11
ENDBRANCH   9  10
ENDBRANCH   3   9
TORSDOF 3
ENDMDL
MODEL 5
REMARK VINA RESULT:      -4.6      2.946      5.439
REMARK  Name = 
REMARK  3 active torsions:
REMARK  status: ('A' for Active; 'I' for Inactive)
REMARK    1  A    between atoms: C_8  and  O_9
REMARK    2  A    between atoms: O_9  and  C_10
REMARK    3  A    between atoms: C_10  and  C_11
REMARK                            x       y       z     vdW  Elec       q    Type
REMARK                         _______ _______ _______ _____ _____    ______ ____
ROOT
ATOM      1  C   UNL     1     -10.387  18.738  67.774  0.00  0.00    +0.034 C 
ATOM      2  C   UNL     1     -10.118  17.424  67.430  0.00  0.00    +0.012 A 
ATOM      3  C   UNL     1     -10.773  16.316  67.935  0.00  0.00    +0.131 A 
ATOM      4  C   UNL     1     -10.789  15.158  67.173  0.00  0.00    +0.012 A 
ATOM      5  C   UNL     1     -11.927  14.197  67.301  0.00  0.00    +0.034 C 
ATOM      6  C   UNL     1      -9.673  14.859  66.401  0.00  0.00    -0.001 A 
ATOM      7  C   UNL     1      -8.853  15.906  66.070  0.00  0.00    -0.000 A 
ATOM      8  C   UNL     1      -9.086  17.185  66.540  0.00  0.00    -0.001 A 
ENDROOT
BRANCH   3   9
ATOM      9  O   UNL     1     -11.609  16.504  68.997  0.00  0.00    -0.475 OA
BRANCH   9  10
ATOM     10  C   UNL     1     -11.336  16.161  70.317  0.00  0.00    +0.224 C 
BRANCH  10  11
ATOM     11  C   UNL     1     -12.726  15.598  70.976  0.00  0.00    +0.135 C 
ATOM     12  N   UNL     1     -12.231  14.108  70.936  0.00  0.00    -0.129 NA
ATOM     13  C   UNL     1     -12.199  15.810  72.515  0.00  0.00    +0.024 C 
ENDBRANCH  10  11
ENDBRANCH   9  10
ENDBRANCH   3   9
TORSDOF 3
ENDMDL
MODEL 6
REMARK VINA RESULT:      -4.6      4.069      6.159
REMARK  Name = 
REMARK  3 active torsions:
REMARK  status: ('A' for Active; 'I' for Inactive)
REMARK    1  A    between atoms: C_8  and  O_9
REMARK    2  A    between atoms: O_9  and  C_10
REMARK    3  A    between atoms: C_10  and  C_11
REMARK                            x       y       z     vdW  Elec       q    Type
REMARK                         _______ _______ _______ _____ _____    ______ ____
ROOT
ATOM      1  C   UNL     1     -12.266  12.188  63.339  0.00  0.00    +0.034 C 
ATOM      2  C   UNL     1     -11.473  11.797  64.405  0.00  0.00    +0.012 A 
ATOM      3  C   UNL     1     -11.497  12.362  65.666  0.00  0.00    +0.131 A 
ATOM      4  C   UNL     1     -11.073  11.592  66.738  0.00  0.00    +0.012 A 
ATOM      5  C   UNL     1     -11.634  11.840  68.103  0.00  0.00    +0.034 C 
ATOM      6  C   UNL     1     -10.036  10.691  66.536  0.00  0.00    -0.001 A 
ATOM      7  C   UNL     1      -9.818  10.279  65.248  0.00  0.00    -0.000 A 
ATOM      8  C   UNL     1     -10.549  10.789  64.192  0.00  0.00    -0.001 A 
ENDROOT
BRANCH   3   9
ATOM      9  O   UNL     1     -12.205  13.516  65.830  0.00  0.00    -0.475 OA
BRANCH   9  10
ATOM     10  C   UNL     1     -11.663  14.778  66.053  0.00  0.00    +0.224 C 
BRANCH  10  11
ATOM     11  C   UNL     1     -10.481  15.009  64.943  0.00  0.00    +0.135 C 
ATOM     12  N   UNL     1     -10.993  16.450  64.585  0.00  0.00    -0.129 NA
ATOM     13  C   UNL     1      -9.415  15.581  66.051  0.00  0.00    +0.024 C 
ENDBRANCH  10  11
ENDBRANCH   9  10
ENDBRANCH   3   9
TORSDOF 3
ENDMDL
MODEL 7
REMARK VINA RESULT:      -4.6      2.644      4.870
REMARK  Name = 
REMARK  3 active torsions:
REMARK  status: ('A' for Active; 'I' for Inactive)
REMARK    1  A    between atoms: C_8  and  O_9
REMARK    2  A    between atoms: O_9  and  C_10
REMARK    3  A    between atoms: C_10  and  C_11
REMARK                            x       y       z     vdW  Elec       q    Type
REMARK                         _______ _______ _______ _____ _____    ______ ____
ROOT
ATOM      1  C   UNL     1     -11.402  12.341  68.032  0.00  0.00    +0.034 C 
ATOM      2  C   UNL     1     -11.216  11.491  69.109  0.00  0.00    +0.012 A 
ATOM      3  C   UNL     1     -11.958  11.505  70.274  0.00  0.00    +0.131 A 
ATOM      4  C   UNL     1     -12.035  10.338  71.019  0.00  0.00    +0.012 A 
ATOM      5  C   UNL     1     -13.240  10.070  71.863  0.00  0.00    +0.034 C 
ATOM      6  C   UNL     1     -10.923   9.506  71.060  0.00  0.00    -0.001 A 
ATOM      7  C   UNL     1     -10.025   9.625  70.032  0.00  0.00    -0.000 A 
ATOM      8  C   UNL     1     -10.180  10.575  69.041  0.00  0.00    -0.001 A 
ENDROOT
BRANCH   3   9
ATOM      9  O   UNL     1     -12.806  12.556  70.473  0.00  0.00    -0.475 OA
BRANCH   9  10
ATOM     10  C   UNL     1     -12.550  13.669  71.267  0.00  0.00    +0.224 C 
BRANCH  10  11
ATOM     11  C   UNL     1     -13.712  13.730  72.419  0.00  0.00    +0.135 C 
ATOM     12  N   UNL     1     -12.912  14.771  73.280  0.00  0.00    -0.129 NA
ATOM     13  C   UNL     1     -14.556  14.906  71.646  0.00  0.00    +0.024 C 
ENDBRANCH  10  11
ENDBRANCH   9  10
ENDBRANCH   3   9
TORSDOF 3
ENDMDL
MODEL 8
REMARK VINA RESULT:      -4.6      1.197      1.616
REMARK  Name = 
REMARK  3 active torsions:
REMARK  status: ('A' for Active; 'I' for Inactive)
REMARK    1  A    between atoms: C_8  and  O_9
REMARK    2  A    between atoms: O_9  and  C_10
REMARK    3  A    between atoms: C_10  and  C_11
REMARK                            x       y       z     vdW  Elec       q    Type
REMARK                         _______ _______ _______ _____ _____    ______ ____
ROOT
ATOM      1  C   UNL     1     -11.824  15.643  71.016  0.00  0.00    +0.034 C 
ATOM      2  C   UNL     1     -12.266  14.331  70.998  0.00  0.00    +0.012 A 
ATOM      3  C   UNL     1     -11.979  13.405  70.012  0.00  0.00    +0.131 A 
ATOM      4  C   UNL     1     -12.023  12.060  70.342  0.00  0.00    +0.012 A 
ATOM      5  C   UNL     1     -11.161  11.083  69.608  0.00  0.00    +0.034 C 
ATOM      6  C   UNL     1     -12.972  11.636  71.264  0.00  0.00    -0.001 A 
ATOM      7  C   UNL     1     -13.468  12.584  72.119  0.00  0.00    -0.000 A 
ATOM      8  C   UNL     1     -13.096  13.912  72.023  0.00  0.00    -0.001 A 
ENDROOT
BRANCH   3   9
ATOM      9  O   UNL     1     -11.385  13.859  68.871  0.00  0.00    -0.475 OA
BRANCH   9  10
ATOM     10  C   UNL     1     -12.016  14.050  67.646  0.00  0.00    +0.224 C 
BRANCH  10  11
ATOM     11  C   UNL     1     -11.062  13.387  66.492  0.00  0.00    +0.135 C 
ATOM     12  N   UNL     1     -12.063  12.204  66.235  0.00  0.00    -0.129 NA
ATOM     13  C   UNL     1     -11.712  14.297  65.291  0.00  0.00    +0.024 C 
ENDBRANCH  10  11
ENDBRANCH   9  10
ENDBRANCH   3   9
TORSDOF 3
ENDMDL
MODEL 9
REMARK VINA RESULT:      -4.4      3.393      5.325
REMARK  Name = 
REMARK  3 active torsions:
REMARK  status: ('A' for Active; 'I' for Inactive)
REMARK    1  A    between atoms: C_8  and  O_9
REMARK    2  A    between atoms: O_9  and  C_10
REMARK    3  A    between atoms: C_10  and  C_11
REMARK                            x       y       z     vdW  Elec       q    Type
REMARK                         _______ _______ _______ _____ _____    ______ ____
ROOT
ATOM      1  C   UNL     1     -10.948  15.559  65.015  0.00  0.00    +0.034 C 
ATOM      2  C   UNL     1     -11.113  14.885  66.213  0.00  0.00    +0.012 A 
ATOM      3  C   UNL     1     -10.978  15.445  67.469  0.00  0.00    +0.131 A 
ATOM      4  C   UNL     1     -11.647  14.853  68.528  0.00  0.00    +0.012 A 
ATOM      5  C   UNL     1     -12.076  15.681  69.698  0.00  0.00    +0.034 C 
ATOM      6  C   UNL     1     -11.788  13.470  68.532  0.00  0.00    -0.001 A 
ATOM      7  C   UNL     1     -11.692  12.837  67.321  0.00  0.00    -0.000 A 
ATOM      8  C   UNL     1     -11.398  13.531  66.162  0.00  0.00    -0.001 A 
ENDROOT
BRANCH   3   9
ATOM      9  O   UNL     1     -10.449  16.700  67.550  0.00  0.00    -0.475 OA
BRANCH   9  10
ATOM     10  C   UNL     1      -9.159  17.014  67.965  0.00  0.00    +0.224 C 
BRANCH  10  11
ATOM     11  C   UNL     1      -8.873  18.572  67.551  0.00  0.00    +0.135 C 
ATOM     12  N   UNL     1      -8.713  18.217  66.029  0.00  0.00    -0.129 NA
ATOM     13  C   UNL     1     -10.467  18.922  67.378  0.00  0.00    +0.024 C 
ENDBRANCH  10  11
ENDBRANCH   9  10
ENDBRANCH   3   9
TORSDOF 3
ENDMDL
