MODEL 1
REMARK VINA RESULT:      -7.2      0.000      0.000
REMARK  Name = 
REMARK  0 active torsions:
REMARK  status: ('A' for Active; 'I' for Inactive)
REMARK                            x       y       z     vdW  Elec       q    Type
REMARK                         _______ _______ _______ _____ _____    ______ ____
ROOT
ATOM      1  C   UNL     1      -8.501  18.407  68.189  0.00  0.00    +0.090 C 
ATOM      2  N   UNL     1      -9.020  18.101  67.955  0.00  0.00    -0.268 NA
ATOM      3  C   UNL     1     -10.201  17.570  68.633  0.00  0.00    +0.097 C 
ATOM      4  C   UNL     1     -10.015  15.925  68.495  0.00  0.00    +0.112 C 
ATOM      5  N   UNL     1     -10.716  15.923  67.066  0.00  0.00    -0.289 N 
ATOM      6  C   UNL     1     -10.986  14.659  66.454  0.00  0.00    +0.128 A 
ATOM      7  C   UNL     1     -11.589  13.538  66.988  0.00  0.00    +0.014 A 
ATOM      8  C   UNL     1     -11.747  13.170  68.405  0.00  0.00    +0.055 C 
ATOM      9  C   UNL     1     -11.920  14.334  69.302  0.00  0.00    -0.020 A 
ATOM     10  C   UNL     1     -12.435  13.875  70.508  0.00  0.00    -0.004 A 
ATOM     11  C   UNL     1     -12.205  14.525  71.708  0.00  0.00    -0.000 A 
ATOM     12  C   UNL     1     -11.848  15.855  71.638  0.00  0.00    -0.000 A 
ATOM     13  C   UNL     1     -11.314  16.313  70.458  0.00  0.00    -0.003 A 
ATOM     14  C   UNL     1     -12.063  12.563  66.123  0.00  0.00    +0.000 A 
ATOM     15  C   UNL     1     -12.174  12.799  64.774  0.00  0.00    +0.020 A 
ATOM     16  C   UNL     1     -11.593  13.955  64.276  0.00  0.00    +0.100 A 
ATOM     17  N   UNL     1     -11.018  14.819  65.115  0.00  0.00    -0.229 NA
ATOM     18  C   UNL     1      -9.937  16.726  66.129  0.00  0.00    +0.110 C 
ATOM     19  C   UNL     1     -11.432  15.636  69.250  0.00  0.00    -0.007 A 
ATOM     20  C   UNL     1      -8.710  17.305  66.772  0.00  0.00    +0.094 C 
ENDROOT
TORSDOF 0
ENDMDL
MODEL 2
REMARK VINA RESULT:      -7.2      2.237      5.816
REMARK  Name = 
REMARK  0 active torsions:
REMARK  status: ('A' for Active; 'I' for Inactive)
REMARK                            x       y       z     vdW  Elec       q    Type
REMARK                         _______ _______ _______ _____ _____    ______ ____
ROOT
ATOM      1  C   UNL     1     -11.105  10.723  67.383  0.00  0.00    +0.090 C 
ATOM      2  N   UNL     1     -11.457  11.182  67.672  0.00  0.00    -0.268 NA
ATOM      3  C   UNL     1     -11.714  12.569  67.289  0.00  0.00    +0.097 C 
ATOM      4  C   UNL     1     -10.886  13.442  68.435  0.00  0.00    +0.112 C 
ATOM      5  N   UNL     1     -12.124  13.387  69.433  0.00  0.00    -0.289 N 
ATOM      6  C   UNL     1     -12.047  14.149  70.640  0.00  0.00    +0.128 A 
ATOM      7  C   UNL     1     -11.687  15.469  70.821  0.00  0.00    +0.014 A 
ATOM      8  C   UNL     1     -10.901  16.336  69.926  0.00  0.00    +0.055 C 
ATOM      9  C   UNL     1     -11.106  16.042  68.490  0.00  0.00    -0.020 A 
ATOM     10  C   UNL     1     -10.644  17.129  67.759  0.00  0.00    -0.004 A 
ATOM     11  C   UNL     1     -10.164  17.003  66.467  0.00  0.00    -0.000 A 
ATOM     12  C   UNL     1     -10.561  15.888  65.760  0.00  0.00    -0.000 A 
ATOM     13  C   UNL     1     -10.995  14.798  66.475  0.00  0.00    -0.003 A 
ATOM     14  C   UNL     1     -12.019  16.091  72.016  0.00  0.00    +0.000 A 
ATOM     15  C   UNL     1     -12.902  15.516  72.897  0.00  0.00    +0.020 A 
ATOM     16  C   UNL     1     -13.276  14.202  72.664  0.00  0.00    +0.100 A 
ATOM     17  N   UNL     1     -12.831  13.573  71.573  0.00  0.00    -0.229 NA
ATOM     18  C   UNL     1     -12.417  12.001  69.786  0.00  0.00    +0.110 C 
ATOM     19  C   UNL     1     -11.386  14.862  67.807  0.00  0.00    -0.007 A 
ATOM     20  C   UNL     1     -11.472  11.042  69.125  0.00  0.00    +0.094 C 
ENDROOT
TORSDOF 0
ENDMDL
MODEL 3
REMARK VINA RESULT:      -7.1      2.998      5.783
REMARK  Name = 
REMARK  0 active torsions:
REMARK  status: ('A' for Active; 'I' for Inactive)
REMARK                            x       y       z     vdW  Elec       q    Type
REMARK                         _______ _______ _______ _____ _____    ______ ____
ROOT
ATOM      1  C   UNL     1     -11.011  12.029  65.972  0.00  0.00    +0.090 C 
ATOM      2  N   UNL     1     -10.944  12.235  66.582  0.00  0.00    -0.268 NA
ATOM      3  C   UNL     1     -10.599  11.507  67.802  0.00  0.00    +0.097 C 
ATOM      4  C   UNL     1     -12.013  11.527  68.672  0.00  0.00    +0.112 C 
ATOM      5  N   UNL     1     -11.657  12.944  69.301  0.00  0.00    -0.289 N 
ATOM      6  C   UNL     1     -12.514  13.459  70.323  0.00  0.00    +0.128 A 
ATOM      7  C   UNL     1     -12.997  12.839  71.457  0.00  0.00    +0.014 A 
ATOM      8  C   UNL     1     -13.117  11.397  71.732  0.00  0.00    +0.055 C 
ATOM      9  C   UNL     1     -12.050  10.586  71.106  0.00  0.00    -0.020 A 
ATOM     10  C   UNL     1     -12.033   9.344  71.729  0.00  0.00    -0.004 A 
ATOM     11  C   UNL     1     -11.602   8.198  71.085  0.00  0.00    -0.000 A 
ATOM     12  C   UNL     1     -10.780   8.368  69.991  0.00  0.00    -0.000 A 
ATOM     13  C   UNL     1     -10.809   9.583  69.352  0.00  0.00    -0.003 A 
ATOM     14  C   UNL     1     -13.516  13.626  72.475  0.00  0.00    +0.000 A 
ATOM     15  C   UNL     1     -13.330  14.987  72.489  0.00  0.00    +0.020 A 
ATOM     16  C   UNL     1     -12.805  15.574  71.349  0.00  0.00    +0.100 A 
ATOM     17  N   UNL     1     -12.438  14.806  70.321  0.00  0.00    -0.229 NA
ATOM     18  C   UNL     1     -11.553  13.946  68.244  0.00  0.00    +0.110 C 
ATOM     19  C   UNL     1     -11.330  10.738  69.925  0.00  0.00    -0.007 A 
ATOM     20  C   UNL     1     -11.820  13.360  66.889  0.00  0.00    +0.094 C 
ENDROOT
TORSDOF 0
ENDMDL
MODEL 4
REMARK VINA RESULT:      -7.1      3.025      6.379
REMARK  Name = 
REMARK  0 active torsions:
REMARK  status: ('A' for Active; 'I' for Inactive)
REMARK                            x       y       z     vdW  Elec       q    Type
REMARK                         _______ _______ _______ _____ _____    ______ ____
ROOT
ATOM      1  C   UNL     1     -10.440   8.948  69.281  0.00  0.00    +0.090 C 
ATOM      2  N   UNL     1     -10.908   9.391  69.332  0.00  0.00    -0.268 NA
ATOM      3  C   UNL     1     -11.430  10.342  68.353  0.00  0.00    +0.097 C 
ATOM      4  C   UNL     1     -10.919  11.811  68.936  0.00  0.00    +0.112 C 
ATOM      5  N   UNL     1     -12.196  11.931  69.877  0.00  0.00    -0.289 N 
ATOM      6  C   UNL     1     -12.394  13.156  70.586  0.00  0.00    +0.128 A 
ATOM      7  C   UNL     1     -12.351  14.455  70.121  0.00  0.00    +0.014 A 
ATOM      8  C   UNL     1     -11.701  14.971  68.904  0.00  0.00    +0.055 C 
ATOM      9  C   UNL     1     -11.710  14.012  67.778  0.00  0.00    -0.020 A 
ATOM     10  C   UNL     1     -11.438  14.716  66.611  0.00  0.00    -0.004 A 
ATOM     11  C   UNL     1     -10.831  14.128  65.515  0.00  0.00    -0.000 A 
ATOM     12  C   UNL     1     -10.909  12.754  65.422  0.00  0.00    -0.000 A 
ATOM     13  C   UNL     1     -11.152  12.047  66.574  0.00  0.00    -0.003 A 
ATOM     14  C   UNL     1     -12.915  15.458  70.896  0.00  0.00    +0.000 A 
ATOM     15  C   UNL     1     -13.723  15.161  71.967  0.00  0.00    +0.020 A 
ATOM     16  C   UNL     1     -13.777  13.841  72.384  0.00  0.00    +0.100 A 
ATOM     17  N   UNL     1     -13.110  12.906  71.702  0.00  0.00    -0.229 NA
ATOM     18  C   UNL     1     -12.206  10.837  70.844  0.00  0.00    +0.110 C 
ATOM     19  C   UNL     1     -11.662  12.622  67.732  0.00  0.00    -0.007 A 
ATOM     20  C   UNL     1     -11.018   9.934  70.682  0.00  0.00    +0.094 C 
ENDROOT
TORSDOF 0
ENDMDL
MODEL 5
REMARK VINA RESULT:      -6.9      1.692      2.354
REMARK  Name = 
REMARK  0 active torsions:
REMARK  status: ('A' for Active; 'I' for Inactive)
REMARK                            x       y       z     vdW  Elec       q    Type
REMARK                         _______ _______ _______ _____ _____    ______ ____
ROOT
ATOM      1  C   UNL     1     -10.248  17.145  68.185  0.00  0.00    +0.090 C 
ATOM      2  N   UNL     1     -10.535  16.674  67.847  0.00  0.00    -0.268 NA
ATOM      3  C   UNL     1     -11.430  15.601  68.276  0.00  0.00    +0.097 C 
ATOM      4  C   UNL     1     -10.505  14.234  68.096  0.00  0.00    +0.112 C 
ATOM      5  N   UNL     1     -10.921  14.101  66.566  0.00  0.00    -0.289 N 
ATOM      6  C   UNL     1     -10.503  12.933  65.857  0.00  0.00    +0.128 A 
ATOM      7  C   UNL     1     -10.603  11.605  66.219  0.00  0.00    +0.014 A 
ATOM      8  C   UNL     1     -10.774  11.033  67.566  0.00  0.00    +0.055 C 
ATOM      9  C   UNL     1     -11.577  11.885  68.471  0.00  0.00    -0.020 A 
ATOM     10  C   UNL     1     -11.993  11.102  69.542  0.00  0.00    -0.004 A 
ATOM     11  C   UNL     1     -12.251  11.635  70.792  0.00  0.00    -0.000 A 
ATOM     12  C   UNL     1     -12.528  12.985  70.851  0.00  0.00    -0.000 A 
ATOM     13  C   UNL     1     -12.099  13.771  69.809  0.00  0.00    -0.003 A 
ATOM     14  C   UNL     1     -10.459  10.635  65.238  0.00  0.00    +0.000 A 
ATOM     15  C   UNL     1     -10.475  10.963  63.904  0.00  0.00    +0.020 A 
ATOM     16  C   UNL     1     -10.415  12.307  63.573  0.00  0.00    +0.100 A 
ATOM     17  N   UNL     1     -10.416  13.225  64.543  0.00  0.00    -0.229 NA
ATOM     18  C   UNL     1     -10.466  15.273  65.823  0.00  0.00    +0.110 C 
ATOM     19  C   UNL     1     -11.728  13.265  68.569  0.00  0.00    -0.007 A 
ATOM     20  C   UNL     1      -9.736  16.246  66.703  0.00  0.00    +0.094 C 
ENDROOT
TORSDOF 0
ENDMDL
MODEL 6
REMARK VINA RESULT:      -6.8      1.901      4.792
REMARK  Name = 
REMARK  0 active torsions:
REMARK  status: ('A' for Active; 'I' for Inactive)
REMARK                            x       y       z     vdW  Elec       q    Type
REMARK                         _______ _______ _______ _____ _____    ______ ____
ROOT
ATOM      1  C   UNL     1     -10.064  16.438  66.478  0.00  0.00    +0.090 C 
ATOM      2  N   UNL     1     -10.043  16.223  67.087  0.00  0.00    -0.268 NA
ATOM      3  C   UNL     1      -9.851  14.875  67.618  0.00  0.00    +0.097 C 
ATOM      4  C   UNL     1     -11.337  14.500  68.258  0.00  0.00    +0.112 C 
ATOM      5  N   UNL     1     -10.966  15.200  69.638  0.00  0.00    -0.289 N 
ATOM      6  C   UNL     1     -11.887  15.070  70.724  0.00  0.00    +0.128 A 
ATOM      7  C   UNL     1     -12.504  13.939  71.220  0.00  0.00    +0.014 A 
ATOM      8  C   UNL     1     -12.724  12.647  70.547  0.00  0.00    +0.055 C 
ATOM      9  C   UNL     1     -11.647  12.283  69.600  0.00  0.00    -0.020 A 
ATOM     10  C   UNL     1     -11.752  10.924  69.331  0.00  0.00    -0.004 A 
ATOM     11  C   UNL     1     -11.324  10.370  68.138  0.00  0.00    -0.000 A 
ATOM     12  C   UNL     1     -10.396  11.088  67.413  0.00  0.00    -0.000 A 
ATOM     13  C   UNL     1     -10.302  12.437  67.653  0.00  0.00    -0.003 A 
ATOM     14  C   UNL     1     -13.074  13.991  72.483  0.00  0.00    +0.000 A 
ATOM     15  C   UNL     1     -12.819  15.038  73.337  0.00  0.00    +0.020 A 
ATOM     16  C   UNL     1     -12.161  16.142  72.819  0.00  0.00    +0.100 A 
ATOM     17  N   UNL     1     -11.741  16.125  71.552  0.00  0.00    -0.229 NA
ATOM     18  C   UNL     1     -10.713  16.622  69.423  0.00  0.00    +0.110 C 
ATOM     19  C   UNL     1     -10.814  13.050  68.791  0.00  0.00    -0.007 A 
ATOM     20  C   UNL     1     -10.885  17.010  67.983  0.00  0.00    +0.094 C 
ENDROOT
TORSDOF 0
ENDMDL
MODEL 7
REMARK VINA RESULT:      -6.8      2.210      5.313
REMARK  Name = 
REMARK  0 active torsions:
REMARK  status: ('A' for Active; 'I' for Inactive)
REMARK                            x       y       z     vdW  Elec       q    Type
REMARK                         _______ _______ _______ _____ _____    ______ ____
ROOT
ATOM      1  C   UNL     1     -11.615  12.658  63.455  0.00  0.00    +0.090 C 
ATOM      2  N   UNL     1     -11.367  12.851  64.020  0.00  0.00    -0.268 NA
ATOM      3  C   UNL     1     -10.640  12.107  65.047  0.00  0.00    +0.097 C 
ATOM      4  C   UNL     1     -11.713  12.052  66.313  0.00  0.00    +0.112 C 
ATOM      5  N   UNL     1     -11.218  13.465  66.850  0.00  0.00    -0.289 N 
ATOM      6  C   UNL     1     -11.730  13.923  68.104  0.00  0.00    +0.128 A 
ATOM      7  C   UNL     1     -11.818  13.257  69.310  0.00  0.00    +0.014 A 
ATOM      8  C   UNL     1     -11.806  11.805  69.558  0.00  0.00    +0.055 C 
ATOM      9  C   UNL     1     -10.965  11.050  68.603  0.00  0.00    -0.020 A 
ATOM     10  C   UNL     1     -10.719   9.795  69.146  0.00  0.00    -0.004 A 
ATOM     11  C   UNL     1     -10.479   8.682  68.361  0.00  0.00    -0.000 A 
ATOM     12  C   UNL     1     -10.042   8.910  67.072  0.00  0.00    -0.000 A 
ATOM     13  C   UNL     1     -10.303  10.139  66.517  0.00  0.00    -0.003 A 
ATOM     14  C   UNL     1     -12.017  13.998  70.466  0.00  0.00    +0.000 A 
ATOM     15  C   UNL     1     -11.874  15.365  70.470  0.00  0.00    +0.020 A 
ATOM     16  C   UNL     1     -11.746  15.999  69.244  0.00  0.00    +0.100 A 
ATOM     17  N   UNL     1     -11.695  15.271  68.126  0.00  0.00    -0.229 NA
ATOM     18  C   UNL     1     -11.476  14.496  65.849  0.00  0.00    +0.110 C 
ATOM     19  C   UNL     1     -10.652  11.258  67.263  0.00  0.00    -0.007 A 
ATOM     20  C   UNL     1     -12.136  13.935  64.624  0.00  0.00    +0.094 C 
ENDROOT
TORSDOF 0
ENDMDL
MODEL 8
REMARK VINA RESULT:      -6.8      1.047      4.239
REMARK  Name = 
REMARK  0 active torsions:
REMARK  status: ('A' for Active; 'I' for Inactive)
REMARK                            x       y       z     vdW  Elec       q    Type
REMARK                         _______ _______ _______ _____ _____    ______ ____
ROOT
ATOM      1  C   UNL     1     -12.438  12.861  65.257  0.00  0.00    +0.090 C 
ATOM      2  N   UNL     1     -11.919  13.124  65.540  0.00  0.00    -0.268 NA
ATOM      3  C   UNL     1     -11.533  13.191  66.948  0.00  0.00    +0.097 C 
ATOM      4  C   UNL     1     -11.702  14.802  67.316  0.00  0.00    +0.112 C 
ATOM      5  N   UNL     1     -10.232  15.119  66.798  0.00  0.00    -0.289 N 
ATOM      6  C   UNL     1      -9.718  16.437  67.003  0.00  0.00    +0.128 A 
ATOM      7  C   UNL     1      -9.709  17.205  68.150  0.00  0.00    +0.014 A 
ATOM      8  C   UNL     1     -10.563  17.079  69.344  0.00  0.00    +0.055 C 
ATOM      9  C   UNL     1     -10.944  15.684  69.652  0.00  0.00    -0.020 A 
ATOM     10  C   UNL     1     -11.398  15.642  70.965  0.00  0.00    -0.004 A 
ATOM     11  C   UNL     1     -12.319  14.706  71.401  0.00  0.00    -0.000 A 
ATOM     12  C   UNL     1     -12.437  13.552  70.654  0.00  0.00    -0.000 A 
ATOM     13  C   UNL     1     -12.015  13.590  69.347  0.00  0.00    -0.003 A 
ATOM     14  C   UNL     1      -8.855  18.297  68.212  0.00  0.00    +0.000 A 
ATOM     15  C   UNL     1      -7.857  18.475  67.284  0.00  0.00    +0.020 A 
ATOM     16  C   UNL     1      -7.870  17.659  66.164  0.00  0.00    +0.100 A 
ATOM     17  N   UNL     1      -8.792  16.699  66.058  0.00  0.00    -0.229 NA
ATOM     18  C   UNL     1     -10.127  14.804  65.376  0.00  0.00    +0.110 C 
ATOM     19  C   UNL     1     -11.174  14.575  68.842  0.00  0.00    -0.007 A 
ATOM     20  C   UNL     1     -11.422  14.291  64.818  0.00  0.00    +0.094 C 
ENDROOT
TORSDOF 0
ENDMDL
MODEL 9
REMARK VINA RESULT:      -6.7      2.538      4.002
REMARK  Name = 
REMARK  0 active torsions:
REMARK  status: ('A' for Active; 'I' for Inactive)
REMARK                            x       y       z     vdW  Elec       q    Type
REMARK                         _______ _______ _______ _____ _____    ______ ____
ROOT
ATOM      1  C   UNL     1     -11.833  15.292  70.022  0.00  0.00    +0.090 C 
ATOM      2  N   UNL     1     -12.013  14.884  69.553  0.00  0.00    -0.268 NA
ATOM      3  C   UNL     1     -12.263  13.445  69.587  0.00  0.00    +0.097 C 
ATOM      4  C   UNL     1     -11.000  12.815  68.711  0.00  0.00    +0.112 C 
ATOM      5  N   UNL     1     -11.791  13.018  67.345  0.00  0.00    -0.289 N 
ATOM      6  C   UNL     1     -11.211  12.490  66.149  0.00  0.00    +0.128 A 
ATOM      7  C   UNL     1     -10.691  11.234  65.908  0.00  0.00    +0.014 A 
ATOM      8  C   UNL     1     -10.209  10.241  66.882  0.00  0.00    +0.055 C 
ATOM      9  C   UNL     1     -10.946  10.264  68.165  0.00  0.00    -0.020 A 
ATOM     10  C   UNL     1     -10.685   9.074  68.833  0.00  0.00    -0.004 A 
ATOM     11  C   UNL     1     -10.720   8.976  70.213  0.00  0.00    -0.000 A 
ATOM     12  C   UNL     1     -11.447   9.934  70.888  0.00  0.00    -0.000 A 
ATOM     13  C   UNL     1     -11.688  11.124  70.246  0.00  0.00    -0.003 A 
ATOM     14  C   UNL     1     -10.509  10.831  64.594  0.00  0.00    +0.000 A 
ATOM     15  C   UNL     1     -11.060  11.534  63.550  0.00  0.00    +0.020 A 
ATOM     16  C   UNL     1     -11.612  12.774  63.832  0.00  0.00    +0.100 A 
ATOM     17  N   UNL     1     -11.653  13.206  65.095  0.00  0.00    -0.229 NA
ATOM     18  C   UNL     1     -12.061  14.437  67.132  0.00  0.00    +0.110 C 
ATOM     19  C   UNL     1     -11.561  11.293  68.872  0.00  0.00    -0.007 A 
ATOM     20  C   UNL     1     -11.512  15.285  68.243  0.00  0.00    +0.094 C 
ENDROOT
TORSDOF 0
ENDMDL
