MODEL 1
REMARK VINA RESULT:      -5.7      0.000      0.000
REMARK  Name = 
REMARK  8 active torsions:
REMARK  status: ('A' for Active; 'I' for Inactive)
REMARK    1  A    between atoms: C_2  and  N_3
REMARK    2  A    between atoms: N_3  and  C_4
REMARK    3  A    between atoms: N_3  and  C_6
REMARK    4  A    between atoms: C_6  and  C_7
REMARK    5  A    between atoms: C_7  and  O_8
REMARK    6  A    between atoms: O_8  and  C_9
REMARK    7  A    between atoms: C_9  and  C_11
REMARK    8  A    between atoms: C_11  and  C_12
REMARK                            x       y       z     vdW  Elec       q    Type
REMARK                         _______ _______ _______ _____ _____    ______ ____
ROOT
ATOM      1  C   UNL     1     -10.719  13.865  66.986  0.00  0.00    +0.090 C 
ATOM      2  C   UNL     1     -12.130  14.371  66.707  0.00  0.00    +0.011 C 
ATOM      3  C   UNL     1     -12.552  14.055  65.281  0.00  0.00    +0.001 C 
ATOM      4  C   UNL     1     -12.444  12.558  65.029  0.00  0.00    +0.000 C 
ATOM      5  C   UNL     1     -11.075  12.025  65.433  0.00  0.00    +0.001 C 
ATOM      6  C   UNL     1     -10.197  13.211  65.720  0.00  0.00    +0.011 C 
ENDROOT
BRANCH   1   7
ATOM      7  C   UNL     1      -9.882  15.080  67.235  0.00  0.00    +0.010 C 
ATOM      8  C   UNL     1     -10.783  16.136  67.845  0.00  0.00    +0.001 C 
ATOM      9  C   UNL     1      -9.870  17.218  68.388  0.00  0.00    +0.000 C 
ATOM     10  C   UNL     1      -9.068  17.782  67.247  0.00  0.00    +0.000 C 
ATOM     11  C   UNL     1      -8.265  16.719  66.516  0.00  0.00    +0.000 C 
ATOM     12  C   UNL     1      -9.223  15.643  66.013  0.00  0.00    +0.001 C 
ENDBRANCH   1   7
BRANCH   1  13
ATOM     13  C   UNL     1     -10.801  12.939  68.123  0.00  0.00    +0.316 C 
ATOM     14  O   UNL     1      -9.712  12.446  68.545  0.00  0.00    -0.250 OA
BRANCH  13  15
ATOM     15  O   UNL     1     -11.961  12.538  68.749  0.00  0.00    -0.447 OA
BRANCH  15  16
ATOM     16  C   UNL     1     -11.991  12.650  70.168  0.00  0.00    +0.226 C 
BRANCH  16  17
ATOM     17  C   UNL     1     -12.233  14.061  70.628  0.00  0.00    +0.120 C 
BRANCH  17  18
ATOM     18  N   UNL     1     -12.678  14.117  72.001  0.00  0.00    -0.270 NA
BRANCH  18  19
ATOM     19  C   UNL     1     -14.101  13.933  72.138  0.00  0.00    +0.072 C 
ATOM     20  C   UNL     1     -14.893  15.064  71.495  0.00  0.00    +0.019 C 
ENDBRANCH  18  19
BRANCH  18  22
ATOM     21  C   UNL     1     -12.380  15.438  74.033  0.00  0.00    +0.019 C 
ATOM     22  C   UNL     1     -12.363  15.445  72.519  0.00  0.00    +0.072 C 
ENDBRANCH  18  22
ENDBRANCH  17  18
ENDBRANCH  16  17
ENDBRANCH  15  16
ENDBRANCH  13  15
ENDBRANCH   1  13
TORSDOF 8
ENDMDL
MODEL 2
REMARK VINA RESULT:      -5.6      3.136      5.653
REMARK  Name = 
REMARK  8 active torsions:
REMARK  status: ('A' for Active; 'I' for Inactive)
REMARK    1  A    between atoms: C_2  and  N_3
REMARK    2  A    between atoms: N_3  and  C_4
REMARK    3  A    between atoms: N_3  and  C_6
REMARK    4  A    between atoms: C_6  and  C_7
REMARK    5  A    between atoms: C_7  and  O_8
REMARK    6  A    between atoms: O_8  and  C_9
REMARK    7  A    between atoms: C_9  and  C_11
REMARK    8  A    between atoms: C_11  and  C_12
REMARK                            x       y       z     vdW  Elec       q    Type
REMARK                         _______ _______ _______ _____ _____    ______ ____
ROOT
ATOM      1  C   UNL     1      -9.550  17.042  66.886  0.00  0.00    +0.090 C 
ATOM      2  C   UNL     1      -8.638  15.921  67.376  0.00  0.00    +0.011 C 
ATOM      3  C   UNL     1      -8.923  15.583  68.830  0.00  0.00    +0.001 C 
ATOM      4  C   UNL     1     -10.389  15.212  68.999  0.00  0.00    +0.000 C 
ATOM      5  C   UNL     1     -11.301  16.270  68.389  0.00  0.00    +0.001 C 
ATOM      6  C   UNL     1     -10.445  17.455  68.039  0.00  0.00    +0.011 C 
ENDROOT
BRANCH   1   7
ATOM      7  C   UNL     1      -8.656  18.202  66.580  0.00  0.00    +0.010 C 
ATOM      8  C   UNL     1      -7.321  17.642  66.129  0.00  0.00    +0.001 C 
ATOM      9  C   UNL     1      -6.555  18.798  65.517  0.00  0.00    +0.000 C 
ATOM     10  C   UNL     1      -6.371  19.858  66.568  0.00  0.00    +0.000 C 
ATOM     11  C   UNL     1      -7.690  20.337  67.151  0.00  0.00    +0.000 C 
ATOM     12  C   UNL     1      -8.433  19.136  67.729  0.00  0.00    +0.001 C 
ENDBRANCH   1   7
BRANCH   1  13
ATOM     13  C   UNL     1     -10.296  16.526  65.730  0.00  0.00    +0.316 C 
ATOM     14  O   UNL     1     -10.923  17.373  65.026  0.00  0.00    -0.250 OA
BRANCH  13  15
ATOM     15  O   UNL     1     -10.396  15.202  65.366  0.00  0.00    -0.447 OA
BRANCH  15  16
ATOM     16  C   UNL     1     -11.615  14.801  64.751  0.00  0.00    +0.226 C 
BRANCH  16  17
ATOM     17  C   UNL     1     -12.479  13.980  65.668  0.00  0.00    +0.120 C 
BRANCH  17  18
ATOM     18  N   UNL     1     -12.440  12.574  65.340  0.00  0.00    -0.270 NA
BRANCH  18  19
ATOM     19  C   UNL     1     -11.372  11.871  66.008  0.00  0.00    +0.072 C 
ATOM     20  C   UNL     1     -11.464  11.990  67.523  0.00  0.00    +0.019 C 
ENDBRANCH  18  19
BRANCH  18  22
ATOM     21  C   UNL     1     -11.148  11.403  63.631  0.00  0.00    +0.019 C 
ATOM     22  C   UNL     1     -12.202  12.455  63.905  0.00  0.00    +0.072 C 
ENDBRANCH  18  22
ENDBRANCH  17  18
ENDBRANCH  16  17
ENDBRANCH  15  16
ENDBRANCH  13  15
ENDBRANCH   1  13
TORSDOF 8
ENDMDL
MODEL 3
REMARK VINA RESULT:      -5.6      1.681      4.075
REMARK  Name = 
REMARK  8 active torsions:
REMARK  status: ('A' for Active; 'I' for Inactive)
REMARK    1  A    between atoms: C_2  and  N_3
REMARK    2  A    between atoms: N_3  and  C_4
REMARK    3  A    between atoms: N_3  and  C_6
REMARK    4  A    between atoms: C_6  and  C_7
REMARK    5  A    between atoms: C_7  and  O_8
REMARK    6  A    between atoms: O_8  and  C_9
REMARK    7  A    between atoms: C_9  and  C_11
REMARK    8  A    between atoms: C_11  and  C_12
REMARK                            x       y       z     vdW  Elec       q    Type
REMARK                         _______ _______ _______ _____ _____    ______ ____
ROOT
ATOM      1  C   UNL     1      -9.805  16.319  67.388  0.00  0.00    +0.090 C 
ATOM      2  C   UNL     1      -8.434  15.851  66.913  0.00  0.00    +0.011 C 
ATOM      3  C   UNL     1      -7.749  16.923  66.082  0.00  0.00    +0.001 C 
ATOM      4  C   UNL     1      -7.643  18.212  66.884  0.00  0.00    +0.000 C 
ATOM      5  C   UNL     1      -8.990  18.611  67.473  0.00  0.00    +0.001 C 
ATOM      6  C   UNL     1     -10.033  17.720  66.855  0.00  0.00    +0.011 C 
ENDROOT
BRANCH   1   7
ATOM      7  C   UNL     1     -10.804  15.424  66.725  0.00  0.00    +0.010 C 
ATOM      8  C   UNL     1     -10.595  14.024  67.270  0.00  0.00    +0.001 C 
ATOM      9  C   UNL     1     -11.804  13.214  66.848  0.00  0.00    +0.000 C 
ATOM     10  C   UNL     1     -11.873  13.206  65.345  0.00  0.00    +0.000 C 
ATOM     11  C   UNL     1     -11.932  14.606  64.756  0.00  0.00    +0.000 C 
ATOM     12  C   UNL     1     -10.711  15.388  65.230  0.00  0.00    +0.001 C 
ENDBRANCH   1   7
BRANCH   1  13
ATOM     13  C   UNL     1      -9.808  16.251  68.856  0.00  0.00    +0.316 C 
ATOM     14  O   UNL     1      -8.776  15.769  69.412  0.00  0.00    -0.250 OA
BRANCH  13  15
ATOM     15  O   UNL     1     -10.845  16.638  69.675  0.00  0.00    -0.447 OA
BRANCH  15  16
ATOM     16  C   UNL     1     -11.288  15.686  70.635  0.00  0.00    +0.226 C 
BRANCH  16  17
ATOM     17  C   UNL     1     -12.785  15.550  70.663  0.00  0.00    +0.120 C 
BRANCH  17  18
ATOM     18  N   UNL     1     -13.304  15.500  72.009  0.00  0.00    -0.270 NA
BRANCH  18  19
ATOM     19  C   UNL     1     -12.293  15.192  72.989  0.00  0.00    +0.072 C 
ATOM     20  C   UNL     1     -12.495  15.962  74.287  0.00  0.00    +0.019 C 
ENDBRANCH  18  19
BRANCH  18  22
ATOM     21  C   UNL     1     -13.620  13.090  72.235  0.00  0.00    +0.019 C 
ATOM     22  C   UNL     1     -14.298  14.433  72.067  0.00  0.00    +0.072 C 
ENDBRANCH  18  22
ENDBRANCH  17  18
ENDBRANCH  16  17
ENDBRANCH  15  16
ENDBRANCH  13  15
ENDBRANCH   1  13
TORSDOF 8
ENDMDL
MODEL 4
REMARK VINA RESULT:      -5.5      1.987      3.530
REMARK  Name = 
REMARK  8 active torsions:
REMARK  status: ('A' for Active; 'I' for Inactive)
REMARK    1  A    between atoms: C_2  and  N_3
REMARK    2  A    between atoms: N_3  and  C_4
REMARK    3  A    between atoms: N_3  and  C_6
REMARK    4  A    between atoms: C_6  and  C_7
REMARK    5  A    between atoms: C_7  and  O_8
REMARK    6  A    between atoms: O_8  and  C_9
REMARK    7  A    between atoms: C_9  and  C_11
REMARK    8  A    between atoms: C_11  and  C_12
REMARK                            x       y       z     vdW  Elec       q    Type
REMARK                         _______ _______ _______ _____ _____    ______ ____
ROOT
ATOM      1  C   UNL     1     -10.388  12.321  67.327  0.00  0.00    +0.090 C 
ATOM      2  C   UNL     1     -11.530  11.437  67.817  0.00  0.00    +0.011 C 
ATOM      3  C   UNL     1     -11.027  10.050  68.185  0.00  0.00    +0.001 C 
ATOM      4  C   UNL     1      -9.928  10.159  69.232  0.00  0.00    +0.000 C 
ATOM      5  C   UNL     1      -8.850  11.146  68.803  0.00  0.00    +0.001 C 
ATOM      6  C   UNL     1      -9.112  11.502  67.365  0.00  0.00    +0.011 C 
ENDROOT
BRANCH   1   7
ATOM      7  C   UNL     1     -10.680  12.621  65.891  0.00  0.00    +0.010 C 
ATOM      8  C   UNL     1     -12.121  13.086  65.806  0.00  0.00    +0.001 C 
ATOM      9  C   UNL     1     -12.297  13.691  64.428  0.00  0.00    +0.000 C 
ATOM     10  C   UNL     1     -12.008  12.631  63.401  0.00  0.00    +0.000 C 
ATOM     11  C   UNL     1     -10.619  12.034  63.552  0.00  0.00    +0.000 C 
ATOM     12  C   UNL     1     -10.483  11.463  64.960  0.00  0.00    +0.001 C 
ENDBRANCH   1   7
BRANCH   1  13
ATOM     13  C   UNL     1     -10.343  13.502  68.199  0.00  0.00    +0.316 C 
ATOM     14  O   UNL     1      -9.403  14.330  68.000  0.00  0.00    -0.250 OA
BRANCH  13  15
ATOM     15  O   UNL     1     -11.215  13.772  69.231  0.00  0.00    -0.447 OA
BRANCH  15  16
ATOM     16  C   UNL     1     -11.222  15.105  69.727  0.00  0.00    +0.226 C 
BRANCH  16  17
ATOM     17  C   UNL     1     -12.461  15.417  70.520  0.00  0.00    +0.120 C 
BRANCH  17  18
ATOM     18  N   UNL     1     -12.423  14.839  71.842  0.00  0.00    -0.270 NA
BRANCH  18  19
ATOM     19  C   UNL     1     -13.687  14.272  72.243  0.00  0.00    +0.072 C 
ATOM     20  C   UNL     1     -14.866  14.950  71.558  0.00  0.00    +0.019 C 
ENDBRANCH  18  19
BRANCH  18  22
ATOM     21  C   UNL     1     -12.440  15.470  74.201  0.00  0.00    +0.019 C 
ATOM     22  C   UNL     1     -12.110  15.905  72.788  0.00  0.00    +0.072 C 
ENDBRANCH  18  22
ENDBRANCH  17  18
ENDBRANCH  16  17
ENDBRANCH  15  16
ENDBRANCH  13  15
ENDBRANCH   1  13
TORSDOF 8
ENDMDL
MODEL 5
REMARK VINA RESULT:      -5.5      2.446      5.364
REMARK  Name = 
REMARK  8 active torsions:
REMARK  status: ('A' for Active; 'I' for Inactive)
REMARK    1  A    between atoms: C_2  and  N_3
REMARK    2  A    between atoms: N_3  and  C_4
REMARK    3  A    between atoms: N_3  and  C_6
REMARK    4  A    between atoms: C_6  and  C_7
REMARK    5  A    between atoms: C_7  and  O_8
REMARK    6  A    between atoms: O_8  and  C_9
REMARK    7  A    between atoms: C_9  and  C_11
REMARK    8  A    between atoms: C_11  and  C_12
REMARK                            x       y       z     vdW  Elec       q    Type
REMARK                         _______ _______ _______ _____ _____    ______ ____
ROOT
ATOM      1  C   UNL     1     -11.121  13.366  67.811  0.00  0.00    +0.090 C 
ATOM      2  C   UNL     1      -9.604  13.416  67.962  0.00  0.00    +0.011 C 
ATOM      3  C   UNL     1      -9.032  12.026  68.182  0.00  0.00    +0.001 C 
ATOM      4  C   UNL     1      -9.441  11.110  67.038  0.00  0.00    +0.000 C 
ATOM      5  C   UNL     1     -10.944  11.160  66.798  0.00  0.00    +0.001 C 
ATOM      6  C   UNL     1     -11.557  11.919  67.942  0.00  0.00    +0.011 C 
ENDROOT
BRANCH   1   7
ATOM      7  C   UNL     1     -11.681  14.107  68.984  0.00  0.00    +0.010 C 
ATOM      8  C   UNL     1     -10.625  15.091  69.448  0.00  0.00    +0.001 C 
ATOM      9  C   UNL     1     -11.316  16.044  70.403  0.00  0.00    +0.000 C 
ATOM     10  C   UNL     1     -11.861  15.250  71.558  0.00  0.00    +0.000 C 
ATOM     11  C   UNL     1     -12.813  14.151  71.114  0.00  0.00    +0.000 C 
ATOM     12  C   UNL     1     -12.081  13.236  70.137  0.00  0.00    +0.001 C 
ENDBRANCH   1   7
BRANCH   1  13
ATOM     13  C   UNL     1     -11.452  13.954  66.506  0.00  0.00    +0.316 C 
ATOM     14  O   UNL     1     -12.682  14.042  66.209  0.00  0.00    -0.250 OA
BRANCH  13  15
ATOM     15  O   UNL     1     -10.542  14.388  65.568  0.00  0.00    -0.447 OA
BRANCH  15  16
ATOM     16  C   UNL     1     -10.693  15.725  65.105  0.00  0.00    +0.226 C 
BRANCH  16  17
ATOM     17  C   UNL     1     -10.314  16.740  66.148  0.00  0.00    +0.120 C 
BRANCH  17  18
ATOM     18  N   UNL     1      -9.048  17.372  65.859  0.00  0.00    -0.270 NA
BRANCH  18  19
ATOM     19  C   UNL     1      -7.920  16.620  66.348  0.00  0.00    +0.072 C 
ATOM     20  C   UNL     1      -7.698  16.820  67.842  0.00  0.00    +0.019 C 
ENDBRANCH  18  19
BRANCH  18  22
ATOM     21  C   UNL     1     -10.440  19.180  66.729  0.00  0.00    +0.019 C 
ATOM     22  C   UNL     1      -9.029  18.666  66.535  0.00  0.00    +0.072 C 
ENDBRANCH  18  22
ENDBRANCH  17  18
ENDBRANCH  16  17
ENDBRANCH  15  16
ENDBRANCH  13  15
ENDBRANCH   1  13
TORSDOF 8
ENDMDL
MODEL 6
REMARK VINA RESULT:      -5.4      2.946      4.478
REMARK  Name = 
REMARK  8 active torsions:
REMARK  status: ('A' for Active; 'I' for Inactive)
REMARK    1  A    between atoms: C_2  and  N_3
REMARK    2  A    between atoms: N_3  and  C_4
REMARK    3  A    between atoms: N_3  and  C_6
REMARK    4  A    between atoms: C_6  and  C_7
REMARK    5  A    between atoms: C_7  and  O_8
REMARK    6  A    between atoms: O_8  and  C_9
REMARK    7  A    between atoms: C_9  and  C_11
REMARK    8  A    between atoms: C_11  and  C_12
REMARK                            x       y       z     vdW  Elec       q    Type
REMARK                         _______ _______ _______ _____ _____    ______ ____
ROOT
ATOM      1  C   UNL     1      -8.928  17.933  68.281  0.00  0.00    +0.090 C 
ATOM      2  C   UNL     1      -9.550  19.224  68.802  0.00  0.00    +0.011 C 
ATOM      3  C   UNL     1      -9.883  20.169  67.659  0.00  0.00    +0.001 C 
ATOM      4  C   UNL     1     -10.804  19.476  66.666  0.00  0.00    +0.000 C 
ATOM      5  C   UNL     1     -10.248  18.122  66.245  0.00  0.00    +0.001 C 
ATOM      6  C   UNL     1      -8.841  18.031  66.770  0.00  0.00    +0.011 C 
ENDROOT
BRANCH   1   7
ATOM      7  C   UNL     1      -7.526  17.905  68.805  0.00  0.00    +0.010 C 
ATOM      8  C   UNL     1      -7.125  19.335  69.110  0.00  0.00    +0.001 C 
ATOM      9  C   UNL     1      -5.856  19.258  69.934  0.00  0.00    +0.000 C 
ATOM     10  C   UNL     1      -4.800  18.560  69.121  0.00  0.00    +0.000 C 
ATOM     11  C   UNL     1      -5.231  17.175  68.669  0.00  0.00    +0.000 C 
ATOM     12  C   UNL     1      -6.524  17.303  67.868  0.00  0.00    +0.001 C 
ENDBRANCH   1   7
BRANCH   1  13
ATOM     13  C   UNL     1      -9.772  16.822  68.741  0.00  0.00    +0.316 C 
ATOM     14  O   UNL     1      -9.416  15.652  68.408  0.00  0.00    -0.250 OA
BRANCH  13  15
ATOM     15  O   UNL     1     -10.931  16.946  69.475  0.00  0.00    -0.447 OA
BRANCH  15  16
ATOM     16  C   UNL     1     -11.888  15.903  69.335  0.00  0.00    +0.226 C 
BRANCH  16  17
ATOM     17  C   UNL     1     -12.053  15.100  70.596  0.00  0.00    +0.120 C 
BRANCH  17  18
ATOM     18  N   UNL     1     -12.830  15.800  71.591  0.00  0.00    -0.270 NA
BRANCH  18  19
ATOM     19  C   UNL     1     -12.036  16.259  72.703  0.00  0.00    +0.072 C 
ATOM     20  C   UNL     1     -12.393  15.545  73.999  0.00  0.00    +0.019 C 
ENDBRANCH  18  19
BRANCH  18  22
ATOM     21  C   UNL     1     -15.145  15.044  71.415  0.00  0.00    +0.019 C 
ATOM     22  C   UNL     1     -13.819  14.868  72.124  0.00  0.00    +0.072 C 
ENDBRANCH  18  22
ENDBRANCH  17  18
ENDBRANCH  16  17
ENDBRANCH  15  16
ENDBRANCH  13  15
ENDBRANCH   1  13
TORSDOF 8
ENDMDL
MODEL 7
REMARK VINA RESULT:      -5.3      1.800      2.933
REMARK  Name = 
REMARK  8 active torsions:
REMARK  status: ('A' for Active; 'I' for Inactive)
REMARK    1  A    between atoms: C_2  and  N_3
REMARK    2  A    between atoms: N_3  and  C_4
REMARK    3  A    between atoms: N_3  and  C_6
REMARK    4  A    between atoms: C_6  and  C_7
REMARK    5  A    between atoms: C_7  and  O_8
REMARK    6  A    between atoms: O_8  and  C_9
REMARK    7  A    between atoms: C_9  and  C_11
REMARK    8  A    between atoms: C_11  and  C_12
REMARK                            x       y       z     vdW  Elec       q    Type
REMARK                         _______ _______ _______ _____ _____    ______ ____
ROOT
ATOM      1  C   UNL     1     -10.744  12.711  66.583  0.00  0.00    +0.090 C 
ATOM      2  C   UNL     1     -10.440  14.184  66.328  0.00  0.00    +0.011 C 
ATOM      3  C   UNL     1     -10.774  14.570  64.896  0.00  0.00    +0.001 C 
ATOM      4  C   UNL     1     -12.232  14.249  64.600  0.00  0.00    +0.000 C 
ATOM      5  C   UNL     1     -12.572  12.813  64.980  0.00  0.00    +0.001 C 
ATOM      6  C   UNL     1     -11.278  12.113  65.296  0.00  0.00    +0.011 C 
ENDROOT
BRANCH   1   7
ATOM      7  C   UNL     1      -9.427  12.057  66.863  0.00  0.00    +0.010 C 
ATOM      8  C   UNL     1      -8.421  13.158  67.140  0.00  0.00    +0.001 C 
ATOM      9  C   UNL     1      -7.201  12.485  67.736  0.00  0.00    +0.000 C 
ATOM     10  C   UNL     1      -6.664  11.498  66.735  0.00  0.00    +0.000 C 
ATOM     11  C   UNL     1      -7.698  10.465  66.320  0.00  0.00    +0.000 C 
ATOM     12  C   UNL     1      -8.914  11.192  65.753  0.00  0.00    +0.001 C 
ENDBRANCH   1   7
BRANCH   1  13
ATOM     13  C   UNL     1     -11.703  12.647  67.694  0.00  0.00    +0.316 C 
ATOM     14  O   UNL     1     -12.144  11.501  68.009  0.00  0.00    -0.250 OA
BRANCH  13  15
ATOM     15  O   UNL     1     -12.186  13.726  68.400  0.00  0.00    -0.447 OA
BRANCH  15  16
ATOM     16  C   UNL     1     -11.704  13.885  69.729  0.00  0.00    +0.226 C 
BRANCH  16  17
ATOM     17  C   UNL     1     -12.500  14.892  70.513  0.00  0.00    +0.120 C 
BRANCH  17  18
ATOM     18  N   UNL     1     -12.565  14.562  71.917  0.00  0.00    -0.270 NA
BRANCH  18  19
ATOM     19  C   UNL     1     -13.912  14.339  72.379  0.00  0.00    +0.072 C 
ATOM     20  C   UNL     1     -14.948  14.984  71.468  0.00  0.00    +0.019 C 
ENDBRANCH  18  19
BRANCH  18  22
ATOM     21  C   UNL     1     -12.450  15.606  74.121  0.00  0.00    +0.019 C 
ATOM     22  C   UNL     1     -12.034  15.696  72.668  0.00  0.00    +0.072 C 
ENDBRANCH  18  22
ENDBRANCH  17  18
ENDBRANCH  16  17
ENDBRANCH  15  16
ENDBRANCH  13  15
ENDBRANCH   1  13
TORSDOF 8
ENDMDL
MODEL 8
REMARK VINA RESULT:      -5.3      3.790      6.941
REMARK  Name = 
REMARK  8 active torsions:
REMARK  status: ('A' for Active; 'I' for Inactive)
REMARK    1  A    between atoms: C_2  and  N_3
REMARK    2  A    between atoms: N_3  and  C_4
REMARK    3  A    between atoms: N_3  and  C_6
REMARK    4  A    between atoms: C_6  and  C_7
REMARK    5  A    between atoms: C_7  and  O_8
REMARK    6  A    between atoms: O_8  and  C_9
REMARK    7  A    between atoms: C_9  and  C_11
REMARK    8  A    between atoms: C_11  and  C_12
REMARK                            x       y       z     vdW  Elec       q    Type
REMARK                         _______ _______ _______ _____ _____    ______ ____
ROOT
ATOM      1  C   UNL     1      -9.460  17.290  67.093  0.00  0.00    +0.090 C 
ATOM      2  C   UNL     1     -10.112  18.249  66.103  0.00  0.00    +0.011 C 
ATOM      3  C   UNL     1     -10.860  19.356  66.827  0.00  0.00    +0.001 C 
ATOM      4  C   UNL     1      -9.915  20.093  67.764  0.00  0.00    +0.000 C 
ATOM      5  C   UNL     1      -9.161  19.123  68.666  0.00  0.00    +0.001 C 
ATOM      6  C   UNL     1      -9.791  17.768  68.494  0.00  0.00    +0.011 C 
ENDROOT
BRANCH   1   7
ATOM      7  C   UNL     1     -10.139  15.970  66.903  0.00  0.00    +0.010 C 
ATOM      8  C   UNL     1     -10.630  15.912  65.469  0.00  0.00    +0.001 C 
ATOM      9  C   UNL     1     -11.010  14.469  65.203  0.00  0.00    +0.000 C 
ATOM     10  C   UNL     1     -12.098  14.077  66.165  0.00  0.00    +0.000 C 
ATOM     11  C   UNL     1     -11.689  14.266  67.617  0.00  0.00    +0.000 C 
ATOM     12  C   UNL     1     -11.292  15.724  67.827  0.00  0.00    +0.001 C 
ENDBRANCH   1   7
BRANCH   1  13
ATOM     13  C   UNL     1      -8.019  17.280  66.810  0.00  0.00    +0.316 C 
ATOM     14  O   UNL     1      -7.638  17.843  65.740  0.00  0.00    -0.250 OA
BRANCH  13  15
ATOM     15  O   UNL     1      -7.052  16.686  67.591  0.00  0.00    -0.447 OA
BRANCH  15  16
ATOM     16  C   UNL     1      -5.810  17.372  67.698  0.00  0.00    +0.226 C 
BRANCH  16  17
ATOM     17  C   UNL     1      -5.564  17.904  69.083  0.00  0.00    +0.120 C 
BRANCH  17  18
ATOM     18  N   UNL     1      -5.191  19.298  69.073  0.00  0.00    -0.270 NA
BRANCH  18  19
ATOM     19  C   UNL     1      -6.024  20.108  69.927  0.00  0.00    +0.072 C 
ATOM     20  C   UNL     1      -5.581  20.053  71.383  0.00  0.00    +0.019 C 
ENDBRANCH  18  19
BRANCH  18  22
ATOM     21  C   UNL     1      -6.140  21.093  67.717  0.00  0.00    +0.019 C 
ATOM     22  C   UNL     1      -5.357  19.797  67.711  0.00  0.00    +0.072 C 
ENDBRANCH  18  22
ENDBRANCH  17  18
ENDBRANCH  16  17
ENDBRANCH  15  16
ENDBRANCH  13  15
ENDBRANCH   1  13
TORSDOF 8
ENDMDL
MODEL 9
REMARK VINA RESULT:      -5.3      3.583      6.323
REMARK  Name = 
REMARK  8 active torsions:
REMARK  status: ('A' for Active; 'I' for Inactive)
REMARK    1  A    between atoms: C_2  and  N_3
REMARK    2  A    between atoms: N_3  and  C_4
REMARK    3  A    between atoms: N_3  and  C_6
REMARK    4  A    between atoms: C_6  and  C_7
REMARK    5  A    between atoms: C_7  and  O_8
REMARK    6  A    between atoms: O_8  and  C_9
REMARK    7  A    between atoms: C_9  and  C_11
REMARK    8  A    between atoms: C_11  and  C_12
REMARK                            x       y       z     vdW  Elec       q    Type
REMARK                         _______ _______ _______ _____ _____    ______ ____
ROOT
ATOM      1  C   UNL     1      -8.035  18.870  67.274  0.00  0.00    +0.090 C 
ATOM      2  C   UNL     1      -8.872  18.764  68.544  0.00  0.00    +0.011 C 
ATOM      3  C   UNL     1     -10.060  19.711  68.495  0.00  0.00    +0.001 C 
ATOM      4  C   UNL     1     -10.898  19.427  67.257  0.00  0.00    +0.000 C 
ATOM      5  C   UNL     1     -10.039  19.399  65.999  0.00  0.00    +0.001 C 
ATOM      6  C   UNL     1      -8.675  19.910  66.375  0.00  0.00    +0.011 C 
ENDROOT
BRANCH   1   7
ATOM      7  C   UNL     1      -6.703  19.407  67.697  0.00  0.00    +0.010 C 
ATOM      8  C   UNL     1      -6.543  19.116  69.176  0.00  0.00    +0.001 C 
ATOM      9  C   UNL     1      -5.085  19.362  69.507  0.00  0.00    +0.000 C 
ATOM     10  C   UNL     1      -4.761  20.798  69.199  0.00  0.00    +0.000 C 
ATOM     11  C   UNL     1      -5.054  21.166  67.754  0.00  0.00    +0.000 C 
ATOM     12  C   UNL     1      -6.523  20.876  67.463  0.00  0.00    +0.001 C 
ENDBRANCH   1   7
BRANCH   1  13
ATOM     13  C   UNL     1      -7.986  17.532  66.668  0.00  0.00    +0.316 C 
ATOM     14  O   UNL     1      -7.372  17.422  65.565  0.00  0.00    -0.250 OA
BRANCH  13  15
ATOM     15  O   UNL     1      -8.575  16.397  67.181  0.00  0.00    -0.447 OA
BRANCH  15  16
ATOM     16  C   UNL     1      -9.038  15.439  66.237  0.00  0.00    +0.226 C 
BRANCH  16  17
ATOM     17  C   UNL     1     -10.474  15.662  65.848  0.00  0.00    +0.120 C 
BRANCH  17  18
ATOM     18  N   UNL     1     -11.182  14.420  65.643  0.00  0.00    -0.270 NA
BRANCH  18  19
ATOM     19  C   UNL     1     -12.079  14.466  64.515  0.00  0.00    +0.072 C 
ATOM     20  C   UNL     1     -12.113  13.148  63.752  0.00  0.00    +0.019 C 
ENDBRANCH  18  19
BRANCH  18  22
ATOM     21  C   UNL     1     -11.630  12.832  67.442  0.00  0.00    +0.019 C 
ATOM     22  C   UNL     1     -11.995  14.167  66.829  0.00  0.00    +0.072 C 
ENDBRANCH  18  22
ENDBRANCH  17  18
ENDBRANCH  16  17
ENDBRANCH  15  16
ENDBRANCH  13  15
ENDBRANCH   1  13
TORSDOF 8
ENDMDL
