MODEL 1
REMARK VINA RESULT:      -4.7      0.000      0.000
REMARK  Name = 
REMARK  2 active torsions:
REMARK  status: ('A' for Active; 'I' for Inactive)
REMARK    1  A    between atoms: C_2  and  C_3
REMARK    2  A    between atoms: C_5  and  C_6
REMARK                            x       y       z     vdW  Elec       q    Type
REMARK                         _______ _______ _______ _____ _____    ______ ____
ROOT
ATOM      1  C   UNL     1     -12.339  12.810  64.848  0.00  0.00    +0.059 A 
ATOM      2  N   UNL     1     -11.993  12.154  65.981  0.00  0.00    -0.248 NA
ATOM      3  C   UNL     1     -11.840  12.877  67.117  0.00  0.00    +0.099 A 
ATOM      4  C   UNL     1     -11.529  14.214  67.105  0.00  0.00    +0.023 A 
ATOM      5  C   UNL     1     -11.599  14.878  65.895  0.00  0.00    +0.026 A 
ATOM      6  C   UNL     1     -12.036  14.163  64.815  0.00  0.00    +0.017 A 
ENDROOT
BRANCH   5   7
ATOM      7  C   UNL     1     -10.768  16.061  65.634  0.00  0.00    +0.125 C 
ATOM      8  S   UNL     1      -9.181  15.928  66.033  0.00  0.00    -0.031 S 
ATOM      9  N   UNL     1     -11.088  16.849  64.501  0.00  0.00    -0.120 NA
ENDBRANCH   5   7
BRANCH   1  11
ATOM     10  C   UNL     1     -10.984  11.306  63.466  0.00  0.00    +0.007 C 
ATOM     11  C   UNL     1     -12.341  11.969  63.609  0.00  0.00    +0.046 C 
ENDBRANCH   1  11
TORSDOF 2
ENDMDL
MODEL 2
REMARK VINA RESULT:      -4.7      2.964      5.041
REMARK  Name = 
REMARK  2 active torsions:
REMARK  status: ('A' for Active; 'I' for Inactive)
REMARK    1  A    between atoms: C_2  and  C_3
REMARK    2  A    between atoms: C_5  and  C_6
REMARK                            x       y       z     vdW  Elec       q    Type
REMARK                         _______ _______ _______ _____ _____    ______ ____
ROOT
ATOM      1  C   UNL     1     -10.190  17.828  67.848  0.00  0.00    +0.059 A 
ATOM      2  N   UNL     1     -10.924  17.183  68.787  0.00  0.00    -0.248 NA
ATOM      3  C   UNL     1     -11.104  15.847  68.650  0.00  0.00    +0.099 A 
ATOM      4  C   UNL     1     -11.034  15.212  67.435  0.00  0.00    +0.023 A 
ATOM      5  C   UNL     1     -10.542  15.932  66.364  0.00  0.00    +0.026 A 
ATOM      6  C   UNL     1     -10.103  17.203  66.613  0.00  0.00    +0.017 A 
ENDROOT
BRANCH   5   7
ATOM      7  C   UNL     1     -10.952  15.615  64.989  0.00  0.00    +0.125 C 
ATOM      8  S   UNL     1     -11.712  14.175  64.779  0.00  0.00    -0.031 S 
ATOM      9  N   UNL     1     -11.359  16.689  64.161  0.00  0.00    -0.120 NA
ENDBRANCH   5   7
BRANCH   1  11
ATOM     10  C   UNL     1     -10.232  19.936  66.601  0.00  0.00    +0.007 C 
ATOM     11  C   UNL     1     -10.162  19.318  67.984  0.00  0.00    +0.046 C 
ENDBRANCH   1  11
TORSDOF 2
ENDMDL
MODEL 3
REMARK VINA RESULT:      -4.4      4.144      6.348
REMARK  Name = 
REMARK  2 active torsions:
REMARK  status: ('A' for Active; 'I' for Inactive)
REMARK    1  A    between atoms: C_2  and  C_3
REMARK    2  A    between atoms: C_5  and  C_6
REMARK                            x       y       z     vdW  Elec       q    Type
REMARK                         _______ _______ _______ _____ _____    ______ ____
ROOT
ATOM      1  C   UNL     1     -12.218  15.542  70.728  0.00  0.00    +0.059 A 
ATOM      2  N   UNL     1     -11.513  16.320  69.871  0.00  0.00    -0.248 NA
ATOM      3  C   UNL     1     -11.455  15.946  68.570  0.00  0.00    +0.099 A 
ATOM      4  C   UNL     1     -11.619  14.644  68.167  0.00  0.00    +0.023 A 
ATOM      5  C   UNL     1     -12.081  13.738  69.101  0.00  0.00    +0.026 A 
ATOM      6  C   UNL     1     -12.399  14.223  70.339  0.00  0.00    +0.017 A 
ENDROOT
BRANCH   5   7
ATOM      7  C   UNL     1     -11.745  12.311  68.999  0.00  0.00    +0.125 C 
ATOM      8  S   UNL     1     -12.073  11.398  70.324  0.00  0.00    -0.031 S 
ATOM      9  N   UNL     1     -11.890  11.692  67.733  0.00  0.00    -0.120 NA
ENDBRANCH   5   7
BRANCH   1  11
ATOM     10  C   UNL     1     -13.418  15.602  72.864  0.00  0.00    +0.007 C 
ATOM     11  C   UNL     1     -12.111  15.935  72.168  0.00  0.00    +0.046 C 
ENDBRANCH   1  11
TORSDOF 2
ENDMDL
MODEL 4
REMARK VINA RESULT:      -4.4      4.972      6.745
REMARK  Name = 
REMARK  2 active torsions:
REMARK  status: ('A' for Active; 'I' for Inactive)
REMARK    1  A    between atoms: C_2  and  C_3
REMARK    2  A    between atoms: C_5  and  C_6
REMARK                            x       y       z     vdW  Elec       q    Type
REMARK                         _______ _______ _______ _____ _____    ______ ____
ROOT
ATOM      1  C   UNL     1     -12.612  14.824  72.410  0.00  0.00    +0.059 A 
ATOM      2  N   UNL     1     -13.324  13.675  72.314  0.00  0.00    -0.248 NA
ATOM      3  C   UNL     1     -12.930  12.755  71.401  0.00  0.00    +0.099 A 
ATOM      4  C   UNL     1     -12.216  13.088  70.277  0.00  0.00    +0.023 A 
ATOM      5  C   UNL     1     -11.696  14.366  70.203  0.00  0.00    +0.026 A 
ATOM      6  C   UNL     1     -11.880  15.179  71.287  0.00  0.00    +0.017 A 
ENDROOT
BRANCH   5   7
ATOM      7  C   UNL     1     -11.459  15.011  68.905  0.00  0.00    +0.125 C 
ATOM      8  S   UNL     1     -11.797  14.104  67.578  0.00  0.00    -0.031 S 
ATOM      9  N   UNL     1     -11.691  16.405  68.813  0.00  0.00    -0.120 NA
ENDBRANCH   5   7
BRANCH   1  11
ATOM     10  C   UNL     1     -12.450  15.799  74.652  0.00  0.00    +0.007 C 
ATOM     11  C   UNL     1     -13.195  15.850  73.331  0.00  0.00    +0.046 C 
ENDBRANCH   1  11
TORSDOF 2
ENDMDL
MODEL 5
REMARK VINA RESULT:      -4.4      1.216      2.453
REMARK  Name = 
REMARK  2 active torsions:
REMARK  status: ('A' for Active; 'I' for Inactive)
REMARK    1  A    between atoms: C_2  and  C_3
REMARK    2  A    between atoms: C_5  and  C_6
REMARK                            x       y       z     vdW  Elec       q    Type
REMARK                         _______ _______ _______ _____ _____    ______ ____
ROOT
ATOM      1  C   UNL     1     -10.747  12.320  66.277  0.00  0.00    +0.059 A 
ATOM      2  N   UNL     1     -12.026  12.060  65.916  0.00  0.00    -0.248 NA
ATOM      3  C   UNL     1     -12.568  12.790  64.911  0.00  0.00    +0.099 A 
ATOM      4  C   UNL     1     -12.120  14.047  64.587  0.00  0.00    +0.023 A 
ATOM      5  C   UNL     1     -10.938  14.473  65.159  0.00  0.00    +0.026 A 
ATOM      6  C   UNL     1     -10.272  13.584  65.956  0.00  0.00    +0.017 A 
ENDROOT
BRANCH   5   7
ATOM      7  C   UNL     1     -10.676  15.903  65.374  0.00  0.00    +0.125 C 
ATOM      8  S   UNL     1      -9.256  16.271  66.112  0.00  0.00    -0.031 S 
ATOM      9  N   UNL     1     -11.154  16.811  64.398  0.00  0.00    -0.120 NA
ENDBRANCH   5   7
BRANCH   1  11
ATOM     10  C   UNL     1     -11.477  11.140  68.296  0.00  0.00    +0.007 C 
ATOM     11  C   UNL     1     -10.271  11.581  67.488  0.00  0.00    +0.046 C 
ENDBRANCH   1  11
TORSDOF 2
ENDMDL
MODEL 6
REMARK VINA RESULT:      -4.3      4.358      6.438
REMARK  Name = 
REMARK  2 active torsions:
REMARK  status: ('A' for Active; 'I' for Inactive)
REMARK    1  A    between atoms: C_2  and  C_3
REMARK    2  A    between atoms: C_5  and  C_6
REMARK                            x       y       z     vdW  Elec       q    Type
REMARK                         _______ _______ _______ _____ _____    ______ ____
ROOT
ATOM      1  C   UNL     1     -13.085  13.326  71.771  0.00  0.00    +0.059 A 
ATOM      2  N   UNL     1     -13.530  12.080  72.060  0.00  0.00    -0.248 NA
ATOM      3  C   UNL     1     -12.859  11.025  71.536  0.00  0.00    +0.099 A 
ATOM      4  C   UNL     1     -12.112  11.120  70.389  0.00  0.00    +0.023 A 
ATOM      5  C   UNL     1     -11.860  12.384  69.891  0.00  0.00    +0.026 A 
ATOM      6  C   UNL     1     -12.324  13.445  70.617  0.00  0.00    +0.017 A 
ENDROOT
BRANCH   5   7
ATOM      7  C   UNL     1     -11.622  12.596  68.457  0.00  0.00    +0.125 C 
ATOM      8  S   UNL     1     -10.319  13.519  68.073  0.00  0.00    -0.031 S 
ATOM      9  N   UNL     1     -11.950  11.539  67.574  0.00  0.00    -0.120 NA
ENDBRANCH   5   7
BRANCH   1  11
ATOM     10  C   UNL     1     -13.108  15.435  73.020  0.00  0.00    +0.007 C 
ATOM     11  C   UNL     1     -13.961  14.437  72.258  0.00  0.00    +0.046 C 
ENDBRANCH   1  11
TORSDOF 2
ENDMDL
MODEL 7
REMARK VINA RESULT:      -4.3      4.038      5.342
REMARK  Name = 
REMARK  2 active torsions:
REMARK  status: ('A' for Active; 'I' for Inactive)
REMARK    1  A    between atoms: C_2  and  C_3
REMARK    2  A    between atoms: C_5  and  C_6
REMARK                            x       y       z     vdW  Elec       q    Type
REMARK                         _______ _______ _______ _____ _____    ______ ____
ROOT
ATOM      1  C   UNL     1     -11.556  13.548  68.460  0.00  0.00    +0.059 A 
ATOM      2  N   UNL     1     -11.653  14.815  67.989  0.00  0.00    -0.248 NA
ATOM      3  C   UNL     1     -11.691  15.829  68.886  0.00  0.00    +0.099 A 
ATOM      4  C   UNL     1     -12.126  15.658  70.177  0.00  0.00    +0.023 A 
ATOM      5  C   UNL     1     -12.313  14.364  70.624  0.00  0.00    +0.026 A 
ATOM      6  C   UNL     1     -11.987  13.353  69.764  0.00  0.00    +0.017 A 
ENDROOT
BRANCH   5   7
ATOM      7  C   UNL     1     -13.284  14.065  71.685  0.00  0.00    +0.125 C 
ATOM      8  S   UNL     1     -14.629  15.006  71.716  0.00  0.00    -0.031 S 
ATOM      9  N   UNL     1     -13.430  12.712  72.077  0.00  0.00    -0.120 NA
ENDBRANCH   5   7
BRANCH   1  11
ATOM     10  C   UNL     1     -12.081  13.117  66.105  0.00  0.00    +0.007 C 
ATOM     11  C   UNL     1     -11.672  12.478  67.419  0.00  0.00    +0.046 C 
ENDBRANCH   1  11
TORSDOF 2
ENDMDL
MODEL 8
REMARK VINA RESULT:      -4.3      2.460      4.535
REMARK  Name = 
REMARK  2 active torsions:
REMARK  status: ('A' for Active; 'I' for Inactive)
REMARK    1  A    between atoms: C_2  and  C_3
REMARK    2  A    between atoms: C_5  and  C_6
REMARK                            x       y       z     vdW  Elec       q    Type
REMARK                         _______ _______ _______ _____ _____    ______ ____
ROOT
ATOM      1  C   UNL     1     -11.705  14.567  69.129  0.00  0.00    +0.059 A 
ATOM      2  N   UNL     1     -11.928  13.337  69.650  0.00  0.00    -0.248 NA
ATOM      3  C   UNL     1     -11.695  12.258  68.865  0.00  0.00    +0.099 A 
ATOM      4  C   UNL     1     -11.733  12.320  67.494  0.00  0.00    +0.023 A 
ATOM      5  C   UNL     1     -11.788  13.571  66.910  0.00  0.00    +0.026 A 
ATOM      6  C   UNL     1     -11.736  14.652  67.744  0.00  0.00    +0.017 A 
ENDROOT
BRANCH   5   7
ATOM      7  C   UNL     1     -12.406  13.761  65.591  0.00  0.00    +0.125 C 
ATOM      8  S   UNL     1     -11.734  14.921  64.643  0.00  0.00    -0.031 S 
ATOM      9  N   UNL     1     -12.933  12.618  64.942  0.00  0.00    -0.120 NA
ENDBRANCH   5   7
BRANCH   1  11
ATOM     10  C   UNL     1     -13.136  15.201  71.014  0.00  0.00    +0.007 C 
ATOM     11  C   UNL     1     -12.127  15.708  70.001  0.00  0.00    +0.046 C 
ENDBRANCH   1  11
TORSDOF 2
ENDMDL
MODEL 9
REMARK VINA RESULT:      -4.3      2.405      4.831
REMARK  Name = 
REMARK  2 active torsions:
REMARK  status: ('A' for Active; 'I' for Inactive)
REMARK    1  A    between atoms: C_2  and  C_3
REMARK    2  A    between atoms: C_5  and  C_6
REMARK                            x       y       z     vdW  Elec       q    Type
REMARK                         _______ _______ _______ _____ _____    ______ ____
ROOT
ATOM      1  C   UNL     1     -10.416  16.823  67.289  0.00  0.00    +0.059 A 
ATOM      2  N   UNL     1     -11.092  17.017  68.446  0.00  0.00    -0.248 NA
ATOM      3  C   UNL     1     -11.551  15.928  69.109  0.00  0.00    +0.099 A 
ATOM      4  C   UNL     1     -11.815  14.737  68.479  0.00  0.00    +0.023 A 
ATOM      5  C   UNL     1     -11.380  14.591  67.176  0.00  0.00    +0.026 A 
ATOM      6  C   UNL     1     -10.665  15.624  66.637  0.00  0.00    +0.017 A 
ENDROOT
BRANCH   5   7
ATOM      7  C   UNL     1     -12.072  13.688  66.246  0.00  0.00    +0.125 C 
ATOM      8  S   UNL     1     -12.100  14.159  64.673  0.00  0.00    -0.031 S 
ATOM      9  N   UNL     1     -11.997  12.297  66.505  0.00  0.00    -0.120 NA
ENDBRANCH   5   7
BRANCH   1  11
ATOM     10  C   UNL     1     -10.653  19.262  67.286  0.00  0.00    +0.007 C 
ATOM     11  C   UNL     1     -10.074  18.074  66.541  0.00  0.00    +0.046 C 
ENDBRANCH   1  11
TORSDOF 2
ENDMDL
