MODEL 1
REMARK VINA RESULT:      -6.8      0.000      0.000
REMARK  Name = 
REMARK  7 active torsions:
REMARK  status: ('A' for Active; 'I' for Inactive)
REMARK    1  A    between atoms: O_2  and  C_3
REMARK    2  A    between atoms: C_7  and  C_8
REMARK    3  A    between atoms: C_8  and  S_9
REMARK    4  A    between atoms: S_9  and  C_11
REMARK    5  A    between atoms: C_16  and  O_17
REMARK    6  A    between atoms: O_17  and  C_18
REMARK    7  A    between atoms: C_24  and  O_25
REMARK                            x       y       z     vdW  Elec       q    Type
REMARK                         _______ _______ _______ _____ _____    ______ ____
ROOT
ATOM      1  S   UNL     1      -8.619  15.209  67.872  0.00  0.00    +0.107 S 
ATOM      2  O   UNL     1      -8.399  16.351  68.909  0.00  0.00    -0.248 OA
ENDROOT
BRANCH   1   3
ATOM      3  C   UNL     1     -10.225  14.562  68.406  0.00  0.00    +0.221 A 
ATOM      4  N   UNL     1     -11.273  15.258  68.847  0.00  0.00    -0.218 NA
ATOM      5  C   UNL     1     -12.146  14.460  69.510  0.00  0.00    +0.104 A 
ATOM      6  C   UNL     1     -11.677  13.169  69.304  0.00  0.00    +0.101 A 
ATOM      7  C   UNL     1     -12.121  12.151  70.139  0.00  0.00    +0.024 A 
ATOM      8  C   UNL     1     -12.675  12.428  71.383  0.00  0.00    +0.039 A 
ATOM      9  C   UNL     1     -13.068  13.735  71.641  0.00  0.00    +0.146 A 
ATOM     10  C   UNL     1     -12.927  14.670  70.640  0.00  0.00    +0.058 A 
ATOM     11  N   UNL     1     -10.567  13.272  68.532  0.00  0.00    -0.218 NA
BRANCH   9  12
ATOM     12  O   UNL     1     -13.303  14.079  72.975  0.00  0.00    -0.424 OA
BRANCH  12  13
ATOM     13  C   UNL     1     -12.875  15.324  73.485  0.00  0.00    +0.509 C 
ATOM     14  F   UNL     1     -13.906  16.243  73.376  0.00  0.00    -0.155 F 
ATOM     15  F   UNL     1     -12.392  15.223  74.765  0.00  0.00    -0.155 F 
ENDBRANCH  12  13
ENDBRANCH   9  12
ENDBRANCH   1   3
BRANCH   1  16
ATOM     16  C   UNL     1      -9.141  16.202  66.412  0.00  0.00    +0.148 C 
BRANCH  16  19
ATOM     17  C   UNL     1      -8.350  19.771  66.968  0.00  0.00    +0.175 A 
ATOM     18  C   UNL     1      -8.219  18.453  66.568  0.00  0.00    +0.187 A 
ATOM     19  C   UNL     1      -9.253  17.599  66.928  0.00  0.00    +0.110 A 
ATOM     20  N   UNL     1     -10.506  18.102  67.050  0.00  0.00    -0.244 NA
ATOM     21  C   UNL     1     -10.705  19.433  67.192  0.00  0.00    +0.102 A 
ATOM     22  C   UNL     1      -9.592  20.256  67.284  0.00  0.00    +0.061 A 
BRANCH  17  24
ATOM     23  C   UNL     1      -6.749  20.973  67.174  0.00  0.00    +0.253 C 
ATOM     24  O   UNL     1      -7.195  20.546  67.026  0.00  0.00    -0.468 OA
ENDBRANCH  17  24
BRANCH  18  25
ATOM     25  O   UNL     1      -7.255  18.092  65.622  0.00  0.00    -0.467 OA
ATOM     26  C   UNL     1      -5.996  17.575  65.970  0.00  0.00    +0.253 C 
ENDBRANCH  18  25
ENDBRANCH  16  19
ENDBRANCH   1  16
TORSDOF 7
ENDMDL
MODEL 2
REMARK VINA RESULT:      -6.8      4.460      5.741
REMARK  Name = 
REMARK  7 active torsions:
REMARK  status: ('A' for Active; 'I' for Inactive)
REMARK    1  A    between atoms: O_2  and  C_3
REMARK    2  A    between atoms: C_7  and  C_8
REMARK    3  A    between atoms: C_8  and  S_9
REMARK    4  A    between atoms: S_9  and  C_11
REMARK    5  A    between atoms: C_16  and  O_17
REMARK    6  A    between atoms: O_17  and  C_18
REMARK    7  A    between atoms: C_24  and  O_25
REMARK                            x       y       z     vdW  Elec       q    Type
REMARK                         _______ _______ _______ _____ _____    ______ ____
ROOT
ATOM      1  S   UNL     1      -9.851  19.348  66.839  0.00  0.00    +0.107 S 
ATOM      2  O   UNL     1     -10.717  19.714  65.597  0.00  0.00    -0.248 OA
ENDROOT
BRANCH   1   3
ATOM      3  C   UNL     1      -9.949  17.539  66.808  0.00  0.00    +0.221 A 
ATOM      4  N   UNL     1      -9.492  16.719  65.862  0.00  0.00    -0.218 NA
ATOM      5  C   UNL     1     -10.060  15.492  65.962  0.00  0.00    +0.104 A 
ATOM      6  C   UNL     1     -10.775  15.525  67.153  0.00  0.00    +0.101 A 
ATOM      7  C   UNL     1     -11.760  14.570  67.373  0.00  0.00    +0.024 A 
ATOM      8  C   UNL     1     -12.324  13.859  66.321  0.00  0.00    +0.039 A 
ATOM      9  C   UNL     1     -11.669  13.886  65.096  0.00  0.00    +0.146 A 
ATOM     10  C   UNL     1     -10.483  14.579  65.004  0.00  0.00    +0.058 A 
ATOM     11  N   UNL     1     -10.588  16.756  67.690  0.00  0.00    -0.218 NA
BRANCH   9  12
ATOM     12  O   UNL     1     -12.392  13.465  63.976  0.00  0.00    -0.424 OA
BRANCH  12  13
ATOM     13  C   UNL     1     -12.097  12.235  63.347  0.00  0.00    +0.509 C 
ATOM     14  F   UNL     1     -11.272  11.486  64.170  0.00  0.00    -0.155 F 
ATOM     15  F   UNL     1     -13.230  11.555  62.977  0.00  0.00    -0.155 F 
ENDBRANCH  12  13
ENDBRANCH   9  12
ENDBRANCH   1   3
BRANCH   1  16
ATOM     16  C   UNL     1      -8.168  19.592  66.135  0.00  0.00    +0.148 C 
BRANCH  16  19
ATOM     17  C   UNL     1      -5.855  19.288  69.005  0.00  0.00    +0.175 A 
ATOM     18  C   UNL     1      -6.705  18.936  67.972  0.00  0.00    +0.187 A 
ATOM     19  C   UNL     1      -7.326  19.984  67.305  0.00  0.00    +0.110 A 
ATOM     20  N   UNL     1      -6.685  21.176  67.220  0.00  0.00    -0.244 NA
ATOM     21  C   UNL     1      -5.665  21.473  68.056  0.00  0.00    +0.102 A 
ATOM     22  C   UNL     1      -5.341  20.558  69.046  0.00  0.00    +0.061 A 
BRANCH  17  24
ATOM     23  C   UNL     1      -5.353  18.001  70.468  0.00  0.00    +0.253 C 
ATOM     24  O   UNL     1      -5.561  18.318  69.958  0.00  0.00    -0.468 OA
ENDBRANCH  17  24
BRANCH  18  25
ATOM     25  O   UNL     1      -6.698  17.633  67.462  0.00  0.00    -0.467 OA
ATOM     26  C   UNL     1      -5.621  17.100  66.736  0.00  0.00    +0.253 C 
ENDBRANCH  18  25
ENDBRANCH  16  19
ENDBRANCH   1  16
TORSDOF 7
ENDMDL
MODEL 3
REMARK VINA RESULT:      -6.6      2.109      2.611
REMARK  Name = 
REMARK  7 active torsions:
REMARK  status: ('A' for Active; 'I' for Inactive)
REMARK    1  A    between atoms: O_2  and  C_3
REMARK    2  A    between atoms: C_7  and  C_8
REMARK    3  A    between atoms: C_8  and  S_9
REMARK    4  A    between atoms: S_9  and  C_11
REMARK    5  A    between atoms: C_16  and  O_17
REMARK    6  A    between atoms: O_17  and  C_18
REMARK    7  A    between atoms: C_24  and  O_25
REMARK                            x       y       z     vdW  Elec       q    Type
REMARK                         _______ _______ _______ _____ _____    ______ ____
ROOT
ATOM      1  S   UNL     1      -8.982  17.127  66.946  0.00  0.00    +0.107 S 
ATOM      2  O   UNL     1      -8.273  15.890  66.320  0.00  0.00    -0.248 OA
ENDROOT
BRANCH   1   3
ATOM      3  C   UNL     1     -10.430  16.347  67.707  0.00  0.00    +0.221 A 
ATOM      4  N   UNL     1     -11.264  16.884  68.597  0.00  0.00    -0.218 NA
ATOM      5  C   UNL     1     -11.985  15.925  69.231  0.00  0.00    +0.104 A 
ATOM      6  C   UNL     1     -11.689  14.749  68.553  0.00  0.00    +0.101 A 
ATOM      7  C   UNL     1     -11.968  13.533  69.164  0.00  0.00    +0.024 A 
ATOM      8  C   UNL     1     -12.144  13.439  70.539  0.00  0.00    +0.039 A 
ATOM      9  C   UNL     1     -12.353  14.616  71.247  0.00  0.00    +0.146 A 
ATOM     10  C   UNL     1     -12.415  15.799  70.546  0.00  0.00    +0.058 A 
ATOM     11  N   UNL     1     -10.823  15.073  67.561  0.00  0.00    -0.218 NA
BRANCH   9  12
ATOM     12  O   UNL     1     -12.194  14.562  72.635  0.00  0.00    -0.424 OA
BRANCH  12  13
ATOM     13  C   UNL     1     -12.618  15.633  73.452  0.00  0.00    +0.509 C 
ATOM     14  F   UNL     1     -13.956  15.896  73.205  0.00  0.00    -0.155 F 
ATOM     15  F   UNL     1     -12.362  15.407  74.780  0.00  0.00    -0.155 F 
ENDBRANCH  12  13
ENDBRANCH   9  12
ENDBRANCH   1   3
BRANCH   1  16
ATOM     16  C   UNL     1      -7.930  17.377  68.435  0.00  0.00    +0.148 C 
BRANCH  16  19
ATOM     17  C   UNL     1      -5.934  20.427  69.057  0.00  0.00    +0.175 A 
ATOM     18  C   UNL     1      -6.437  19.146  69.199  0.00  0.00    +0.187 A 
ATOM     19  C   UNL     1      -7.461  18.791  68.330  0.00  0.00    +0.110 A 
ATOM     20  N   UNL     1      -7.497  19.353  67.096  0.00  0.00    -0.244 NA
ATOM     21  C   UNL     1      -6.807  20.487  66.834  0.00  0.00    +0.102 A 
ATOM     22  C   UNL     1      -6.125  21.095  67.876  0.00  0.00    +0.061 A 
BRANCH  17  24
ATOM     23  C   UNL     1      -4.817  21.244  70.519  0.00  0.00    +0.253 C 
ATOM     24  O   UNL     1      -5.248  20.974  70.137  0.00  0.00    -0.468 OA
ENDBRANCH  17  24
BRANCH  18  25
ATOM     25  O   UNL     1      -5.755  18.198  69.968  0.00  0.00    -0.467 OA
ATOM     26  C   UNL     1      -4.525  17.639  69.581  0.00  0.00    +0.253 C 
ENDBRANCH  18  25
ENDBRANCH  16  19
ENDBRANCH   1  16
TORSDOF 7
ENDMDL
MODEL 4
REMARK VINA RESULT:      -6.6      5.525      6.969
REMARK  Name = 
REMARK  7 active torsions:
REMARK  status: ('A' for Active; 'I' for Inactive)
REMARK    1  A    between atoms: O_2  and  C_3
REMARK    2  A    between atoms: C_7  and  C_8
REMARK    3  A    between atoms: C_8  and  S_9
REMARK    4  A    between atoms: S_9  and  C_11
REMARK    5  A    between atoms: C_16  and  O_17
REMARK    6  A    between atoms: O_17  and  C_18
REMARK    7  A    between atoms: C_24  and  O_25
REMARK                            x       y       z     vdW  Elec       q    Type
REMARK                         _______ _______ _______ _____ _____    ______ ____
ROOT
ATOM      1  S   UNL     1     -10.235   8.515  67.121  0.00  0.00    +0.107 S 
ATOM      2  O   UNL     1      -9.063   7.517  67.355  0.00  0.00    -0.248 OA
ENDROOT
BRANCH   1   3
ATOM      3  C   UNL     1     -10.552   9.080  68.812  0.00  0.00    +0.221 A 
ATOM      4  N   UNL     1     -10.619   8.335  69.916  0.00  0.00    -0.218 NA
ATOM      5  C   UNL     1     -11.240   9.004  70.920  0.00  0.00    +0.104 A 
ATOM      6  C   UNL     1     -11.401  10.298  70.441  0.00  0.00    +0.101 A 
ATOM      7  C   UNL     1     -12.318  11.136  71.064  0.00  0.00    +0.024 A 
ATOM      8  C   UNL     1     -13.340  10.626  71.855  0.00  0.00    +0.039 A 
ATOM      9  C   UNL     1     -13.240   9.304  72.271  0.00  0.00    +0.146 A 
ATOM     10  C   UNL     1     -12.120   8.589  71.911  0.00  0.00    +0.058 A 
ATOM     11  N   UNL     1     -10.866  10.326  69.195  0.00  0.00    -0.218 NA
BRANCH   9  12
ATOM     12  O   UNL     1     -14.400   8.702  72.767  0.00  0.00    -0.424 OA
BRANCH  12  13
ATOM     13  C   UNL     1     -15.189   7.867  71.944  0.00  0.00    +0.509 C 
ATOM     14  F   UNL     1     -15.120   8.317  70.636  0.00  0.00    -0.155 F 
ATOM     15  F   UNL     1     -14.847   6.544  72.066  0.00  0.00    -0.155 F 
ENDBRANCH  12  13
ENDBRANCH   9  12
ENDBRANCH   1   3
BRANCH   1  16
ATOM     16  C   UNL     1      -9.298   9.959  66.469  0.00  0.00    +0.148 C 
BRANCH  16  19
ATOM     17  C   UNL     1     -11.525  12.466  64.910  0.00  0.00    +0.175 A 
ATOM     18  C   UNL     1     -10.734  11.829  65.849  0.00  0.00    +0.187 A 
ATOM     19  C   UNL     1     -10.223  10.592  65.481  0.00  0.00    +0.110 A 
ATOM     20  N   UNL     1      -9.968  10.352  64.171  0.00  0.00    -0.244 NA
ATOM     21  C   UNL     1     -10.528  11.119  63.207  0.00  0.00    +0.102 A 
ATOM     22  C   UNL     1     -11.423  12.106  63.592  0.00  0.00    +0.061 A 
BRANCH  17  24
ATOM     23  C   UNL     1     -12.703  14.001  65.463  0.00  0.00    +0.253 C 
ATOM     24  O   UNL     1     -12.392  13.456  65.361  0.00  0.00    -0.468 OA
ENDBRANCH  17  24
BRANCH  18  25
ATOM     25  O   UNL     1     -10.256  12.526  66.964  0.00  0.00    -0.467 OA
ATOM     26  C   UNL     1      -9.270  13.523  66.879  0.00  0.00    +0.253 C 
ENDBRANCH  18  25
ENDBRANCH  16  19
ENDBRANCH   1  16
TORSDOF 7
ENDMDL
MODEL 5
REMARK VINA RESULT:      -6.5      4.856      8.302
REMARK  Name = 
REMARK  7 active torsions:
REMARK  status: ('A' for Active; 'I' for Inactive)
REMARK    1  A    between atoms: O_2  and  C_3
REMARK    2  A    between atoms: C_7  and  C_8
REMARK    3  A    between atoms: C_8  and  S_9
REMARK    4  A    between atoms: S_9  and  C_11
REMARK    5  A    between atoms: C_16  and  O_17
REMARK    6  A    between atoms: O_17  and  C_18
REMARK    7  A    between atoms: C_24  and  O_25
REMARK                            x       y       z     vdW  Elec       q    Type
REMARK                         _______ _______ _______ _____ _____    ______ ____
ROOT
ATOM      1  S   UNL     1     -10.782  15.679  64.701  0.00  0.00    +0.107 S 
ATOM      2  O   UNL     1     -12.038  16.266  63.991  0.00  0.00    -0.248 OA
ENDROOT
BRANCH   1   3
ATOM      3  C   UNL     1     -10.476  16.942  65.963  0.00  0.00    +0.221 A 
ATOM      4  N   UNL     1     -10.627  18.261  65.843  0.00  0.00    -0.218 NA
ATOM      5  C   UNL     1      -9.958  18.921  66.821  0.00  0.00    +0.104 A 
ATOM      6  C   UNL     1      -9.520  17.927  67.687  0.00  0.00    +0.101 A 
ATOM      7  C   UNL     1      -8.503  18.220  68.587  0.00  0.00    +0.024 A 
ATOM      8  C   UNL     1      -7.652  19.301  68.388  0.00  0.00    +0.039 A 
ATOM      9  C   UNL     1      -8.031  20.262  67.459  0.00  0.00    +0.146 A 
ATOM     10  C   UNL     1      -9.241  20.111  66.820  0.00  0.00    +0.058 A 
ATOM     11  N   UNL     1      -9.955  16.746  67.183  0.00  0.00    -0.218 NA
BRANCH   9  12
ATOM     12  O   UNL     1      -7.044  21.148  67.020  0.00  0.00    -0.424 OA
BRANCH  12  13
ATOM     13  C   UNL     1      -6.096  20.750  66.052  0.00  0.00    +0.509 C 
ATOM     14  F   UNL     1      -6.683  20.775  64.798  0.00  0.00    -0.155 F 
ATOM     15  F   UNL     1      -4.947  21.498  66.111  0.00  0.00    -0.155 F 
ENDBRANCH  12  13
ENDBRANCH   9  12
ENDBRANCH   1   3
BRANCH   1  16
ATOM     16  C   UNL     1     -11.577  14.379  65.732  0.00  0.00    +0.148 C 
BRANCH  16  19
ATOM     17  C   UNL     1     -10.592  10.815  65.724  0.00  0.00    +0.175 A 
ATOM     18  C   UNL     1     -11.128  12.019  66.145  0.00  0.00    +0.187 A 
ATOM     19  C   UNL     1     -10.916  13.108  65.310  0.00  0.00    +0.110 A 
ATOM     20  N   UNL     1     -10.802  12.897  63.975  0.00  0.00    -0.244 NA
ATOM     21  C   UNL     1     -10.523  11.665  63.492  0.00  0.00    +0.102 A 
ATOM     22  C   UNL     1     -10.287  10.643  64.399  0.00  0.00    +0.061 A 
BRANCH  17  24
ATOM     23  C   UNL     1     -10.178   9.334  67.022  0.00  0.00    +0.253 C 
ATOM     24  O   UNL     1     -10.392   9.827  66.684  0.00  0.00    -0.468 OA
ENDBRANCH  17  24
BRANCH  18  25
ATOM     25  O   UNL     1     -12.059  12.054  67.188  0.00  0.00    -0.467 OA
ATOM     26  C   UNL     1     -11.707  12.322  68.521  0.00  0.00    +0.253 C 
ENDBRANCH  18  25
ENDBRANCH  16  19
ENDBRANCH   1  16
TORSDOF 7
ENDMDL
MODEL 6
REMARK VINA RESULT:      -6.4      4.055      7.498
REMARK  Name = 
REMARK  7 active torsions:
REMARK  status: ('A' for Active; 'I' for Inactive)
REMARK    1  A    between atoms: O_2  and  C_3
REMARK    2  A    between atoms: C_7  and  C_8
REMARK    3  A    between atoms: C_8  and  S_9
REMARK    4  A    between atoms: S_9  and  C_11
REMARK    5  A    between atoms: C_16  and  O_17
REMARK    6  A    between atoms: O_17  and  C_18
REMARK    7  A    between atoms: C_24  and  O_25
REMARK                            x       y       z     vdW  Elec       q    Type
REMARK                         _______ _______ _______ _____ _____    ______ ____
ROOT
ATOM      1  S   UNL     1     -10.504  14.665  68.946  0.00  0.00    +0.107 S 
ATOM      2  O   UNL     1      -9.385  13.747  68.373  0.00  0.00    -0.248 OA
ENDROOT
BRANCH   1   3
ATOM      3  C   UNL     1     -10.322  16.131  67.898  0.00  0.00    +0.221 A 
ATOM      4  N   UNL     1      -9.316  16.414  67.070  0.00  0.00    -0.218 NA
ATOM      5  C   UNL     1      -9.307  17.731  66.745  0.00  0.00    +0.104 A 
ATOM      6  C   UNL     1     -10.487  18.238  67.274  0.00  0.00    +0.101 A 
ATOM      7  C   UNL     1     -10.616  19.611  67.438  0.00  0.00    +0.024 A 
ATOM      8  C   UNL     1      -9.501  20.440  67.481  0.00  0.00    +0.039 A 
ATOM      9  C   UNL     1      -8.290  19.921  67.038  0.00  0.00    +0.146 A 
ATOM     10  C   UNL     1      -8.270  18.635  66.548  0.00  0.00    +0.058 A 
ATOM     11  N   UNL     1     -11.128  17.202  67.871  0.00  0.00    -0.218 NA
BRANCH   9  12
ATOM     12  O   UNL     1      -7.131  20.619  67.389  0.00  0.00    -0.424 OA
BRANCH  12  13
ATOM     13  C   UNL     1      -6.358  20.221  68.503  0.00  0.00    +0.509 C 
ATOM     14  F   UNL     1      -5.600  21.294  68.941  0.00  0.00    -0.155 F 
ATOM     15  F   UNL     1      -7.126  19.675  69.500  0.00  0.00    -0.155 F 
ENDBRANCH  12  13
ENDBRANCH   9  12
ENDBRANCH   1   3
BRANCH   1  16
ATOM     16  C   UNL     1     -11.981  13.892  68.165  0.00  0.00    +0.148 C 
BRANCH  16  19
ATOM     17  C   UNL     1     -11.050  11.886  65.201  0.00  0.00    +0.175 A 
ATOM     18  C   UNL     1     -11.375  12.212  66.506  0.00  0.00    +0.187 A 
ATOM     19  C   UNL     1     -11.542  13.564  66.776  0.00  0.00    +0.110 A 
ATOM     20  N   UNL     1     -11.993  14.378  65.789  0.00  0.00    -0.244 NA
ATOM     21  C   UNL     1     -11.928  13.993  64.494  0.00  0.00    +0.102 A 
ATOM     22  C   UNL     1     -11.324  12.780  64.199  0.00  0.00    +0.061 A 
BRANCH  17  24
ATOM     23  C   UNL     1     -10.102  10.168  64.759  0.00  0.00    +0.253 C 
ATOM     24  O   UNL     1     -10.457  10.648  64.973  0.00  0.00    -0.468 OA
ENDBRANCH  17  24
BRANCH  18  25
ATOM     25  O   UNL     1     -11.787  11.221  67.403  0.00  0.00    -0.467 OA
ATOM     26  C   UNL     1     -10.911  10.588  68.300  0.00  0.00    +0.253 C 
ENDBRANCH  18  25
ENDBRANCH  16  19
ENDBRANCH   1  16
TORSDOF 7
ENDMDL
MODEL 7
REMARK VINA RESULT:      -6.4      1.483      2.185
REMARK  Name = 
REMARK  7 active torsions:
REMARK  status: ('A' for Active; 'I' for Inactive)
REMARK    1  A    between atoms: O_2  and  C_3
REMARK    2  A    between atoms: C_7  and  C_8
REMARK    3  A    between atoms: C_8  and  S_9
REMARK    4  A    between atoms: S_9  and  C_11
REMARK    5  A    between atoms: C_16  and  O_17
REMARK    6  A    between atoms: O_17  and  C_18
REMARK    7  A    between atoms: C_24  and  O_25
REMARK                            x       y       z     vdW  Elec       q    Type
REMARK                         _______ _______ _______ _____ _____    ______ ____
ROOT
ATOM      1  S   UNL     1      -8.583  16.439  67.954  0.00  0.00    +0.107 S 
ATOM      2  O   UNL     1      -7.666  15.924  69.103  0.00  0.00    -0.248 OA
ENDROOT
BRANCH   1   3
ATOM      3  C   UNL     1     -10.164  15.679  68.407  0.00  0.00    +0.221 A 
ATOM      4  N   UNL     1     -11.207  16.266  68.994  0.00  0.00    -0.218 NA
ATOM      5  C   UNL     1     -12.050  15.347  69.527  0.00  0.00    +0.104 A 
ATOM      6  C   UNL     1     -11.572  14.122  69.079  0.00  0.00    +0.101 A 
ATOM      7  C   UNL     1     -11.978  12.963  69.728  0.00  0.00    +0.024 A 
ATOM      8  C   UNL     1     -12.497  13.002  71.017  0.00  0.00    +0.039 A 
ATOM      9  C   UNL     1     -12.899  14.234  71.516  0.00  0.00    +0.146 A 
ATOM     10  C   UNL     1     -12.799  15.336  70.697  0.00  0.00    +0.058 A 
ATOM     11  N   UNL     1     -10.487  14.381  68.307  0.00  0.00    -0.218 NA
BRANCH   9  12
ATOM     12  O   UNL     1     -13.098  14.329  72.896  0.00  0.00    -0.424 OA
BRANCH  12  13
ATOM     13  C   UNL     1     -12.813  15.529  73.586  0.00  0.00    +0.509 C 
ATOM     14  F   UNL     1     -13.896  16.386  73.480  0.00  0.00    -0.155 F 
ATOM     15  F   UNL     1     -12.444  15.304  74.888  0.00  0.00    -0.155 F 
ENDBRANCH  12  13
ENDBRANCH   9  12
ENDBRANCH   1   3
BRANCH   1  16
ATOM     16  C   UNL     1      -8.878  18.162  68.531  0.00  0.00    +0.148 C 
BRANCH  16  19
ATOM     17  C   UNL     1      -6.719  20.125  66.259  0.00  0.00    +0.175 A 
ATOM     18  C   UNL     1      -7.766  19.341  66.709  0.00  0.00    +0.187 A 
ATOM     19  C   UNL     1      -7.697  18.931  68.034  0.00  0.00    +0.110 A 
ATOM     20  N   UNL     1      -7.069  19.727  68.935  0.00  0.00    -0.244 NA
ATOM     21  C   UNL     1      -6.214  20.692  68.524  0.00  0.00    +0.102 A 
ATOM     22  C   UNL     1      -5.943  20.795  67.168  0.00  0.00    +0.061 A 
BRANCH  17  24
ATOM     23  C   UNL     1      -6.401  20.387  64.289  0.00  0.00    +0.253 C 
ATOM     24  O   UNL     1      -6.510  20.196  64.885  0.00  0.00    -0.468 OA
ENDBRANCH  17  24
BRANCH  18  25
ATOM     25  O   UNL     1      -8.940  19.226  65.958  0.00  0.00    -0.467 OA
ATOM     26  C   UNL     1     -10.027  20.105  66.096  0.00  0.00    +0.253 C 
ENDBRANCH  18  25
ENDBRANCH  16  19
ENDBRANCH   1  16
TORSDOF 7
ENDMDL
MODEL 8
REMARK VINA RESULT:      -6.4      3.381      4.003
REMARK  Name = 
REMARK  7 active torsions:
REMARK  status: ('A' for Active; 'I' for Inactive)
REMARK    1  A    between atoms: O_2  and  C_3
REMARK    2  A    between atoms: C_7  and  C_8
REMARK    3  A    between atoms: C_8  and  S_9
REMARK    4  A    between atoms: S_9  and  C_11
REMARK    5  A    between atoms: C_16  and  O_17
REMARK    6  A    between atoms: O_17  and  C_18
REMARK    7  A    between atoms: C_24  and  O_25
REMARK                            x       y       z     vdW  Elec       q    Type
REMARK                         _______ _______ _______ _____ _____    ______ ____
ROOT
ATOM      1  S   UNL     1     -11.024  15.427  69.982  0.00  0.00    +0.107 S 
ATOM      2  O   UNL     1     -12.397  16.152  70.102  0.00  0.00    -0.248 OA
ENDROOT
BRANCH   1   3
ATOM      3  C   UNL     1     -11.558  13.713  69.741  0.00  0.00    +0.221 A 
ATOM      4  N   UNL     1     -12.268  12.960  70.581  0.00  0.00    -0.218 NA
ATOM      5  C   UNL     1     -12.160  11.645  70.269  0.00  0.00    +0.104 A 
ATOM      6  C   UNL     1     -11.480  11.619  69.058  0.00  0.00    +0.101 A 
ATOM      7  C   UNL     1     -10.888  10.433  68.644  0.00  0.00    +0.024 A 
ATOM      8  C   UNL     1     -10.602   9.415  69.546  0.00  0.00    +0.039 A 
ATOM      9  C   UNL     1     -11.204   9.471  70.797  0.00  0.00    +0.146 A 
ATOM     10  C   UNL     1     -12.077  10.504  71.057  0.00  0.00    +0.058 A 
ATOM     11  N   UNL     1     -11.232  12.908  68.719  0.00  0.00    -0.218 NA
BRANCH   9  12
ATOM     12  O   UNL     1     -10.668   8.657  71.799  0.00  0.00    -0.424 OA
BRANCH  12  13
ATOM     13  C   UNL     1     -11.505   7.831  72.582  0.00  0.00    +0.509 C 
ATOM     14  F   UNL     1     -12.033   6.828  71.787  0.00  0.00    -0.155 F 
ATOM     15  F   UNL     1     -10.862   7.341  73.691  0.00  0.00    -0.155 F 
ENDBRANCH  12  13
ENDBRANCH   9  12
ENDBRANCH   1   3
BRANCH   1  16
ATOM     16  C   UNL     1     -10.578  15.872  68.253  0.00  0.00    +0.148 C 
BRANCH  16  19
ATOM     17  C   UNL     1      -8.497  18.923  68.429  0.00  0.00    +0.175 A 
ATOM     18  C   UNL     1      -8.858  17.588  68.450  0.00  0.00    +0.187 A 
ATOM     19  C   UNL     1     -10.214  17.319  68.319  0.00  0.00    +0.110 A 
ATOM     20  N   UNL     1     -10.985  18.173  67.601  0.00  0.00    -0.244 NA
ATOM     21  C   UNL     1     -10.559  19.429  67.333  0.00  0.00    +0.102 A 
ATOM     22  C   UNL     1      -9.351  19.841  67.874  0.00  0.00    +0.061 A 
BRANCH  17  24
ATOM     23  C   UNL     1      -6.739  19.571  69.165  0.00  0.00    +0.253 C 
ATOM     24  O   UNL     1      -7.265  19.267  68.976  0.00  0.00    -0.468 OA
ENDBRANCH  17  24
BRANCH  18  25
ATOM     25  O   UNL     1      -7.888  16.589  68.318  0.00  0.00    -0.467 OA
ATOM     26  C   UNL     1      -7.189  16.353  67.123  0.00  0.00    +0.253 C 
ENDBRANCH  18  25
ENDBRANCH  16  19
ENDBRANCH   1  16
TORSDOF 7
ENDMDL
MODEL 9
REMARK VINA RESULT:      -6.3      3.988      4.964
REMARK  Name = 
REMARK  7 active torsions:
REMARK  status: ('A' for Active; 'I' for Inactive)
REMARK    1  A    between atoms: O_2  and  C_3
REMARK    2  A    between atoms: C_7  and  C_8
REMARK    3  A    between atoms: C_8  and  S_9
REMARK    4  A    between atoms: S_9  and  C_11
REMARK    5  A    between atoms: C_16  and  O_17
REMARK    6  A    between atoms: O_17  and  C_18
REMARK    7  A    between atoms: C_24  and  O_25
REMARK                            x       y       z     vdW  Elec       q    Type
REMARK                         _______ _______ _______ _____ _____    ______ ____
ROOT
ATOM      1  S   UNL     1      -8.206  17.345  66.357  0.00  0.00    +0.107 S 
ATOM      2  O   UNL     1      -7.224  16.210  66.773  0.00  0.00    -0.248 OA
ENDROOT
BRANCH   1   3
ATOM      3  C   UNL     1      -9.758  16.422  66.205  0.00  0.00    +0.221 A 
ATOM      4  N   UNL     1     -10.487  15.897  67.189  0.00  0.00    -0.218 NA
ATOM      5  C   UNL     1     -11.352  14.967  66.714  0.00  0.00    +0.104 A 
ATOM      6  C   UNL     1     -11.258  15.065  65.331  0.00  0.00    +0.101 A 
ATOM      7  C   UNL     1     -11.731  14.019  64.549  0.00  0.00    +0.024 A 
ATOM      8  C   UNL     1     -11.911  12.746  65.078  0.00  0.00    +0.039 A 
ATOM      9  C   UNL     1     -11.919  12.615  66.461  0.00  0.00    +0.146 A 
ATOM     10  C   UNL     1     -11.789  13.751  67.226  0.00  0.00    +0.058 A 
ATOM     11  N   UNL     1     -10.357  16.043  65.067  0.00  0.00    -0.218 NA
BRANCH   9  12
ATOM     12  O   UNL     1     -11.762  11.326  66.979  0.00  0.00    -0.424 OA
BRANCH  12  13
ATOM     13  C   UNL     1     -10.509  10.677  66.931  0.00  0.00    +0.509 C 
ATOM     14  F   UNL     1     -10.493   9.791  65.866  0.00  0.00    -0.155 F 
ATOM     15  F   UNL     1      -9.464  11.565  66.893  0.00  0.00    -0.155 F 
ENDBRANCH  12  13
ENDBRANCH   9  12
ENDBRANCH   1   3
BRANCH   1  16
ATOM     16  C   UNL     1      -8.470  18.153  67.990  0.00  0.00    +0.148 C 
BRANCH  16  19
ATOM     17  C   UNL     1      -5.817  20.606  68.777  0.00  0.00    +0.175 A 
ATOM     18  C   UNL     1      -6.637  19.496  68.873  0.00  0.00    +0.187 A 
ATOM     19  C   UNL     1      -7.651  19.400  67.928  0.00  0.00    +0.110 A 
ATOM     20  N   UNL     1      -7.452  19.936  66.699  0.00  0.00    -0.244 NA
ATOM     21  C   UNL     1      -6.481  20.855  66.495  0.00  0.00    +0.102 A 
ATOM     22  C   UNL     1      -5.745  21.285  67.589  0.00  0.00    +0.061 A 
BRANCH  17  24
ATOM     23  C   UNL     1      -4.644  21.155  70.317  0.00  0.00    +0.253 C 
ATOM     24  O   UNL     1      -5.096  20.976  69.908  0.00  0.00    -0.468 OA
ENDBRANCH  17  24
BRANCH  18  25
ATOM     25  O   UNL     1      -6.276  18.416  69.684  0.00  0.00    -0.467 OA
ATOM     26  C   UNL     1      -5.195  17.567  69.394  0.00  0.00    +0.253 C 
ENDBRANCH  18  25
ENDBRANCH  16  19
ENDBRANCH   1  16
TORSDOF 7
ENDMDL
