MODEL 1
REMARK VINA RESULT:      -6.9      0.000      0.000
REMARK  Name = 
REMARK  0 active torsions:
REMARK  status: ('A' for Active; 'I' for Inactive)
REMARK                            x       y       z     vdW  Elec       q    Type
REMARK                         _______ _______ _______ _____ _____    ______ ____
ROOT
ATOM      1  C   UNL     1      -7.032  19.452  67.391  0.00  0.00    +0.033 C 
ATOM      2  C   UNL     1      -7.731  18.664  68.237  0.00  0.00    +0.127 C 
ATOM      3  C   UNL     1      -8.786  17.805  67.662  0.00  0.00    +0.026 C 
ATOM      4  C   UNL     1      -7.872  16.476  67.381  0.00  0.00    +0.002 C 
ATOM      5  C   UNL     1      -9.240  15.464  67.429  0.00  0.00    +0.000 C 
ATOM      6  C   UNL     1      -9.533  15.773  65.780  0.00  0.00    +0.003 C 
ATOM      7  C   UNL     1     -10.455  17.089  66.113  0.00  0.00    +0.000 C 
ATOM      8  C   UNL     1     -10.824  14.775  65.707  0.00  0.00    +0.041 C 
ATOM      9  C   UNL     1     -10.046  13.374  65.319  0.00  0.00    +0.015 C 
ATOM     10  C   UNL     1     -11.394  12.468  65.631  0.00  0.00    +0.110 C 
ATOM     11  C   UNL     1     -12.410  12.969  64.700  0.00  0.00    +0.317 C 
ATOM     12  O   UNL     1     -12.380  14.174  64.044  0.00  0.00    -0.448 OA
ATOM     13  O   UNL     1     -13.485  12.331  64.690  0.00  0.00    -0.250 OA
ATOM     14  C   UNL     1      -9.494  13.136  66.860  0.00  0.00    +0.001 C 
ATOM     15  C   UNL     1     -11.501  14.619  66.947  0.00  0.00    +0.004 C 
ATOM     16  C   UNL     1     -11.552  15.225  64.497  0.00  0.00    +0.208 C 
ATOM     17  C   UNL     1      -8.394  14.140  67.074  0.00  0.00    +0.000 C 
ATOM     18  C   UNL     1      -7.580  16.354  68.990  0.00  0.00    +0.003 C 
ATOM     19  C   UNL     1      -9.748  17.475  68.748  0.00  0.00    +0.002 C 
ATOM     20  C   UNL     1      -9.332  18.107  66.339  0.00  0.00    +0.002 C 
ATOM     21  C   UNL     1      -6.864  17.703  69.048  0.00  0.00    +0.030 C 
ATOM     22  O   UNL     1      -8.357  19.468  69.205  0.00  0.00    -0.226 OA
ENDROOT
TORSDOF 0
ENDMDL
MODEL 2
REMARK VINA RESULT:      -6.9      1.405      6.282
REMARK  Name = 
REMARK  0 active torsions:
REMARK  status: ('A' for Active; 'I' for Inactive)
REMARK                            x       y       z     vdW  Elec       q    Type
REMARK                         _______ _______ _______ _____ _____    ______ ____
ROOT
ATOM      1  C   UNL     1     -10.603  11.334  65.220  0.00  0.00    +0.033 C 
ATOM      2  C   UNL     1     -11.319  12.184  65.987  0.00  0.00    +0.127 C 
ATOM      3  C   UNL     1     -10.586  13.258  66.689  0.00  0.00    +0.026 C 
ATOM      4  C   UNL     1     -10.699  14.409  65.532  0.00  0.00    +0.002 C 
ATOM      5  C   UNL     1     -10.499  15.653  66.677  0.00  0.00    +0.000 C 
ATOM      6  C   UNL     1      -8.807  15.504  66.550  0.00  0.00    +0.003 C 
ATOM      7  C   UNL     1      -8.743  14.364  67.728  0.00  0.00    +0.000 C 
ATOM      8  C   UNL     1      -8.510  16.727  67.592  0.00  0.00    +0.041 C 
ATOM      9  C   UNL     1      -8.493  17.981  66.521  0.00  0.00    +0.015 C 
ATOM     10  C   UNL     1      -8.540  19.100  67.737  0.00  0.00    +0.110 C 
ATOM     11  C   UNL     1      -7.327  18.854  68.525  0.00  0.00    +0.317 C 
ATOM     12  O   UNL     1      -6.575  17.707  68.511  0.00  0.00    -0.448 OA
ATOM     13  O   UNL     1      -7.108  19.679  69.438  0.00  0.00    -0.250 OA
ATOM     14  C   UNL     1     -10.141  18.017  66.384  0.00  0.00    +0.001 C 
ATOM     15  C   UNL     1      -9.540  16.929  68.550  0.00  0.00    +0.004 C 
ATOM     16  C   UNL     1      -7.111  16.494  68.022  0.00  0.00    +0.208 C 
ATOM     17  C   UNL     1     -10.523  16.815  65.563  0.00  0.00    +0.000 C 
ATOM     18  C   UNL     1     -12.332  14.376  65.678  0.00  0.00    +0.003 C 
ATOM     19  C   UNL     1     -11.413  13.694  67.847  0.00  0.00    +0.002 C 
ATOM     20  C   UNL     1      -9.141  13.144  66.892  0.00  0.00    +0.002 C 
ATOM     21  C   UNL     1     -12.426  12.917  65.234  0.00  0.00    +0.030 C 
ATOM     22  O   UNL     1     -11.997  11.454  66.978  0.00  0.00    -0.226 OA
ENDROOT
TORSDOF 0
ENDMDL
MODEL 3
REMARK VINA RESULT:      -6.7      3.731      4.976
REMARK  Name = 
REMARK  0 active torsions:
REMARK  status: ('A' for Active; 'I' for Inactive)
REMARK                            x       y       z     vdW  Elec       q    Type
REMARK                         _______ _______ _______ _____ _____    ______ ____
ROOT
ATOM      1  C   UNL     1     -12.045  16.123  73.343  0.00  0.00    +0.033 C 
ATOM      2  C   UNL     1     -12.962  15.513  72.561  0.00  0.00    +0.127 C 
ATOM      3  C   UNL     1     -12.630  15.323  71.134  0.00  0.00    +0.026 C 
ATOM      4  C   UNL     1     -11.937  13.846  71.254  0.00  0.00    +0.002 C 
ATOM      5  C   UNL     1     -12.271  13.500  69.620  0.00  0.00    +0.000 C 
ATOM      6  C   UNL     1     -10.831  14.284  69.155  0.00  0.00    +0.003 C 
ATOM      7  C   UNL     1     -11.575  15.741  69.034  0.00  0.00    +0.000 C 
ATOM      8  C   UNL     1     -11.029  13.949  67.569  0.00  0.00    +0.041 C 
ATOM      9  C   UNL     1     -10.267  12.488  67.516  0.00  0.00    +0.015 C 
ATOM     10  C   UNL     1     -10.856  12.167  66.005  0.00  0.00    +0.110 C 
ATOM     11  C   UNL     1     -10.335  13.245  65.158  0.00  0.00    +0.317 C 
ATOM     12  O   UNL     1      -9.846  14.449  65.595  0.00  0.00    -0.448 OA
ATOM     13  O   UNL     1     -10.572  13.123  63.936  0.00  0.00    -0.250 OA
ATOM     14  C   UNL     1     -11.535  11.687  68.214  0.00  0.00    +0.001 C 
ATOM     15  C   UNL     1     -12.387  13.794  67.180  0.00  0.00    +0.004 C 
ATOM     16  C   UNL     1     -10.153  14.930  66.888  0.00  0.00    +0.208 C 
ATOM     17  C   UNL     1     -11.527  12.072  69.669  0.00  0.00    +0.000 C 
ATOM     18  C   UNL     1     -13.360  13.237  71.795  0.00  0.00    +0.003 C 
ATOM     19  C   UNL     1     -13.907  15.168  70.385  0.00  0.00    +0.002 C 
ATOM     20  C   UNL     1     -11.574  16.127  70.517  0.00  0.00    +0.002 C 
ATOM     21  C   UNL     1     -13.359  14.120  73.042  0.00  0.00    +0.030 C 
ATOM     22  O   UNL     1     -14.160  16.247  72.595  0.00  0.00    -0.226 OA
ENDROOT
TORSDOF 0
ENDMDL
MODEL 4
REMARK VINA RESULT:      -6.6      3.485      6.808
REMARK  Name = 
REMARK  0 active torsions:
REMARK  status: ('A' for Active; 'I' for Inactive)
REMARK                            x       y       z     vdW  Elec       q    Type
REMARK                         _______ _______ _______ _____ _____    ______ ____
ROOT
ATOM      1  C   UNL     1     -10.757   7.105  67.356  0.00  0.00    +0.033 C 
ATOM      2  C   UNL     1      -9.991   7.986  68.036  0.00  0.00    +0.127 C 
ATOM      3  C   UNL     1      -9.859   9.349  67.484  0.00  0.00    +0.026 C 
ATOM      4  C   UNL     1     -11.121  10.038  68.265  0.00  0.00    +0.002 C 
ATOM      5  C   UNL     1     -10.432  11.588  68.119  0.00  0.00    +0.000 C 
ATOM      6  C   UNL     1     -11.127  11.757  66.572  0.00  0.00    +0.003 C 
ATOM      7  C   UNL     1      -9.830  11.074  65.834  0.00  0.00    +0.000 C 
ATOM      8  C   UNL     1     -10.561  13.274  66.362  0.00  0.00    +0.041 C 
ATOM      9  C   UNL     1     -11.815  14.112  67.030  0.00  0.00    +0.015 C 
ATOM     10  C   UNL     1     -10.945  15.518  67.051  0.00  0.00    +0.110 C 
ATOM     11  C   UNL     1     -10.616  15.780  65.645  0.00  0.00    +0.317 C 
ATOM     12  O   UNL     1     -10.647  14.864  64.625  0.00  0.00    -0.448 OA
ATOM     13  O   UNL     1     -10.051  16.873  65.426  0.00  0.00    -0.250 OA
ATOM     14  C   UNL     1     -11.351  13.767  68.580  0.00  0.00    +0.001 C 
ATOM     15  C   UNL     1      -9.366  13.548  67.080  0.00  0.00    +0.004 C 
ATOM     16  C   UNL     1     -10.627  13.477  64.896  0.00  0.00    +0.208 C 
ATOM     17  C   UNL     1     -11.690  12.319  68.810  0.00  0.00    +0.000 C 
ATOM     18  C   UNL     1     -10.390   9.720  69.698  0.00  0.00    +0.003 C 
ATOM     19  C   UNL     1      -8.608   9.943  68.029  0.00  0.00    +0.002 C 
ATOM     20  C   UNL     1     -10.173   9.601  66.077  0.00  0.00    +0.002 C 
ATOM     21  C   UNL     1     -10.435   8.208  69.480  0.00  0.00    +0.030 C 
ATOM     22  O   UNL     1      -8.687   7.474  68.148  0.00  0.00    -0.226 OA
ENDROOT
TORSDOF 0
ENDMDL
MODEL 5
REMARK VINA RESULT:      -6.5      2.304      6.180
REMARK  Name = 
REMARK  0 active torsions:
REMARK  status: ('A' for Active; 'I' for Inactive)
REMARK                            x       y       z     vdW  Elec       q    Type
REMARK                         _______ _______ _______ _____ _____    ______ ____
ROOT
ATOM      1  C   UNL     1     -11.340  13.144  66.713  0.00  0.00    +0.033 C 
ATOM      2  C   UNL     1     -10.939  13.800  67.824  0.00  0.00    +0.127 C 
ATOM      3  C   UNL     1      -9.890  14.829  67.673  0.00  0.00    +0.026 C 
ATOM      4  C   UNL     1     -10.866  16.118  67.419  0.00  0.00    +0.002 C 
ATOM      5  C   UNL     1      -9.668  17.197  67.964  0.00  0.00    +0.000 C 
ATOM      6  C   UNL     1      -8.987  17.238  66.403  0.00  0.00    +0.003 C 
ATOM      7  C   UNL     1      -8.016  15.952  66.712  0.00  0.00    +0.000 C 
ATOM      8  C   UNL     1      -7.835  18.321  66.812  0.00  0.00    +0.041 C 
ATOM      9  C   UNL     1      -8.665  19.712  66.500  0.00  0.00    +0.015 C 
ATOM     10  C   UNL     1      -7.532  20.634  67.274  0.00  0.00    +0.110 C 
ATOM     11  C   UNL     1      -6.285  20.399  66.537  0.00  0.00    +0.317 C 
ATOM     12  O   UNL     1      -6.032  19.346  65.695  0.00  0.00    -0.448 OA
ATOM     13  O   UNL     1      -5.316  21.102  66.894  0.00  0.00    -0.250 OA
ATOM     14  C   UNL     1      -9.565  19.604  67.884  0.00  0.00    +0.001 C 
ATOM     15  C   UNL     1      -7.469  18.281  68.185  0.00  0.00    +0.004 C 
ATOM     16  C   UNL     1      -6.813  18.170  65.750  0.00  0.00    +0.208 C 
ATOM     17  C   UNL     1     -10.563  18.500  67.653  0.00  0.00    +0.000 C 
ATOM     18  C   UNL     1     -11.516  15.902  68.909  0.00  0.00    +0.003 C 
ATOM     19  C   UNL     1      -9.234  15.010  68.997  0.00  0.00    +0.002 C 
ATOM     20  C   UNL     1      -9.036  14.831  66.485  0.00  0.00    +0.002 C 
ATOM     21  C   UNL     1     -12.067  14.520  68.560  0.00  0.00    +0.030 C 
ATOM     22  O   UNL     1     -10.452  12.871  68.759  0.00  0.00    -0.226 OA
ENDROOT
TORSDOF 0
ENDMDL
MODEL 6
REMARK VINA RESULT:      -6.4      2.113      3.078
REMARK  Name = 
REMARK  0 active torsions:
REMARK  status: ('A' for Active; 'I' for Inactive)
REMARK                            x       y       z     vdW  Elec       q    Type
REMARK                         _______ _______ _______ _____ _____    ______ ____
ROOT
ATOM      1  C   UNL     1      -7.137  19.660  66.888  0.00  0.00    +0.033 C 
ATOM      2  C   UNL     1      -8.455  19.476  66.652  0.00  0.00    +0.127 C 
ATOM      3  C   UNL     1      -8.958  18.088  66.617  0.00  0.00    +0.026 C 
ATOM      4  C   UNL     1      -9.353  17.946  68.199  0.00  0.00    +0.002 C 
ATOM      5  C   UNL     1     -10.483  16.719  67.860  0.00  0.00    +0.000 C 
ATOM      6  C   UNL     1      -9.243  15.552  67.929  0.00  0.00    +0.003 C 
ATOM      7  C   UNL     1      -8.895  15.718  66.334  0.00  0.00    +0.000 C 
ATOM      8  C   UNL     1     -10.256  14.297  67.670  0.00  0.00    +0.041 C 
ATOM      9  C   UNL     1     -10.668  13.971  69.233  0.00  0.00    +0.015 C 
ATOM     10  C   UNL     1     -11.901  12.974  68.764  0.00  0.00    +0.110 C 
ATOM     11  C   UNL     1     -11.254  11.911  67.988  0.00  0.00    +0.317 C 
ATOM     12  O   UNL     1     -10.004  11.968  67.427  0.00  0.00    -0.448 OA
ATOM     13  O   UNL     1     -12.006  10.977  67.634  0.00  0.00    -0.250 OA
ATOM     14  C   UNL     1     -11.705  15.256  69.334  0.00  0.00    +0.001 C 
ATOM     15  C   UNL     1     -11.420  14.641  66.930  0.00  0.00    +0.004 C 
ATOM     16  C   UNL     1      -9.362  13.208  67.212  0.00  0.00    +0.208 C 
ATOM     17  C   UNL     1     -10.844  16.488  69.412  0.00  0.00    +0.000 C 
ATOM     18  C   UNL     1     -10.442  19.159  68.021  0.00  0.00    +0.003 C 
ATOM     19  C   UNL     1     -10.222  18.080  65.830  0.00  0.00    +0.002 C 
ATOM     20  C   UNL     1      -8.026  16.978  66.416  0.00  0.00    +0.002 C 
ATOM     21  C   UNL     1      -9.369  20.182  67.650  0.00  0.00    +0.030 C 
ATOM     22  O   UNL     1      -8.786  20.049  65.412  0.00  0.00    -0.226 OA
ENDROOT
TORSDOF 0
ENDMDL
MODEL 7
REMARK VINA RESULT:      -6.3      4.326      6.930
REMARK  Name = 
REMARK  0 active torsions:
REMARK  status: ('A' for Active; 'I' for Inactive)
REMARK                            x       y       z     vdW  Elec       q    Type
REMARK                         _______ _______ _______ _____ _____    ______ ____
ROOT
ATOM      1  C   UNL     1     -12.227  13.269  64.343  0.00  0.00    +0.033 C 
ATOM      2  C   UNL     1     -10.956  12.993  64.706  0.00  0.00    +0.127 C 
ATOM      3  C   UNL     1     -10.734  12.440  66.058  0.00  0.00    +0.026 C 
ATOM      4  C   UNL     1     -10.834  10.851  65.676  0.00  0.00    +0.002 C 
ATOM      5  C   UNL     1      -9.907  10.414  67.035  0.00  0.00    +0.000 C 
ATOM      6  C   UNL     1     -11.313  10.406  67.998  0.00  0.00    +0.003 C 
ATOM      7  C   UNL     1     -11.159  11.998  68.365  0.00  0.00    +0.000 C 
ATOM      8  C   UNL     1     -10.522   9.927  69.344  0.00  0.00    +0.041 C 
ATOM      9  C   UNL     1     -10.636   8.294  69.144  0.00  0.00    +0.015 C 
ATOM     10  C   UNL     1      -9.531   8.009  70.340  0.00  0.00    +0.110 C 
ATOM     11  C   UNL     1     -10.122   8.595  71.548  0.00  0.00    +0.317 C 
ATOM     12  O   UNL     1     -11.130   9.524  71.584  0.00  0.00    -0.448 OA
ATOM     13  O   UNL     1      -9.490   8.383  72.606  0.00  0.00    -0.250 OA
ATOM     14  C   UNL     1      -9.447   8.251  67.994  0.00  0.00    +0.001 C 
ATOM     15  C   UNL     1      -9.154  10.311  69.376  0.00  0.00    +0.004 C 
ATOM     16  C   UNL     1     -11.440  10.302  70.446  0.00  0.00    +0.208 C 
ATOM     17  C   UNL     1     -10.047   8.836  66.744  0.00  0.00    +0.000 C 
ATOM     18  C   UNL     1      -9.531  11.019  64.695  0.00  0.00    +0.003 C 
ATOM     19  C   UNL     1      -9.325  12.727  66.442  0.00  0.00    +0.002 C 
ATOM     20  C   UNL     1     -11.763  12.590  67.087  0.00  0.00    +0.002 C 
ATOM     21  C   UNL     1     -10.244  12.012  63.777  0.00  0.00    +0.030 C 
ATOM     22  O   UNL     1     -10.188  14.167  64.627  0.00  0.00    -0.226 OA
ENDROOT
TORSDOF 0
ENDMDL
MODEL 8
REMARK VINA RESULT:      -6.3      1.488      6.003
REMARK  Name = 
REMARK  0 active torsions:
REMARK  status: ('A' for Active; 'I' for Inactive)
REMARK                            x       y       z     vdW  Elec       q    Type
REMARK                         _______ _______ _______ _____ _____    ______ ____
ROOT
ATOM      1  C   UNL     1     -11.777  11.722  68.714  0.00  0.00    +0.033 C 
ATOM      2  C   UNL     1     -11.236  12.161  67.556  0.00  0.00    +0.127 C 
ATOM      3  C   UNL     1     -10.870  13.589  67.468  0.00  0.00    +0.026 C 
ATOM      4  C   UNL     1      -9.325  13.463  67.994  0.00  0.00    +0.002 C 
ATOM      5  C   UNL     1      -8.882  14.900  67.195  0.00  0.00    +0.000 C 
ATOM      6  C   UNL     1      -9.403  15.811  68.537  0.00  0.00    +0.003 C 
ATOM      7  C   UNL     1     -10.935  15.924  67.960  0.00  0.00    +0.000 C 
ATOM      8  C   UNL     1      -8.956  17.239  67.882  0.00  0.00    +0.041 C 
ATOM      9  C   UNL     1      -7.401  17.298  68.429  0.00  0.00    +0.015 C 
ATOM     10  C   UNL     1      -7.030  18.556  67.422  0.00  0.00    +0.110 C 
ATOM     11  C   UNL     1      -7.938  19.638  67.816  0.00  0.00    +0.317 C 
ATOM     12  O   UNL     1      -9.095  19.497  68.540  0.00  0.00    -0.448 OA
ATOM     13  O   UNL     1      -7.740  20.733  67.248  0.00  0.00    -0.250 OA
ATOM     14  C   UNL     1      -6.860  16.205  67.313  0.00  0.00    +0.001 C 
ATOM     15  C   UNL     1      -8.963  17.247  66.461  0.00  0.00    +0.004 C 
ATOM     16  C   UNL     1      -9.733  18.240  68.650  0.00  0.00    +0.208 C 
ATOM     17  C   UNL     1      -7.372  14.861  67.755  0.00  0.00    +0.000 C 
ATOM     18  C   UNL     1      -8.981  12.504  66.708  0.00  0.00    +0.003 C 
ATOM     19  C   UNL     1     -10.831  13.962  66.028  0.00  0.00    +0.002 C 
ATOM     20  C   UNL     1     -11.452  14.551  68.404  0.00  0.00    +0.002 C 
ATOM     21  C   UNL     1      -9.965  11.421  67.146  0.00  0.00    +0.030 C 
ATOM     22  O   UNL     1     -12.136  11.916  66.505  0.00  0.00    -0.226 OA
ENDROOT
TORSDOF 0
ENDMDL
MODEL 9
REMARK VINA RESULT:      -6.2      1.441      6.059
REMARK  Name = 
REMARK  0 active torsions:
REMARK  status: ('A' for Active; 'I' for Inactive)
REMARK                            x       y       z     vdW  Elec       q    Type
REMARK                         _______ _______ _______ _____ _____    ______ ____
ROOT
ATOM      1  C   UNL     1     -12.369  12.570  64.946  0.00  0.00    +0.033 C 
ATOM      2  C   UNL     1     -11.413  12.549  65.901  0.00  0.00    +0.127 C 
ATOM      3  C   UNL     1     -10.605  13.771  66.091  0.00  0.00    +0.026 C 
ATOM      4  C   UNL     1     -11.541  14.492  67.223  0.00  0.00    +0.002 C 
ATOM      5  C   UNL     1     -10.225  15.402  67.805  0.00  0.00    +0.000 C 
ATOM      6  C   UNL     1     -10.515  16.590  66.618  0.00  0.00    +0.003 C 
ATOM      7  C   UNL     1      -9.553  15.836  65.523  0.00  0.00    +0.000 C 
ATOM      8  C   UNL     1      -9.312  17.563  67.140  0.00  0.00    +0.041 C 
ATOM      9  C   UNL     1     -10.156  18.446  68.248  0.00  0.00    +0.015 C 
ATOM     10  C   UNL     1      -8.771  19.085  68.885  0.00  0.00    +0.110 C 
ATOM     11  C   UNL     1      -8.138  19.803  67.773  0.00  0.00    +0.317 C 
ATOM     12  O   UNL     1      -8.405  19.622  66.440  0.00  0.00    -0.448 OA
ATOM     13  O   UNL     1      -7.122  20.465  68.076  0.00  0.00    -0.250 OA
ATOM     14  C   UNL     1     -10.148  17.232  69.371  0.00  0.00    +0.001 C 
ATOM     15  C   UNL     1      -8.252  16.872  67.787  0.00  0.00    +0.004 C 
ATOM     16  C   UNL     1      -9.044  18.448  65.982  0.00  0.00    +0.208 C 
ATOM     17  C   UNL     1     -11.124  16.197  68.880  0.00  0.00    +0.000 C 
ATOM     18  C   UNL     1     -11.268  13.231  68.234  0.00  0.00    +0.003 C 
ATOM     19  C   UNL     1      -9.327  13.376  66.742  0.00  0.00    +0.002 C 
ATOM     20  C   UNL     1     -10.545  14.778  65.031  0.00  0.00    +0.002 C 
ATOM     21  C   UNL     1     -11.940  12.227  67.298  0.00  0.00    +0.030 C 
ATOM     22  O   UNL     1     -10.506  11.512  65.624  0.00  0.00    -0.226 OA
ENDROOT
TORSDOF 0
ENDMDL
