MODEL 1
REMARK VINA RESULT:      -6.7      0.000      0.000
REMARK  Name = 
REMARK  2 active torsions:
REMARK  status: ('A' for Active; 'I' for Inactive)
REMARK    1  A    between atoms: N_2  and  C_3
REMARK    2  A    between atoms: C_3  and  C_4
REMARK                            x       y       z     vdW  Elec       q    Type
REMARK                         _______ _______ _______ _____ _____    ______ ____
ROOT
ATOM      1  C   UNL     1     -10.566  15.278  67.246  0.00  0.00    +0.170 C 
ATOM      2  N   UNL     1     -10.029  16.243  68.025  0.00  0.00    +0.299 N 
ATOM      3  C   UNL     1      -8.511  16.099  67.631  0.00  0.00    +0.092 C 
ATOM      4  C   UNL     1      -8.326  17.557  66.896  0.00  0.00    +0.178 C 
ATOM      5  C   UNL     1      -8.509  18.607  67.821  0.00  0.00    +0.102 C 
ATOM      6  C   UNL     1      -8.326  20.001  66.969  0.00  0.00    +0.229 C 
ATOM      7  O   UNL     1      -7.741  20.767  68.195  0.00  0.00    -0.468 OA
ATOM      8  C   UNL     1      -6.765  19.895  68.666  0.00  0.00    +0.173 A 
ATOM      9  C   UNL     1      -5.704  19.937  69.565  0.00  0.00    +0.229 A 
ATOM     10  C   UNL     1      -5.068  18.746  69.919  0.00  0.00    +0.045 A 
ATOM     11  C   UNL     1      -5.650  17.507  69.635  0.00  0.00    -0.001 A 
ATOM     12  C   UNL     1      -6.848  17.467  68.941  0.00  0.00    -0.017 A 
ATOM     13  O   UNL     1      -4.947  21.111  69.474  0.00  0.00    -0.283 OA
ATOM     14  C   UNL     1      -6.844  19.667  66.381  0.00  0.00    +0.191 C 
ATOM     15  O   UNL     1      -6.373  20.742  66.007  0.00  0.00    -0.292 OA
ATOM     16  C   UNL     1      -6.813  18.566  65.379  0.00  0.00    +0.071 C 
ATOM     17  C   UNL     1      -7.429  18.714  68.753  0.00  0.00    +0.017 A 
ATOM     18  C   UNL     1      -9.872  18.664  68.398  0.00  0.00    +0.072 C 
ATOM     19  C   UNL     1      -6.936  17.352  66.299  0.00  0.00    +0.044 C 
ATOM     20  O   UNL     1      -9.108  17.487  65.748  0.00  0.00    -0.219 OA
ATOM     21  C   UNL     1      -7.952  16.509  69.125  0.00  0.00    +0.084 C 
ATOM     22  C   UNL     1     -10.556  17.473  67.746  0.00  0.00    +0.109 C 
ENDROOT
BRANCH   2  23
ATOM     23  C   UNL     1     -10.145  15.718  69.365  0.00  0.00    +0.108 C 
BRANCH  23  24
ATOM     24  C   UNL     1     -11.555  15.763  69.777  0.00  0.00    +0.055 C 
ATOM     25  C   UNL     1     -12.062  15.937  71.138  0.00  0.00    +0.006 C 
ATOM     26  C   UNL     1     -12.036  14.561  70.635  0.00  0.00    +0.006 C 
ENDBRANCH  23  24
ENDBRANCH   2  23
TORSDOF 2
ENDMDL
MODEL 2
REMARK VINA RESULT:      -6.6      2.950      6.625
REMARK  Name = 
REMARK  2 active torsions:
REMARK  status: ('A' for Active; 'I' for Inactive)
REMARK    1  A    between atoms: N_2  and  C_3
REMARK    2  A    between atoms: C_3  and  C_4
REMARK                            x       y       z     vdW  Elec       q    Type
REMARK                         _______ _______ _______ _____ _____    ______ ____
ROOT
ATOM      1  C   UNL     1      -8.735  17.569  66.197  0.00  0.00    +0.170 C 
ATOM      2  N   UNL     1      -8.913  16.738  67.247  0.00  0.00    +0.299 N 
ATOM      3  C   UNL     1     -10.479  16.579  67.208  0.00  0.00    +0.092 C 
ATOM      4  C   UNL     1     -10.538  14.983  66.824  0.00  0.00    +0.178 C 
ATOM      5  C   UNL     1      -9.978  14.202  67.857  0.00  0.00    +0.102 C 
ATOM      6  C   UNL     1     -10.070  12.641  67.349  0.00  0.00    +0.229 C 
ATOM      7  O   UNL     1     -10.239  12.095  68.800  0.00  0.00    -0.468 OA
ATOM      8  C   UNL     1     -11.242  12.906  69.320  0.00  0.00    +0.173 A 
ATOM      9  C   UNL     1     -12.069  12.920  70.438  0.00  0.00    +0.229 A 
ATOM     10  C   UNL     1     -12.828  14.061  70.707  0.00  0.00    +0.045 A 
ATOM     11  C   UNL     1     -12.557  15.273  70.066  0.00  0.00    -0.001 A 
ATOM     12  C   UNL     1     -11.555  15.322  69.110  0.00  0.00    -0.017 A 
ATOM     13  O   UNL     1     -12.598  11.662  70.751  0.00  0.00    -0.283 OA
ATOM     14  C   UNL     1     -11.677  12.627  67.081  0.00  0.00    +0.191 C 
ATOM     15  O   UNL     1     -12.008  11.441  67.038  0.00  0.00    -0.292 OA
ATOM     16  C   UNL     1     -12.117  13.461  65.929  0.00  0.00    +0.071 C 
ATOM     17  C   UNL     1     -10.804  14.157  69.024  0.00  0.00    +0.017 A 
ATOM     18  C   UNL     1      -8.539  14.463  68.091  0.00  0.00    +0.072 C 
ATOM     19  C   UNL     1     -12.035  14.856  66.550  0.00  0.00    +0.044 C 
ATOM     20  O   UNL     1     -10.035  14.902  65.530  0.00  0.00    -0.219 OA
ATOM     21  C   UNL     1     -10.634  16.440  68.843  0.00  0.00    +0.084 C 
ATOM     22  C   UNL     1      -8.236  15.562  67.084  0.00  0.00    +0.109 C 
ENDROOT
BRANCH   2  23
ATOM     23  C   UNL     1      -8.623  17.559  68.398  0.00  0.00    +0.108 C 
BRANCH  23  24
ATOM     24  C   UNL     1      -7.247  18.065  68.294  0.00  0.00    +0.055 C 
ATOM     25  C   UNL     1      -6.229  18.052  69.343  0.00  0.00    +0.006 C 
ATOM     26  C   UNL     1      -6.934  19.323  69.149  0.00  0.00    +0.006 C 
ENDBRANCH  23  24
ENDBRANCH   2  23
TORSDOF 2
ENDMDL
MODEL 3
REMARK VINA RESULT:      -6.5      3.022      6.234
REMARK  Name = 
REMARK  2 active torsions:
REMARK  status: ('A' for Active; 'I' for Inactive)
REMARK    1  A    between atoms: N_2  and  C_3
REMARK    2  A    between atoms: C_3  and  C_4
REMARK                            x       y       z     vdW  Elec       q    Type
REMARK                         _______ _______ _______ _____ _____    ______ ____
ROOT
ATOM      1  C   UNL     1      -9.821  18.992  68.472  0.00  0.00    +0.170 C 
ATOM      2  N   UNL     1      -9.417  17.949  67.715  0.00  0.00    +0.299 N 
ATOM      3  C   UNL     1      -9.318  16.831  68.820  0.00  0.00    +0.092 C 
ATOM      4  C   UNL     1     -10.527  15.863  68.275  0.00  0.00    +0.178 C 
ATOM      5  C   UNL     1     -10.211  15.341  67.003  0.00  0.00    +0.102 C 
ATOM      6  C   UNL     1     -11.497  14.418  66.557  0.00  0.00    +0.229 C 
ATOM      7  O   UNL     1     -10.606  13.429  65.744  0.00  0.00    -0.468 OA
ATOM      8  C   UNL     1      -9.583  13.130  66.637  0.00  0.00    +0.173 A 
ATOM      9  C   UNL     1      -8.551  12.203  66.737  0.00  0.00    +0.229 A 
ATOM     10  C   UNL     1      -7.579  12.373  67.725  0.00  0.00    +0.045 A 
ATOM     11  C   UNL     1      -7.449  13.588  68.405  0.00  0.00    -0.001 A 
ATOM     12  C   UNL     1      -8.337  14.614  68.129  0.00  0.00    -0.017 A 
ATOM     13  O   UNL     1      -8.936  10.906  66.380  0.00  0.00    -0.283 OA
ATOM     14  C   UNL     1     -11.496  13.452  67.868  0.00  0.00    +0.191 C 
ATOM     15  O   UNL     1     -12.157  12.459  67.564  0.00  0.00    -0.292 OA
ATOM     16  C   UNL     1     -11.894  14.129  69.133  0.00  0.00    +0.071 C 
ATOM     17  C   UNL     1      -9.174  14.358  67.051  0.00  0.00    +0.017 A 
ATOM     18  C   UNL     1     -10.076  16.375  65.950  0.00  0.00    +0.072 C 
ATOM     19  C   UNL     1     -10.611  14.895  69.453  0.00  0.00    +0.044 C 
ATOM     20  O   UNL     1     -11.693  16.596  68.465  0.00  0.00    -0.219 OA
ATOM     21  C   UNL     1      -8.049  16.058  68.107  0.00  0.00    +0.084 C 
ATOM     22  C   UNL     1     -10.312  17.663  66.723  0.00  0.00    +0.109 C 
ENDROOT
BRANCH   2  23
ATOM     23  C   UNL     1      -8.058  18.280  67.359  0.00  0.00    +0.108 C 
BRANCH  23  24
ATOM     24  C   UNL     1      -8.059  19.500  66.539  0.00  0.00    +0.055 C 
ATOM     25  C   UNL     1      -7.101  19.849  65.491  0.00  0.00    +0.006 C 
ATOM     26  C   UNL     1      -6.880  20.476  66.797  0.00  0.00    +0.006 C 
ENDBRANCH  23  24
ENDBRANCH   2  23
TORSDOF 2
ENDMDL
MODEL 4
REMARK VINA RESULT:      -6.5      3.676      7.046
REMARK  Name = 
REMARK  2 active torsions:
REMARK  status: ('A' for Active; 'I' for Inactive)
REMARK    1  A    between atoms: N_2  and  C_3
REMARK    2  A    between atoms: C_3  and  C_4
REMARK                            x       y       z     vdW  Elec       q    Type
REMARK                         _______ _______ _______ _____ _____    ______ ____
ROOT
ATOM      1  C   UNL     1     -10.507  16.977  65.756  0.00  0.00    +0.170 C 
ATOM      2  N   UNL     1     -10.083  16.048  66.640  0.00  0.00    +0.299 N 
ATOM      3  C   UNL     1     -11.357  15.124  66.697  0.00  0.00    +0.092 C 
ATOM      4  C   UNL     1     -10.696  13.780  66.024  0.00  0.00    +0.178 C 
ATOM      5  C   UNL     1      -9.667  13.269  66.843  0.00  0.00    +0.102 C 
ATOM      6  C   UNL     1      -9.071  11.952  66.057  0.00  0.00    +0.229 C 
ATOM      7  O   UNL     1      -8.713  11.222  67.387  0.00  0.00    -0.468 OA
ATOM      8  C   UNL     1      -9.883  11.342  68.130  0.00  0.00    +0.173 A 
ATOM      9  C   UNL     1     -10.416  10.797  69.293  0.00  0.00    +0.229 A 
ATOM     10  C   UNL     1     -11.578  11.353  69.832  0.00  0.00    +0.045 A 
ATOM     11  C   UNL     1     -12.039  12.605  69.412  0.00  0.00    -0.001 A 
ATOM     12  C   UNL     1     -11.359  13.271  68.407  0.00  0.00    -0.017 A 
ATOM     13  O   UNL     1     -10.208   9.417  69.404  0.00  0.00    -0.283 OA
ATOM     14  C   UNL     1     -10.488  11.160  65.920  0.00  0.00    +0.191 C 
ATOM     15  O   UNL     1     -10.203   9.987  65.680  0.00  0.00    -0.292 OA
ATOM     16  C   UNL     1     -11.460  11.792  64.986  0.00  0.00    +0.071 C 
ATOM     17  C   UNL     1     -10.163  12.668  68.042  0.00  0.00    +0.017 A 
ATOM     18  C   UNL     1      -8.519  14.192  67.005  0.00  0.00    +0.072 C 
ATOM     19  C   UNL     1     -11.964  12.947  65.851  0.00  0.00    +0.044 C 
ATOM     20  O   UNL     1     -10.437  14.126  64.702  0.00  0.00    -0.219 OA
ATOM     21  C   UNL     1     -11.155  14.725  68.283  0.00  0.00    +0.084 C 
ATOM     22  C   UNL     1      -8.958  15.407  66.204  0.00  0.00    +0.109 C 
ENDROOT
BRANCH   2  23
ATOM     23  C   UNL     1     -10.044  16.753  67.899  0.00  0.00    +0.108 C 
BRANCH  23  24
ATOM     24  C   UNL     1      -9.429  18.072  67.692  0.00  0.00    +0.055 C 
ATOM     25  C   UNL     1      -8.344  18.662  68.474  0.00  0.00    +0.006 C 
ATOM     26  C   UNL     1      -9.697  19.114  68.813  0.00  0.00    +0.006 C 
ENDBRANCH  23  24
ENDBRANCH   2  23
TORSDOF 2
ENDMDL
MODEL 5
REMARK VINA RESULT:      -6.4      1.286      1.547
REMARK  Name = 
REMARK  2 active torsions:
REMARK  status: ('A' for Active; 'I' for Inactive)
REMARK    1  A    between atoms: N_2  and  C_3
REMARK    2  A    between atoms: C_3  and  C_4
REMARK                            x       y       z     vdW  Elec       q    Type
REMARK                         _______ _______ _______ _____ _____    ______ ____
ROOT
ATOM      1  C   UNL     1     -10.660  15.527  65.816  0.00  0.00    +0.170 C 
ATOM      2  N   UNL     1      -9.986  15.902  66.924  0.00  0.00    +0.299 N 
ATOM      3  C   UNL     1      -8.574  16.204  66.296  0.00  0.00    +0.092 C 
ATOM      4  C   UNL     1      -8.541  17.822  66.571  0.00  0.00    +0.178 C 
ATOM      5  C   UNL     1      -8.543  18.092  67.956  0.00  0.00    +0.102 C 
ATOM      6  C   UNL     1      -8.536  19.730  68.101  0.00  0.00    +0.229 C 
ATOM      7  O   UNL     1      -7.725  19.688  69.432  0.00  0.00    -0.468 OA
ATOM      8  C   UNL     1      -6.673  18.832  69.126  0.00  0.00    +0.173 A 
ATOM      9  C   UNL     1      -5.457  18.463  69.693  0.00  0.00    +0.229 A 
ATOM     10  C   UNL     1      -4.760  17.379  69.155  0.00  0.00    +0.045 A 
ATOM     11  C   UNL     1      -5.381  16.488  68.274  0.00  0.00    -0.001 A 
ATOM     12  C   UNL     1      -6.691  16.722  67.891  0.00  0.00    -0.017 A 
ATOM     13  O   UNL     1      -4.737  19.544  70.212  0.00  0.00    -0.283 OA
ATOM     14  C   UNL     1      -7.196  19.990  67.212  0.00  0.00    +0.191 C 
ATOM     15  O   UNL     1      -6.811  21.125  67.494  0.00  0.00    -0.292 OA
ATOM     16  C   UNL     1      -7.356  19.706  65.759  0.00  0.00    +0.071 C 
ATOM     17  C   UNL     1      -7.303  17.758  68.585  0.00  0.00    +0.017 A 
ATOM     18  C   UNL     1      -9.768  17.633  68.651  0.00  0.00    +0.072 C 
ATOM     19  C   UNL     1      -7.293  18.179  65.766  0.00  0.00    +0.044 C 
ATOM     20  O   UNL     1      -9.532  18.350  65.750  0.00  0.00    -0.219 OA
ATOM     21  C   UNL     1      -7.734  15.716  67.628  0.00  0.00    +0.084 C 
ATOM     22  C   UNL     1     -10.561  16.985  67.528  0.00  0.00    +0.109 C 
ENDROOT
BRANCH   2  23
ATOM     23  C   UNL     1      -9.836  14.679  67.675  0.00  0.00    +0.108 C 
BRANCH  23  24
ATOM     24  C   UNL     1     -11.162  14.083  67.892  0.00  0.00    +0.055 C 
ATOM     25  C   UNL     1     -11.872  13.970  69.165  0.00  0.00    +0.006 C 
ATOM     26  C   UNL     1     -11.173  12.764  68.713  0.00  0.00    +0.006 C 
ENDBRANCH  23  24
ENDBRANCH   2  23
TORSDOF 2
ENDMDL
MODEL 6
REMARK VINA RESULT:      -6.4      4.185      7.010
REMARK  Name = 
REMARK  2 active torsions:
REMARK  status: ('A' for Active; 'I' for Inactive)
REMARK    1  A    between atoms: N_2  and  C_3
REMARK    2  A    between atoms: C_3  and  C_4
REMARK                            x       y       z     vdW  Elec       q    Type
REMARK                         _______ _______ _______ _____ _____    ______ ____
ROOT
ATOM      1  C   UNL     1     -10.068  10.056  68.931  0.00  0.00    +0.170 C 
ATOM      2  N   UNL     1      -9.885  10.875  67.872  0.00  0.00    +0.299 N 
ATOM      3  C   UNL     1     -11.278  11.610  67.853  0.00  0.00    +0.092 C 
ATOM      4  C   UNL     1     -10.746  13.118  68.228  0.00  0.00    +0.178 C 
ATOM      5  C   UNL     1      -9.900  13.615  67.213  0.00  0.00    +0.102 C 
ATOM      6  C   UNL     1      -9.416  15.105  67.712  0.00  0.00    +0.229 C 
ATOM      7  O   UNL     1      -9.320  15.649  66.254  0.00  0.00    -0.468 OA
ATOM      8  C   UNL     1     -10.536  15.264  65.700  0.00  0.00    +0.173 A 
ATOM      9  C   UNL     1     -11.271  15.542  64.552  0.00  0.00    +0.229 A 
ATOM     10  C   UNL     1     -12.393  14.765  64.260  0.00  0.00    +0.045 A 
ATOM     11  C   UNL     1     -12.618  13.550  64.916  0.00  0.00    -0.001 A 
ATOM     12  C   UNL     1     -11.740  13.146  65.907  0.00  0.00    -0.017 A 
ATOM     13  O   UNL     1     -11.278  16.900  64.215  0.00  0.00    -0.283 OA
ATOM     14  C   UNL     1     -10.908  15.725  67.921  0.00  0.00    +0.191 C 
ATOM     15  O   UNL     1     -10.771  16.948  67.947  0.00  0.00    -0.292 OA
ATOM     16  C   UNL     1     -11.667  15.137  69.058  0.00  0.00    +0.071 C 
ATOM     17  C   UNL     1     -10.610  13.945  66.017  0.00  0.00    +0.017 A 
ATOM     18  C   UNL     1      -8.657  12.828  67.035  0.00  0.00    +0.072 C 
ATOM     19  C   UNL     1     -12.093  13.803  68.446  0.00  0.00    +0.044 C 
ATOM     20  O   UNL     1     -10.292  13.027  69.540  0.00  0.00    -0.219 OA
ATOM     21  C   UNL     1     -11.315  11.769  66.213  0.00  0.00    +0.084 C 
ATOM     22  C   UNL     1      -8.823  11.714  68.056  0.00  0.00    +0.109 C 
ENDROOT
BRANCH   2  23
ATOM     23  C   UNL     1      -9.888   9.985  66.736  0.00  0.00    +0.108 C 
BRANCH  23  24
ATOM     24  C   UNL     1      -8.723   9.093  66.823  0.00  0.00    +0.055 C 
ATOM     25  C   UNL     1      -7.665   8.937  65.825  0.00  0.00    +0.006 C 
ATOM     26  C   UNL     1      -8.713   7.912  65.813  0.00  0.00    +0.006 C 
ENDBRANCH  23  24
ENDBRANCH   2  23
TORSDOF 2
ENDMDL
MODEL 7
REMARK VINA RESULT:      -6.3      2.757      4.155
REMARK  Name = 
REMARK  2 active torsions:
REMARK  status: ('A' for Active; 'I' for Inactive)
REMARK    1  A    between atoms: N_2  and  C_3
REMARK    2  A    between atoms: C_3  and  C_4
REMARK                            x       y       z     vdW  Elec       q    Type
REMARK                         _______ _______ _______ _____ _____    ______ ____
ROOT
ATOM      1  C   UNL     1     -11.653  11.513  67.117  0.00  0.00    +0.170 C 
ATOM      2  N   UNL     1     -10.969  12.383  67.892  0.00  0.00    +0.299 N 
ATOM      3  C   UNL     1     -10.007  13.010  66.815  0.00  0.00    +0.092 C 
ATOM      4  C   UNL     1     -10.607  14.539  66.834  0.00  0.00    +0.178 C 
ATOM      5  C   UNL     1     -10.406  15.136  68.097  0.00  0.00    +0.102 C 
ATOM      6  C   UNL     1     -11.067  16.639  68.000  0.00  0.00    +0.229 C 
ATOM      7  O   UNL     1     -10.034  17.243  69.000  0.00  0.00    -0.468 OA
ATOM      8  C   UNL     1      -8.819  16.789  68.502  0.00  0.00    +0.173 A 
ATOM      9  C   UNL     1      -7.468  17.053  68.702  0.00  0.00    +0.229 A 
ATOM     10  C   UNL     1      -6.518  16.204  68.131  0.00  0.00    +0.045 A 
ATOM     11  C   UNL     1      -6.883  14.952  67.626  0.00  0.00    -0.001 A 
ATOM     12  C   UNL     1      -8.217  14.578  67.646  0.00  0.00    -0.017 A 
ATOM     13  O   UNL     1      -7.181  18.418  68.811  0.00  0.00    -0.283 OA
ATOM     14  C   UNL     1     -10.210  17.136  66.706  0.00  0.00    +0.191 C 
ATOM     15  O   UNL     1     -10.293  18.364  66.690  0.00  0.00    -0.292 OA
ATOM     16  C   UNL     1     -10.562  16.448  65.433  0.00  0.00    +0.071 C 
ATOM     17  C   UNL     1      -9.035  15.457  68.344  0.00  0.00    +0.017 A 
ATOM     18  C   UNL     1     -11.122  14.454  69.200  0.00  0.00    +0.072 C 
ATOM     19  C   UNL     1      -9.853  15.110  65.636  0.00  0.00    +0.044 C 
ATOM     20  O   UNL     1     -11.887  14.433  66.302  0.00  0.00    -0.219 OA
ATOM     21  C   UNL     1      -8.759  13.227  67.869  0.00  0.00    +0.084 C 
ATOM     22  C   UNL     1     -11.797  13.293  68.487  0.00  0.00    +0.109 C 
ENDROOT
BRANCH   2  23
ATOM     23  C   UNL     1     -10.143  11.539  68.722  0.00  0.00    +0.108 C 
BRANCH  23  24
ATOM     24  C   UNL     1     -10.959  10.433  69.245  0.00  0.00    +0.055 C 
ATOM     25  C   UNL     1     -11.505  10.313  70.596  0.00  0.00    +0.006 C 
ATOM     26  C   UNL     1     -10.276   9.560  70.333  0.00  0.00    +0.006 C 
ENDBRANCH  23  24
ENDBRANCH   2  23
TORSDOF 2
ENDMDL
MODEL 8
REMARK VINA RESULT:      -6.2      3.218      6.817
REMARK  Name = 
REMARK  2 active torsions:
REMARK  status: ('A' for Active; 'I' for Inactive)
REMARK    1  A    between atoms: N_2  and  C_3
REMARK    2  A    between atoms: C_3  and  C_4
REMARK                            x       y       z     vdW  Elec       q    Type
REMARK                         _______ _______ _______ _____ _____    ______ ____
ROOT
ATOM      1  C   UNL     1      -8.401  17.286  69.094  0.00  0.00    +0.170 C 
ATOM      2  N   UNL     1      -9.556  16.795  68.596  0.00  0.00    +0.299 N 
ATOM      3  C   UNL     1      -9.018  16.105  67.287  0.00  0.00    +0.092 C 
ATOM      4  C   UNL     1      -9.342  14.548  67.699  0.00  0.00    +0.178 C 
ATOM      5  C   UNL     1     -10.732  14.349  67.837  0.00  0.00    +0.102 C 
ATOM      6  C   UNL     1     -10.926  12.775  68.273  0.00  0.00    +0.229 C 
ATOM      7  O   UNL     1     -12.300  12.660  67.543  0.00  0.00    -0.468 OA
ATOM      8  C   UNL     1     -12.028  13.193  66.288  0.00  0.00    +0.173 A 
ATOM      9  C   UNL     1     -12.651  13.253  65.046  0.00  0.00    +0.229 A 
ATOM     10  C   UNL     1     -12.121  14.089  64.061  0.00  0.00    +0.045 A 
ATOM     11  C   UNL     1     -11.181  15.074  64.381  0.00  0.00    -0.001 A 
ATOM     12  C   UNL     1     -10.732  15.178  65.687  0.00  0.00    -0.017 A 
ATOM     13  O   UNL     1     -13.243  12.043  64.664  0.00  0.00    -0.283 OA
ATOM     14  C   UNL     1     -10.122  12.132  67.010  0.00  0.00    +0.191 C 
ATOM     15  O   UNL     1     -10.460  10.950  66.955  0.00  0.00    -0.292 OA
ATOM     16  C   UNL     1      -8.655  12.385  67.022  0.00  0.00    +0.071 C 
ATOM     17  C   UNL     1     -11.420  14.371  66.584  0.00  0.00    +0.017 A 
ATOM     18  C   UNL     1     -11.343  15.145  68.927  0.00  0.00    +0.072 C 
ATOM     19  C   UNL     1      -8.621  13.840  66.555  0.00  0.00    +0.044 C 
ATOM     20  O   UNL     1      -8.483  14.265  68.755  0.00  0.00    -0.219 OA
ATOM     21  C   UNL     1     -10.380  16.411  66.411  0.00  0.00    +0.084 C 
ATOM     22  C   UNL     1     -10.158  15.930  69.466  0.00  0.00    +0.109 C 
ENDROOT
BRANCH   2  23
ATOM     23  C   UNL     1     -10.278  17.967  68.161  0.00  0.00    +0.108 C 
BRANCH  23  24
ATOM     24  C   UNL     1      -9.338  19.090  68.033  0.00  0.00    +0.055 C 
ATOM     25  C   UNL     1      -9.680  20.505  67.894  0.00  0.00    +0.006 C 
ATOM     26  C   UNL     1      -9.339  19.803  66.653  0.00  0.00    +0.006 C 
ENDBRANCH  23  24
ENDBRANCH   2  23
TORSDOF 2
ENDMDL
MODEL 9
REMARK VINA RESULT:      -6.0      3.973      6.096
REMARK  Name = 
REMARK  2 active torsions:
REMARK  status: ('A' for Active; 'I' for Inactive)
REMARK    1  A    between atoms: N_2  and  C_3
REMARK    2  A    between atoms: C_3  and  C_4
REMARK                            x       y       z     vdW  Elec       q    Type
REMARK                         _______ _______ _______ _____ _____    ______ ____
ROOT
ATOM      1  C   UNL     1     -10.579   9.060  67.671  0.00  0.00    +0.170 C 
ATOM      2  N   UNL     1     -10.417  10.311  68.154  0.00  0.00    +0.299 N 
ATOM      3  C   UNL     1      -9.496  10.920  67.031  0.00  0.00    +0.092 C 
ATOM      4  C   UNL     1     -10.554  12.030  66.444  0.00  0.00    +0.178 C 
ATOM      5  C   UNL     1     -10.856  12.998  67.426  0.00  0.00    +0.102 C 
ATOM      6  C   UNL     1     -11.934  14.028  66.733  0.00  0.00    +0.229 C 
ATOM      7  O   UNL     1     -11.417  15.248  67.556  0.00  0.00    -0.468 OA
ATOM      8  C   UNL     1     -10.039  15.176  67.382  0.00  0.00    +0.173 A 
ATOM      9  C   UNL     1      -8.935  15.989  67.616  0.00  0.00    +0.229 A 
ATOM     10  C   UNL     1      -7.654  15.448  67.486  0.00  0.00    +0.045 A 
ATOM     11  C   UNL     1      -7.460  14.065  67.423  0.00  0.00    -0.001 A 
ATOM     12  C   UNL     1      -8.563  13.227  67.435  0.00  0.00    -0.017 A 
ATOM     13  O   UNL     1      -9.148  17.327  67.263  0.00  0.00    -0.283 OA
ATOM     14  C   UNL     1     -11.017  14.419  65.445  0.00  0.00    +0.191 C 
ATOM     15  O   UNL     1     -11.494  15.457  64.986  0.00  0.00    -0.292 OA
ATOM     16  C   UNL     1     -10.821  13.312  64.469  0.00  0.00    +0.071 C 
ATOM     17  C   UNL     1      -9.762  13.881  67.685  0.00  0.00    +0.017 A 
ATOM     18  C   UNL     1     -11.540  12.444  68.618  0.00  0.00    +0.072 C 
ATOM     19  C   UNL     1      -9.776  12.475  65.207  0.00  0.00    +0.044 C 
ATOM     20  O   UNL     1     -11.569  11.287  65.852  0.00  0.00    -0.219 OA
ATOM     21  C   UNL     1      -8.666  11.900  68.064  0.00  0.00    +0.084 C 
ATOM     22  C   UNL     1     -11.611  10.960  68.297  0.00  0.00    +0.109 C 
ENDROOT
BRANCH   2  23
ATOM     23  C   UNL     1      -9.572  10.134  69.311  0.00  0.00    +0.108 C 
BRANCH  23  24
ATOM     24  C   UNL     1     -10.116   9.050  70.141  0.00  0.00    +0.055 C 
ATOM     25  C   UNL     1     -10.696   9.179  71.477  0.00  0.00    +0.006 C 
ATOM     26  C   UNL     1      -9.304   8.723  71.424  0.00  0.00    +0.006 C 
ENDBRANCH  23  24
ENDBRANCH   2  23
TORSDOF 2
ENDMDL
