MODEL 1
REMARK VINA RESULT:      -6.6      0.000      0.000
REMARK  Name = 
REMARK  3 active torsions:
REMARK  status: ('A' for Active; 'I' for Inactive)
REMARK    1  A    between atoms: N_5  and  C_6
REMARK    2  A    between atoms: C_6  and  C_7
REMARK    3  A    between atoms: C_6  and  C_13
REMARK                            x       y       z     vdW  Elec       q    Type
REMARK                         _______ _______ _______ _____ _____    ______ ____
ROOT
ATOM      1  C   UNL     1     -11.844  15.592  69.312  0.00  0.00    +0.103 C 
ENDROOT
BRANCH   1   6
ATOM      2  C   UNL     1      -6.931  17.355  67.538  0.00  0.00    +0.090 C 
ATOM      3  N   UNL     1      -8.238  16.835  67.847  0.00  0.00    -0.269 NA
ATOM      4  C   UNL     1      -9.121  17.906  68.304  0.00  0.00    +0.090 C 
ATOM      5  C   UNL     1     -10.519  17.312  68.264  0.00  0.00    +0.090 C 
ATOM      6  N   UNL     1     -10.577  16.269  69.260  0.00  0.00    -0.264 NA
ATOM      7  C   UNL     1      -9.526  15.292  69.132  0.00  0.00    +0.090 C 
ATOM      8  C   UNL     1      -8.163  15.892  68.952  0.00  0.00    +0.090 C 
ENDBRANCH   1   6
BRANCH   1   9
ATOM      9  C   UNL     1     -12.351  15.448  70.709  0.00  0.00    -0.004 A 
ATOM     10  C   UNL     1     -11.704  16.168  71.704  0.00  0.00    -0.003 A 
ATOM     11  C   UNL     1     -12.153  16.064  73.013  0.00  0.00    -0.000 A 
ATOM     12  C   UNL     1     -13.348  15.419  73.310  0.00  0.00    -0.000 A 
ATOM     13  C   UNL     1     -14.148  15.134  72.214  0.00  0.00    -0.000 A 
ATOM     14  C   UNL     1     -13.709  15.245  70.916  0.00  0.00    -0.003 A 
ENDBRANCH   1   9
BRANCH   1  15
ATOM     15  C   UNL     1     -11.736  14.261  68.642  0.00  0.00    -0.004 A 
ATOM     16  C   UNL     1     -11.725  13.104  69.412  0.00  0.00    -0.003 A 
ATOM     17  C   UNL     1     -11.701  11.897  68.728  0.00  0.00    -0.000 A 
ATOM     18  C   UNL     1     -11.415  11.883  67.373  0.00  0.00    -0.000 A 
ATOM     19  C   UNL     1     -11.559  13.038  66.629  0.00  0.00    -0.000 A 
ATOM     20  C   UNL     1     -12.061  14.151  67.295  0.00  0.00    -0.003 A 
ENDBRANCH   1  15
TORSDOF 3
ENDMDL
MODEL 2
REMARK VINA RESULT:      -6.6      2.009      4.702
REMARK  Name = 
REMARK  3 active torsions:
REMARK  status: ('A' for Active; 'I' for Inactive)
REMARK    1  A    between atoms: N_5  and  C_6
REMARK    2  A    between atoms: C_6  and  C_7
REMARK    3  A    between atoms: C_6  and  C_13
REMARK                            x       y       z     vdW  Elec       q    Type
REMARK                         _______ _______ _______ _____ _____    ______ ____
ROOT
ATOM      1  C   UNL     1     -10.443  15.033  68.007  0.00  0.00    +0.103 C 
ENDROOT
BRANCH   1   6
ATOM      2  C   UNL     1     -12.189  12.294  63.552  0.00  0.00    +0.090 C 
ATOM      3  N   UNL     1     -11.735  12.863  64.795  0.00  0.00    -0.269 NA
ATOM      4  C   UNL     1     -12.660  13.898  65.253  0.00  0.00    +0.090 C 
ATOM      5  C   UNL     1     -12.271  14.165  66.699  0.00  0.00    +0.090 C 
ATOM      6  N   UNL     1     -10.955  14.755  66.692  0.00  0.00    -0.264 NA
ATOM      7  C   UNL     1      -9.982  13.982  65.963  0.00  0.00    +0.090 C 
ATOM      8  C   UNL     1     -10.458  13.533  64.612  0.00  0.00    +0.090 C 
ENDBRANCH   1   6
BRANCH   1   9
ATOM      9  C   UNL     1     -11.459  14.785  69.072  0.00  0.00    -0.004 A 
ATOM     10  C   UNL     1     -11.445  13.546  69.698  0.00  0.00    -0.003 A 
ATOM     11  C   UNL     1     -12.371  13.284  70.699  0.00  0.00    -0.000 A 
ATOM     12  C   UNL     1     -13.168  14.297  71.218  0.00  0.00    -0.000 A 
ATOM     13  C   UNL     1     -12.793  15.582  70.856  0.00  0.00    -0.000 A 
ATOM     14  C   UNL     1     -11.869  15.844  69.872  0.00  0.00    -0.003 A 
ENDBRANCH   1   9
BRANCH   1  15
ATOM     15  C   UNL     1      -9.936  16.437  68.067  0.00  0.00    -0.004 A 
ATOM     16  C   UNL     1      -8.672  16.689  68.586  0.00  0.00    -0.003 A 
ATOM     17  C   UNL     1      -8.228  18.003  68.544  0.00  0.00    -0.000 A 
ATOM     18  C   UNL     1      -9.125  19.020  68.260  0.00  0.00    -0.000 A 
ATOM     19  C   UNL     1     -10.320  18.727  67.632  0.00  0.00    -0.000 A 
ATOM     20  C   UNL     1     -10.518  17.404  67.254  0.00  0.00    -0.003 A 
ENDBRANCH   1  15
TORSDOF 3
ENDMDL
MODEL 3
REMARK VINA RESULT:      -6.2      1.491      4.353
REMARK  Name = 
REMARK  3 active torsions:
REMARK  status: ('A' for Active; 'I' for Inactive)
REMARK    1  A    between atoms: N_5  and  C_6
REMARK    2  A    between atoms: C_6  and  C_7
REMARK    3  A    between atoms: C_6  and  C_13
REMARK                            x       y       z     vdW  Elec       q    Type
REMARK                         _______ _______ _______ _____ _____    ______ ____
ROOT
ATOM      1  C   UNL     1     -10.350  15.152  68.333  0.00  0.00    +0.103 C 
ENDROOT
BRANCH   1   6
ATOM      2  C   UNL     1      -8.138  20.067  67.173  0.00  0.00    +0.090 C 
ATOM      3  N   UNL     1      -8.662  18.734  67.326  0.00  0.00    -0.269 NA
ATOM      4  C   UNL     1     -10.106  18.773  67.550  0.00  0.00    +0.090 C 
ATOM      5  C   UNL     1     -10.576  17.341  67.352  0.00  0.00    +0.090 C 
ATOM      6  N   UNL     1     -10.010  16.547  68.415  0.00  0.00    -0.264 NA
ATOM      7  C   UNL     1      -8.581  16.677  68.532  0.00  0.00    +0.090 C 
ATOM      8  C   UNL     1      -8.100  18.099  68.508  0.00  0.00    +0.090 C 
ENDBRANCH   1   6
BRANCH   1   9
ATOM      9  C   UNL     1     -10.861  14.773  66.983  0.00  0.00    -0.004 A 
ATOM     10  C   UNL     1      -9.956  14.227  66.083  0.00  0.00    -0.003 A 
ATOM     11  C   UNL     1     -10.399  13.856  64.821  0.00  0.00    -0.000 A 
ATOM     12  C   UNL     1     -11.755  13.834  64.517  0.00  0.00    -0.000 A 
ATOM     13  C   UNL     1     -12.602  13.952  65.609  0.00  0.00    -0.000 A 
ATOM     14  C   UNL     1     -12.165  14.310  66.862  0.00  0.00    -0.003 A 
ENDBRANCH   1   9
BRANCH   1  15
ATOM     15  C   UNL     1     -11.341  14.808  69.397  0.00  0.00    -0.004 A 
ATOM     16  C   UNL     1     -11.533  13.478  69.753  0.00  0.00    -0.003 A 
ATOM     17  C   UNL     1     -12.410  13.231  70.799  0.00  0.00    -0.000 A 
ATOM     18  C   UNL     1     -13.243  14.241  71.248  0.00  0.00    -0.000 A 
ATOM     19  C   UNL     1     -12.937  15.559  70.967  0.00  0.00    -0.000 A 
ATOM     20  C   UNL     1     -11.746  15.793  70.291  0.00  0.00    -0.003 A 
ENDBRANCH   1  15
TORSDOF 3
ENDMDL
MODEL 4
REMARK VINA RESULT:      -6.2      1.647      4.852
REMARK  Name = 
REMARK  3 active torsions:
REMARK  status: ('A' for Active; 'I' for Inactive)
REMARK    1  A    between atoms: N_5  and  C_6
REMARK    2  A    between atoms: C_6  and  C_7
REMARK    3  A    between atoms: C_6  and  C_13
REMARK                            x       y       z     vdW  Elec       q    Type
REMARK                         _______ _______ _______ _____ _____    ______ ____
ROOT
ATOM      1  C   UNL     1     -10.534  14.969  68.097  0.00  0.00    +0.103 C 
ENDROOT
BRANCH   1   6
ATOM      2  C   UNL     1     -13.268  14.260  72.832  0.00  0.00    +0.090 C 
ATOM      3  N   UNL     1     -12.417  14.468  71.688  0.00  0.00    -0.269 NA
ATOM      4  C   UNL     1     -12.894  15.598  70.894  0.00  0.00    +0.090 C 
ATOM      5  C   UNL     1     -11.753  15.925  69.943  0.00  0.00    +0.090 C 
ATOM      6  N   UNL     1     -11.609  14.810  69.039  0.00  0.00    -0.264 NA
ATOM      7  C   UNL     1     -11.463  13.542  69.708  0.00  0.00    +0.090 C 
ATOM      8  C   UNL     1     -12.467  13.317  70.801  0.00  0.00    +0.090 C 
ENDBRANCH   1   6
BRANCH   1   9
ATOM      9  C   UNL     1     -10.063  16.383  68.013  0.00  0.00    -0.004 A 
ATOM     10  C   UNL     1      -8.744  16.643  68.358  0.00  0.00    -0.003 A 
ATOM     11  C   UNL     1      -8.269  17.945  68.284  0.00  0.00    -0.000 A 
ATOM     12  C   UNL     1      -9.022  18.947  67.684  0.00  0.00    -0.000 A 
ATOM     13  C   UNL     1     -10.121  18.503  66.964  0.00  0.00    -0.000 A 
ATOM     14  C   UNL     1     -10.588  17.211  67.029  0.00  0.00    -0.003 A 
ENDBRANCH   1   9
BRANCH   1  15
ATOM     15  C   UNL     1     -10.958  14.466  66.755  0.00  0.00    -0.004 A 
ATOM     16  C   UNL     1      -9.997  14.025  65.853  0.00  0.00    -0.003 A 
ATOM     17  C   UNL     1     -10.458  13.498  64.655  0.00  0.00    -0.000 A 
ATOM     18  C   UNL     1     -11.783  13.679  64.292  0.00  0.00    -0.000 A 
ATOM     19  C   UNL     1     -12.721  13.999  65.255  0.00  0.00    -0.000 A 
ATOM     20  C   UNL     1     -12.273  14.054  66.569  0.00  0.00    -0.003 A 
ENDBRANCH   1  15
TORSDOF 3
ENDMDL
MODEL 5
REMARK VINA RESULT:      -6.1      1.423      2.462
REMARK  Name = 
REMARK  3 active torsions:
REMARK  status: ('A' for Active; 'I' for Inactive)
REMARK    1  A    between atoms: N_5  and  C_6
REMARK    2  A    between atoms: C_6  and  C_7
REMARK    3  A    between atoms: C_6  and  C_13
REMARK                            x       y       z     vdW  Elec       q    Type
REMARK                         _______ _______ _______ _____ _____    ______ ____
ROOT
ATOM      1  C   UNL     1     -11.265  15.297  67.630  0.00  0.00    +0.103 C 
ENDROOT
BRANCH   1   6
ATOM      2  C   UNL     1      -7.160  18.880  68.476  0.00  0.00    +0.090 C 
ATOM      3  N   UNL     1      -8.318  18.030  68.369  0.00  0.00    -0.269 NA
ATOM      4  C   UNL     1      -7.970  16.646  68.684  0.00  0.00    +0.090 C 
ATOM      5  C   UNL     1      -9.300  15.935  68.872  0.00  0.00    +0.090 C 
ATOM      6  N   UNL     1      -9.968  15.917  67.593  0.00  0.00    -0.264 NA
ATOM      7  C   UNL     1     -10.086  17.218  66.987  0.00  0.00    +0.090 C 
ATOM      8  C   UNL     1      -8.810  18.008  67.001  0.00  0.00    +0.090 C 
ENDBRANCH   1   6
BRANCH   1   9
ATOM      9  C   UNL     1     -11.640  14.855  69.006  0.00  0.00    -0.004 A 
ATOM     10  C   UNL     1     -12.415  15.717  69.769  0.00  0.00    -0.003 A 
ATOM     11  C   UNL     1     -12.789  15.335  71.050  0.00  0.00    -0.000 A 
ATOM     12  C   UNL     1     -12.575  14.037  71.500  0.00  0.00    -0.000 A 
ATOM     13  C   UNL     1     -12.216  13.128  70.517  0.00  0.00    -0.000 A 
ATOM     14  C   UNL     1     -11.854  13.503  69.244  0.00  0.00    -0.003 A 
ENDBRANCH   1   9
BRANCH   1  15
ATOM     15  C   UNL     1     -11.308  14.153  66.671  0.00  0.00    -0.004 A 
ATOM     16  C   UNL     1     -12.455  13.931  65.917  0.00  0.00    -0.003 A 
ATOM     17  C   UNL     1     -12.405  12.901  64.989  0.00  0.00    -0.000 A 
ATOM     18  C   UNL     1     -11.365  11.987  65.035  0.00  0.00    -0.000 A 
ATOM     19  C   UNL     1     -10.196  12.310  65.698  0.00  0.00    -0.000 A 
ATOM     20  C   UNL     1     -10.114  13.591  66.231  0.00  0.00    -0.003 A 
ENDBRANCH   1  15
TORSDOF 3
ENDMDL
MODEL 6
REMARK VINA RESULT:      -6.1      2.476      5.075
REMARK  Name = 
REMARK  3 active torsions:
REMARK  status: ('A' for Active; 'I' for Inactive)
REMARK    1  A    between atoms: N_5  and  C_6
REMARK    2  A    between atoms: C_6  and  C_7
REMARK    3  A    between atoms: C_6  and  C_13
REMARK                            x       y       z     vdW  Elec       q    Type
REMARK                         _______ _______ _______ _____ _____    ______ ____
ROOT
ATOM      1  C   UNL     1      -9.903  13.124  66.882  0.00  0.00    +0.103 C 
ENDROOT
BRANCH   1   6
ATOM      2  C   UNL     1      -7.457  17.980  65.966  0.00  0.00    +0.090 C 
ATOM      3  N   UNL     1      -8.035  16.664  66.058  0.00  0.00    -0.269 NA
ATOM      4  C   UNL     1      -9.487  16.751  66.202  0.00  0.00    +0.090 C 
ATOM      5  C   UNL     1      -9.997  15.342  65.944  0.00  0.00    +0.090 C 
ATOM      6  N   UNL     1      -9.519  14.504  67.016  0.00  0.00    -0.264 NA
ATOM      7  C   UNL     1      -8.095  14.578  67.215  0.00  0.00    +0.090 C 
ATOM      8  C   UNL     1      -7.563  15.982  67.252  0.00  0.00    +0.090 C 
ENDBRANCH   1   6
BRANCH   1   9
ATOM      9  C   UNL     1     -10.709  12.880  65.650  0.00  0.00    -0.004 A 
ATOM     10  C   UNL     1     -10.200  11.989  64.715  0.00  0.00    -0.003 A 
ATOM     11  C   UNL     1     -10.927  11.732  63.561  0.00  0.00    -0.000 A 
ATOM     12  C   UNL     1     -12.232  12.189  63.422  0.00  0.00    -0.000 A 
ATOM     13  C   UNL     1     -12.811  12.672  64.585  0.00  0.00    -0.000 A 
ATOM     14  C   UNL     1     -12.095  12.919  65.733  0.00  0.00    -0.003 A 
ENDBRANCH   1   9
BRANCH   1  15
ATOM     15  C   UNL     1     -10.644  12.683  68.102  0.00  0.00    -0.004 A 
ATOM     16  C   UNL     1     -10.592  11.350  68.493  0.00  0.00    -0.003 A 
ATOM     17  C   UNL     1     -11.237  11.019  69.675  0.00  0.00    -0.000 A 
ATOM     18  C   UNL     1     -12.110  11.923  70.257  0.00  0.00    -0.000 A 
ATOM     19  C   UNL     1     -12.036  13.262  69.921  0.00  0.00    -0.000 A 
ATOM     20  C   UNL     1     -11.019  13.631  69.048  0.00  0.00    -0.003 A 
ENDBRANCH   1  15
TORSDOF 3
ENDMDL
MODEL 7
REMARK VINA RESULT:      -6.0      2.139      3.599
REMARK  Name = 
REMARK  3 active torsions:
REMARK  status: ('A' for Active; 'I' for Inactive)
REMARK    1  A    between atoms: N_5  and  C_6
REMARK    2  A    between atoms: C_6  and  C_7
REMARK    3  A    between atoms: C_6  and  C_13
REMARK                            x       y       z     vdW  Elec       q    Type
REMARK                         _______ _______ _______ _____ _____    ______ ____
ROOT
ATOM      1  C   UNL     1     -11.319  14.146  66.918  0.00  0.00    +0.103 C 
ENDROOT
BRANCH   1   6
ATOM      2  C   UNL     1      -7.356  17.624  68.528  0.00  0.00    +0.090 C 
ATOM      3  N   UNL     1      -8.455  16.734  68.260  0.00  0.00    -0.269 NA
ATOM      4  C   UNL     1      -7.962  15.411  67.878  0.00  0.00    +0.090 C 
ATOM      5  C   UNL     1      -9.174  14.497  67.961  0.00  0.00    +0.090 C 
ATOM      6  N   UNL     1     -10.101  14.910  66.935  0.00  0.00    -0.264 NA
ATOM      7  C   UNL     1     -10.426  16.313  66.984  0.00  0.00    +0.090 C 
ATOM      8  C   UNL     1      -9.229  17.206  67.123  0.00  0.00    +0.090 C 
ENDBRANCH   1   6
BRANCH   1   9
ATOM      9  C   UNL     1     -11.449  13.266  68.116  0.00  0.00    -0.004 A 
ATOM     10  C   UNL     1     -12.122  13.776  69.218  0.00  0.00    -0.003 A 
ATOM     11  C   UNL     1     -12.269  12.982  70.347  0.00  0.00    -0.000 A 
ATOM     12  C   UNL     1     -11.937  11.634  70.321  0.00  0.00    -0.000 A 
ATOM     13  C   UNL     1     -11.708  11.111  69.057  0.00  0.00    -0.000 A 
ATOM     14  C   UNL     1     -11.571  11.894  67.935  0.00  0.00    -0.003 A 
ENDBRANCH   1   9
BRANCH   1  15
ATOM     15  C   UNL     1     -11.399  13.348  65.657  0.00  0.00    -0.004 A 
ATOM     16  C   UNL     1     -12.642  13.042  65.116  0.00  0.00    -0.003 A 
ATOM     17  C   UNL     1     -12.649  12.366  63.905  0.00  0.00    -0.000 A 
ATOM     18  C   UNL     1     -11.479  11.793  63.433  0.00  0.00    -0.000 A 
ATOM     19  C   UNL     1     -10.259  12.223  63.921  0.00  0.00    -0.000 A 
ATOM     20  C   UNL     1     -10.286  13.276  64.827  0.00  0.00    -0.003 A 
ENDBRANCH   1  15
TORSDOF 3
ENDMDL
MODEL 8
REMARK VINA RESULT:      -6.0      1.670      5.947
REMARK  Name = 
REMARK  3 active torsions:
REMARK  status: ('A' for Active; 'I' for Inactive)
REMARK    1  A    between atoms: N_5  and  C_6
REMARK    2  A    between atoms: C_6  and  C_7
REMARK    3  A    between atoms: C_6  and  C_13
REMARK                            x       y       z     vdW  Elec       q    Type
REMARK                         _______ _______ _______ _____ _____    ______ ____
ROOT
ATOM      1  C   UNL     1     -11.229  15.116  67.492  0.00  0.00    +0.103 C 
ENDROOT
BRANCH   1   6
ATOM      2  C   UNL     1     -13.572  13.964  72.348  0.00  0.00    +0.090 C 
ATOM      3  N   UNL     1     -13.114  14.262  71.016  0.00  0.00    -0.269 NA
ATOM      4  C   UNL     1     -12.167  13.246  70.560  0.00  0.00    +0.090 C 
ATOM      5  C   UNL     1     -12.031  13.473  69.063  0.00  0.00    +0.090 C 
ATOM      6  N   UNL     1     -11.393  14.753  68.874  0.00  0.00    -0.264 NA
ATOM      7  C   UNL     1     -12.050  15.831  69.568  0.00  0.00    +0.090 C 
ATOM      8  C   UNL     1     -12.379  15.517  70.998  0.00  0.00    +0.090 C 
ENDBRANCH   1   6
BRANCH   1   9
ATOM      9  C   UNL     1     -11.365  13.941  66.581  0.00  0.00    -0.004 A 
ATOM     10  C   UNL     1     -12.466  13.908  65.735  0.00  0.00    -0.003 A 
ATOM     11  C   UNL     1     -12.620  12.835  64.868  0.00  0.00    -0.000 A 
ATOM     12  C   UNL     1     -11.601  11.907  64.691  0.00  0.00    -0.000 A 
ATOM     13  C   UNL     1     -10.375  12.273  65.227  0.00  0.00    -0.000 A 
ATOM     14  C   UNL     1     -10.218  13.342  66.078  0.00  0.00    -0.003 A 
ENDBRANCH   1   9
BRANCH   1  15
ATOM     15  C   UNL     1      -9.911  15.792  67.298  0.00  0.00    -0.004 A 
ATOM     16  C   UNL     1      -9.839  16.948  66.529  0.00  0.00    -0.003 A 
ATOM     17  C   UNL     1      -8.603  17.572  66.451  0.00  0.00    -0.000 A 
ATOM     18  C   UNL     1      -7.470  16.905  66.886  0.00  0.00    -0.000 A 
ATOM     19  C   UNL     1      -7.593  15.833  67.750  0.00  0.00    -0.000 A 
ATOM     20  C   UNL     1      -8.877  15.531  68.189  0.00  0.00    -0.003 A 
ENDBRANCH   1  15
TORSDOF 3
ENDMDL
MODEL 9
REMARK VINA RESULT:      -6.0      2.007      4.983
REMARK  Name = 
REMARK  3 active torsions:
REMARK  status: ('A' for Active; 'I' for Inactive)
REMARK    1  A    between atoms: N_5  and  C_6
REMARK    2  A    between atoms: C_6  and  C_7
REMARK    3  A    between atoms: C_6  and  C_13
REMARK                            x       y       z     vdW  Elec       q    Type
REMARK                         _______ _______ _______ _____ _____    ______ ____
ROOT
ATOM      1  C   UNL     1     -11.382  15.086  67.896  0.00  0.00    +0.103 C 
ENDROOT
BRANCH   1   6
ATOM      2  C   UNL     1     -11.010  11.939  63.384  0.00  0.00    +0.090 C 
ATOM      3  N   UNL     1     -11.069  12.890  64.464  0.00  0.00    -0.269 NA
ATOM      4  C   UNL     1     -10.119  12.532  65.515  0.00  0.00    +0.090 C 
ATOM      5  C   UNL     1     -10.029  13.761  66.405  0.00  0.00    +0.090 C 
ATOM      6  N   UNL     1     -11.312  13.931  67.042  0.00  0.00    -0.264 NA
ATOM      7  C   UNL     1     -12.415  13.964  66.115  0.00  0.00    +0.090 C 
ATOM      8  C   UNL     1     -12.379  12.864  65.095  0.00  0.00    +0.090 C 
ENDBRANCH   1   6
BRANCH   1   9
ATOM      9  C   UNL     1     -10.047  15.725  68.091  0.00  0.00    -0.004 A 
ATOM     10  C   UNL     1      -9.953  17.094  67.879  0.00  0.00    -0.003 A 
ATOM     11  C   UNL     1      -8.729  17.723  68.059  0.00  0.00    -0.000 A 
ATOM     12  C   UNL     1      -7.658  17.051  68.636  0.00  0.00    -0.000 A 
ATOM     13  C   UNL     1      -7.978  15.840  69.231  0.00  0.00    -0.000 A 
ATOM     14  C   UNL     1      -9.193  15.219  69.062  0.00  0.00    -0.003 A 
ENDBRANCH   1   9
BRANCH   1  15
ATOM     15  C   UNL     1     -11.992  14.711  69.207  0.00  0.00    -0.004 A 
ATOM     16  C   UNL     1     -11.906  13.398  69.654  0.00  0.00    -0.003 A 
ATOM     17  C   UNL     1     -12.423  13.129  70.912  0.00  0.00    -0.000 A 
ATOM     18  C   UNL     1     -13.224  14.070  71.539  0.00  0.00    -0.000 A 
ATOM     19  C   UNL     1     -13.179  15.390  71.133  0.00  0.00    -0.000 A 
ATOM     20  C   UNL     1     -12.258  15.706  70.141  0.00  0.00    -0.003 A 
ENDBRANCH   1  15
TORSDOF 3
ENDMDL
