MODEL 1
REMARK VINA RESULT:      -3.7      0.000      0.000
REMARK  Name = 
REMARK  0 active torsions:
REMARK  status: ('A' for Active; 'I' for Inactive)
REMARK                            x       y       z     vdW  Elec       q    Type
REMARK                         _______ _______ _______ _____ _____    ______ ____
ROOT
ATOM      1  N   UNL     1     -12.528  15.928  74.713  0.00  0.00    -0.128 NA
ATOM      2  C   UNL     1     -12.748  15.804  73.302  0.00  0.00    +0.092 A 
ATOM      3  C   UNL     1     -14.030  15.790  72.768  0.00  0.00    +0.039 A 
ATOM      4  C   UNL     1     -14.226  14.986  71.651  0.00  0.00    +0.100 A 
ATOM      5  N   UNL     1     -13.188  14.957  70.782  0.00  0.00    -0.242 NA
ATOM      6  C   UNL     1     -11.969  14.704  71.318  0.00  0.00    +0.100 A 
ATOM      7  C   UNL     1     -11.694  15.391  72.494  0.00  0.00    +0.039 A 
ENDROOT
TORSDOF 0
ENDMDL
MODEL 2
REMARK VINA RESULT:      -3.7      1.348      2.742
REMARK  Name = 
REMARK  0 active torsions:
REMARK  status: ('A' for Active; 'I' for Inactive)
REMARK                            x       y       z     vdW  Elec       q    Type
REMARK                         _______ _______ _______ _____ _____    ______ ____
ROOT
ATOM      1  N   UNL     1     -12.109  16.043  69.676  0.00  0.00    -0.128 NA
ATOM      2  C   UNL     1     -12.270  15.416  70.954  0.00  0.00    +0.092 A 
ATOM      3  C   UNL     1     -12.977  14.227  71.093  0.00  0.00    +0.039 A 
ATOM      4  C   UNL     1     -13.701  14.072  72.269  0.00  0.00    +0.100 A 
ATOM      5  N   UNL     1     -13.103  14.575  73.376  0.00  0.00    -0.242 NA
ATOM      6  C   UNL     1     -12.652  15.850  73.282  0.00  0.00    +0.100 A 
ATOM      7  C   UNL     1     -11.983  16.148  72.101  0.00  0.00    +0.039 A 
ENDROOT
TORSDOF 0
ENDMDL
MODEL 3
REMARK VINA RESULT:      -3.6      1.505      2.730
REMARK  Name = 
REMARK  0 active torsions:
REMARK  status: ('A' for Active; 'I' for Inactive)
REMARK                            x       y       z     vdW  Elec       q    Type
REMARK                         _______ _______ _______ _____ _____    ______ ____
ROOT
ATOM      1  N   UNL     1     -10.774  15.353  70.531  0.00  0.00    -0.128 NA
ATOM      2  C   UNL     1     -11.978  15.739  71.205  0.00  0.00    +0.092 A 
ATOM      3  C   UNL     1     -11.952  16.248  72.498  0.00  0.00    +0.039 A 
ATOM      4  C   UNL     1     -13.027  15.916  73.315  0.00  0.00    +0.100 A 
ATOM      5  N   UNL     1     -14.226  15.870  72.686  0.00  0.00    -0.242 NA
ATOM      6  C   UNL     1     -14.274  15.135  71.548  0.00  0.00    +0.100 A 
ATOM      7  C   UNL     1     -13.199  15.320  70.688  0.00  0.00    +0.039 A 
ENDROOT
TORSDOF 0
ENDMDL
MODEL 4
REMARK VINA RESULT:      -3.5      1.771      2.407
REMARK  Name = 
REMARK  0 active torsions:
REMARK  status: ('A' for Active; 'I' for Inactive)
REMARK                            x       y       z     vdW  Elec       q    Type
REMARK                         _______ _______ _______ _____ _____    ______ ____
ROOT
ATOM      1  N   UNL     1     -14.258  13.133  72.506  0.00  0.00    -0.128 NA
ATOM      2  C   UNL     1     -13.216  14.094  72.295  0.00  0.00    +0.092 A 
ATOM      3  C   UNL     1     -12.729  14.874  73.337  0.00  0.00    +0.039 A 
ATOM      4  C   UNL     1     -12.340  16.168  73.011  0.00  0.00    +0.100 A 
ATOM      5  N   UNL     1     -11.741  16.295  71.803  0.00  0.00    -0.242 NA
ATOM      6  C   UNL     1     -12.391  15.736  70.754  0.00  0.00    +0.100 A 
ATOM      7  C   UNL     1     -12.903  14.467  70.993  0.00  0.00    +0.039 A 
ENDROOT
TORSDOF 0
ENDMDL
MODEL 5
REMARK VINA RESULT:      -3.4      6.129      7.399
REMARK  Name = 
REMARK  0 active torsions:
REMARK  status: ('A' for Active; 'I' for Inactive)
REMARK                            x       y       z     vdW  Elec       q    Type
REMARK                         _______ _______ _______ _____ _____    ______ ____
ROOT
ATOM      1  N   UNL     1     -11.266  16.740  64.253  0.00  0.00    -0.128 NA
ATOM      2  C   UNL     1     -11.277  15.471  64.920  0.00  0.00    +0.092 A 
ATOM      3  C   UNL     1     -12.103  14.438  64.495  0.00  0.00    +0.039 A 
ATOM      4  C   UNL     1     -12.616  13.609  65.486  0.00  0.00    +0.100 A 
ATOM      5  N   UNL     1     -11.765  13.348  66.507  0.00  0.00    -0.242 NA
ATOM      6  C   UNL     1     -11.169  14.425  67.076  0.00  0.00    +0.100 A 
ATOM      7  C   UNL     1     -10.690  15.370  66.177  0.00  0.00    +0.039 A 
ENDROOT
TORSDOF 0
ENDMDL
MODEL 6
REMARK VINA RESULT:      -3.4      1.872      2.838
REMARK  Name = 
REMARK  0 active torsions:
REMARK  status: ('A' for Active; 'I' for Inactive)
REMARK                            x       y       z     vdW  Elec       q    Type
REMARK                         _______ _______ _______ _____ _____    ______ ____
ROOT
ATOM      1  N   UNL     1     -12.354  11.946  70.749  0.00  0.00    -0.128 NA
ATOM      2  C   UNL     1     -12.647  13.253  71.258  0.00  0.00    +0.092 A 
ATOM      3  C   UNL     1     -13.714  13.470  72.121  0.00  0.00    +0.039 A 
ATOM      4  C   UNL     1     -14.376  14.686  71.992  0.00  0.00    +0.100 A 
ATOM      5  N   UNL     1     -13.576  15.742  71.711  0.00  0.00    -0.242 NA
ATOM      6  C   UNL     1     -12.716  15.578  70.676  0.00  0.00    +0.100 A 
ATOM      7  C   UNL     1     -12.056  14.356  70.652  0.00  0.00    +0.039 A 
ENDROOT
TORSDOF 0
ENDMDL
MODEL 7
REMARK VINA RESULT:      -3.3      6.673      7.705
REMARK  Name = 
REMARK  0 active torsions:
REMARK  status: ('A' for Active; 'I' for Inactive)
REMARK                            x       y       z     vdW  Elec       q    Type
REMARK                         _______ _______ _______ _____ _____    ______ ____
ROOT
ATOM      1  N   UNL     1     -11.621  11.359  67.225  0.00  0.00    -0.128 NA
ATOM      2  C   UNL     1     -11.667  12.297  66.143  0.00  0.00    +0.092 A 
ATOM      3  C   UNL     1     -12.120  13.597  66.332  0.00  0.00    +0.039 A 
ATOM      4  C   UNL     1     -12.812  14.171  65.272  0.00  0.00    +0.100 A 
ATOM      5  N   UNL     1     -12.342  13.846  64.043  0.00  0.00    -0.242 NA
ATOM      6  C   UNL     1     -12.159  12.524  63.807  0.00  0.00    +0.100 A 
ATOM      7  C   UNL     1     -11.549  11.825  64.841  0.00  0.00    +0.039 A 
ENDROOT
TORSDOF 0
ENDMDL
MODEL 8
REMARK VINA RESULT:      -3.3      6.191      7.471
REMARK  Name = 
REMARK  0 active torsions:
REMARK  status: ('A' for Active; 'I' for Inactive)
REMARK                            x       y       z     vdW  Elec       q    Type
REMARK                         _______ _______ _______ _____ _____    ______ ____
ROOT
ATOM      1  N   UNL     1     -13.059  12.531  64.681  0.00  0.00    -0.128 NA
ATOM      2  C   UNL     1     -12.462  13.672  65.310  0.00  0.00    +0.092 A 
ATOM      3  C   UNL     1     -12.030  14.765  64.568  0.00  0.00    +0.039 A 
ATOM      4  C   UNL     1     -10.896  15.420  65.034  0.00  0.00    +0.100 A 
ATOM      5  N   UNL     1     -10.802  15.505  66.382  0.00  0.00    -0.242 NA
ATOM      6  C   UNL     1     -10.974  14.347  67.066  0.00  0.00    +0.100 A 
ATOM      7  C   UNL     1     -12.033  13.562  66.628  0.00  0.00    +0.039 A 
ENDROOT
TORSDOF 0
ENDMDL
MODEL 9
REMARK VINA RESULT:      -3.2      6.297      7.450
REMARK  Name = 
REMARK  0 active torsions:
REMARK  status: ('A' for Active; 'I' for Inactive)
REMARK                            x       y       z     vdW  Elec       q    Type
REMARK                         _______ _______ _______ _____ _____    ______ ____
ROOT
ATOM      1  N   UNL     1     -10.343  17.103  65.313  0.00  0.00    -0.128 NA
ATOM      2  C   UNL     1     -10.468  18.072  66.362  0.00  0.00    +0.092 A 
ATOM      3  C   UNL     1     -10.455  19.435  66.094  0.00  0.00    +0.039 A 
ATOM      4  C   UNL     1      -9.859  20.248  67.051  0.00  0.00    +0.100 A 
ATOM      5  N   UNL     1     -10.072  19.866  68.333  0.00  0.00    -0.242 NA
ATOM      6  C   UNL     1      -9.819  18.565  68.617  0.00  0.00    +0.100 A 
ATOM      7  C   UNL     1     -10.295  17.659  67.678  0.00  0.00    +0.039 A 
ENDROOT
TORSDOF 0
ENDMDL
