MODEL 1
REMARK VINA RESULT:      -8.9      0.000      0.000
REMARK  Name = 
REMARK  8 active torsions:
REMARK  status: ('A' for Active; 'I' for Inactive)
REMARK    1  A    between atoms: C_2  and  O_3
REMARK    2  A    between atoms: C_2  and  C_24
REMARK    3  A    between atoms: O_3  and  C_4
REMARK    4  A    between atoms: N_8  and  C_9
REMARK    5  A    between atoms: C_9  and  C_10
REMARK    6  A    between atoms: C_16  and  C_17
REMARK    7  A    between atoms: C_26  and  C_27
REMARK    8  A    between atoms: C_32  and  C_33
REMARK                            x       y       z     vdW  Elec       q    Type
REMARK                         _______ _______ _______ _____ _____    ______ ____
ROOT
ATOM      1  C   UNL     1      -8.792  14.448  67.321  0.00  0.00    +0.255 C 
ATOM      2  C   UNL     1     -10.390  15.114  67.523  0.00  0.00    +0.138 C 
ATOM      3  N   UNL     1     -11.005  13.821  66.895  0.00  0.00    -0.258 NA
ATOM      4  C   UNL     1     -10.631  12.666  67.479  0.00  0.00    +0.105 C 
ATOM      5  C   UNL     1      -9.178  12.321  67.634  0.00  0.00    +0.162 C 
ATOM      6  O   UNL     1      -8.843  13.434  68.454  0.00  0.00    -0.328 OA
ENDROOT
BRANCH   2   7
ATOM      7  C   UNL     1     -10.679  14.795  69.043  0.00  0.00    -0.003 A 
ATOM      8  C   UNL     1     -11.383  13.989  69.717  0.00  0.00    -0.001 A 
ATOM      9  C   UNL     1     -12.199  14.106  70.788  0.00  0.00    +0.029 A 
ATOM     10  C   UNL     1     -12.426  15.421  71.195  0.00  0.00    +0.140 A 
ATOM     11  F   UNL     1     -13.716  15.788  71.476  0.00  0.00    -0.204 F 
ATOM     12  C   UNL     1     -11.463  16.327  70.761  0.00  0.00    +0.029 A 
ATOM     13  C   UNL     1     -10.601  16.036  69.698  0.00  0.00    -0.001 A 
ENDBRANCH   2   7
BRANCH   3  14
ATOM     14  C   UNL     1     -12.352  13.984  66.663  0.00  0.00    +0.141 C 
BRANCH  14  15
ATOM     15  C   UNL     1     -12.771  13.784  65.244  0.00  0.00    +0.182 A 
ATOM     16  N   UNL     1     -12.958  12.512  64.808  0.00  0.00    -0.171 NA
ATOM     17  C   UNL     1     -12.341  12.394  63.604  0.00  0.00    +0.388 A 
ATOM     18  O   UNL     1     -11.853  11.356  63.067  0.00  0.00    -0.241 OA
ATOM     19  N   UNL     1     -12.396  13.654  63.110  0.00  0.00    -0.087 NA
ATOM     20  N   UNL     1     -12.608  14.476  64.120  0.00  0.00    -0.127 NA
ENDBRANCH  14  15
ENDBRANCH   3  14
BRANCH   1  21
ATOM     21  O   UNL     1      -8.092  15.596  68.030  0.00  0.00    -0.327 OA
BRANCH  21  23
ATOM     22  C   UNL     1      -6.010  16.077  68.610  0.00  0.00    +0.037 C 
ATOM     23  C   UNL     1      -6.874  15.917  67.202  0.00  0.00    +0.140 C 
BRANCH  23  24
ATOM     24  C   UNL     1      -7.204  17.503  67.020  0.00  0.00    +0.005 A 
ATOM     25  C   UNL     1      -6.509  18.251  67.973  0.00  0.00    +0.002 A 
ATOM     26  C   UNL     1      -7.022  19.108  68.873  0.00  0.00    +0.071 A 
ATOM     27  C   UNL     1      -8.388  19.356  68.792  0.00  0.00    +0.008 A 
ATOM     28  C   UNL     1      -9.030  19.011  67.608  0.00  0.00    +0.071 A 
ATOM     29  C   UNL     1      -8.492  17.909  66.941  0.00  0.00    +0.002 A 
BRANCH  26  30
ATOM     30  C   UNL     1      -6.108  19.950  69.708  0.00  0.00    +0.419 C 
ATOM     31  F   UNL     1      -6.666  20.284  70.917  0.00  0.00    -0.166 F 
ATOM     32  F   UNL     1      -5.911  21.144  69.020  0.00  0.00    -0.166 F 
ATOM     33  F   UNL     1      -4.907  19.301  69.860  0.00  0.00    -0.166 F 
ENDBRANCH  26  30
BRANCH  28  34
ATOM     34  C   UNL     1     -10.055  19.886  66.969  0.00  0.00    +0.419 C 
ATOM     35  F   UNL     1      -9.802  19.985  65.605  0.00  0.00    -0.166 F 
ATOM     36  F   UNL     1      -9.842  21.169  67.467  0.00  0.00    -0.166 F 
ATOM     37  F   UNL     1     -11.329  19.451  67.175  0.00  0.00    -0.166 F 
ENDBRANCH  28  34
ENDBRANCH  23  24
ENDBRANCH  21  23
ENDBRANCH   1  21
TORSDOF 8
ENDMDL
MODEL 2
REMARK VINA RESULT:      -8.9      1.407      2.450
REMARK  Name = 
REMARK  8 active torsions:
REMARK  status: ('A' for Active; 'I' for Inactive)
REMARK    1  A    between atoms: C_2  and  O_3
REMARK    2  A    between atoms: C_2  and  C_24
REMARK    3  A    between atoms: O_3  and  C_4
REMARK    4  A    between atoms: N_8  and  C_9
REMARK    5  A    between atoms: C_9  and  C_10
REMARK    6  A    between atoms: C_16  and  C_17
REMARK    7  A    between atoms: C_26  and  C_27
REMARK    8  A    between atoms: C_32  and  C_33
REMARK                            x       y       z     vdW  Elec       q    Type
REMARK                         _______ _______ _______ _____ _____    ______ ____
ROOT
ATOM      1  C   UNL     1      -8.860  14.828  67.439  0.00  0.00    +0.255 C 
ATOM      2  C   UNL     1     -10.505  15.363  67.647  0.00  0.00    +0.138 C 
ATOM      3  N   UNL     1     -11.012  14.085  66.902  0.00  0.00    -0.258 NA
ATOM      4  C   UNL     1     -10.571  12.915  67.404  0.00  0.00    +0.105 C 
ATOM      5  C   UNL     1      -9.101  12.660  67.573  0.00  0.00    +0.162 C 
ATOM      6  O   UNL     1      -8.864  13.725  68.487  0.00  0.00    -0.328 OA
ENDROOT
BRANCH   2   7
ATOM      7  C   UNL     1     -10.807  14.904  69.128  0.00  0.00    -0.003 A 
ATOM      8  C   UNL     1     -11.504  14.029  69.718  0.00  0.00    -0.001 A 
ATOM      9  C   UNL     1     -12.334  14.036  70.785  0.00  0.00    +0.029 A 
ATOM     10  C   UNL     1     -12.588  15.306  71.305  0.00  0.00    +0.140 A 
ATOM     11  F   UNL     1     -13.887  15.625  71.601  0.00  0.00    -0.204 F 
ATOM     12  C   UNL     1     -11.635  16.263  70.966  0.00  0.00    +0.029 A 
ATOM     13  C   UNL     1     -10.756  16.082  69.893  0.00  0.00    -0.001 A 
ENDBRANCH   2   7
BRANCH   3  14
ATOM     14  C   UNL     1     -12.362  14.172  66.645  0.00  0.00    +0.141 C 
BRANCH  14  15
ATOM     15  C   UNL     1     -12.750  13.875  65.234  0.00  0.00    +0.182 A 
ATOM     16  N   UNL     1     -12.903  12.575  64.876  0.00  0.00    -0.171 NA
ATOM     17  C   UNL     1     -12.262  12.394  63.693  0.00  0.00    +0.388 A 
ATOM     18  O   UNL     1     -11.743  11.335  63.232  0.00  0.00    -0.241 OA
ATOM     19  N   UNL     1     -12.333  13.619  63.120  0.00  0.00    -0.087 NA
ATOM     20  N   UNL     1     -12.581  14.498  64.072  0.00  0.00    -0.127 NA
ENDBRANCH  14  15
ENDBRANCH   3  14
BRANCH   1  21
ATOM     21  O   UNL     1      -8.260  15.961  68.256  0.00  0.00    -0.327 OA
BRANCH  21  23
ATOM     22  C   UNL     1      -6.394  15.999  69.446  0.00  0.00    +0.037 C 
ATOM     23  C   UNL     1      -6.813  16.053  67.842  0.00  0.00    +0.140 C 
BRANCH  23  24
ATOM     24  C   UNL     1      -6.778  17.676  67.707  0.00  0.00    +0.005 A 
ATOM     25  C   UNL     1      -8.015  18.216  68.065  0.00  0.00    +0.002 A 
ATOM     26  C   UNL     1      -8.805  19.012  67.324  0.00  0.00    +0.071 A 
ATOM     27  C   UNL     1      -8.299  19.429  66.098  0.00  0.00    +0.008 A 
ATOM     28  C   UNL     1      -6.928  19.308  65.898  0.00  0.00    +0.071 A 
ATOM     29  C   UNL     1      -6.324  18.239  66.563  0.00  0.00    +0.002 A 
BRANCH  26  30
ATOM     30  C   UNL     1     -10.023  19.633  67.935  0.00  0.00    +0.419 C 
ATOM     31  F   UNL     1     -11.186  19.102  67.434  0.00  0.00    -0.166 F 
ATOM     32  F   UNL     1     -10.018  20.979  67.580  0.00  0.00    -0.166 F 
ATOM     33  F   UNL     1      -9.954  19.516  69.302  0.00  0.00    -0.166 F 
ENDBRANCH  26  30
BRANCH  28  34
ATOM     34  C   UNL     1      -6.120  20.369  65.231  0.00  0.00    +0.419 C 
ATOM     35  F   UNL     1      -4.804  19.938  65.090  0.00  0.00    -0.166 F 
ATOM     36  F   UNL     1      -6.052  21.434  66.128  0.00  0.00    -0.166 F 
ATOM     37  F   UNL     1      -6.620  20.738  64.021  0.00  0.00    -0.166 F 
ENDBRANCH  28  34
ENDBRANCH  23  24
ENDBRANCH  21  23
ENDBRANCH   1  21
TORSDOF 8
ENDMDL
MODEL 3
REMARK VINA RESULT:      -8.8      1.560      2.156
REMARK  Name = 
REMARK  8 active torsions:
REMARK  status: ('A' for Active; 'I' for Inactive)
REMARK    1  A    between atoms: C_2  and  O_3
REMARK    2  A    between atoms: C_2  and  C_24
REMARK    3  A    between atoms: O_3  and  C_4
REMARK    4  A    between atoms: N_8  and  C_9
REMARK    5  A    between atoms: C_9  and  C_10
REMARK    6  A    between atoms: C_16  and  C_17
REMARK    7  A    between atoms: C_26  and  C_27
REMARK    8  A    between atoms: C_32  and  C_33
REMARK                            x       y       z     vdW  Elec       q    Type
REMARK                         _______ _______ _______ _____ _____    ______ ____
ROOT
ATOM      1  C   UNL     1      -8.877  14.488  67.471  0.00  0.00    +0.255 C 
ATOM      2  C   UNL     1     -10.490  15.126  67.645  0.00  0.00    +0.138 C 
ATOM      3  N   UNL     1     -11.064  13.860  66.929  0.00  0.00    -0.258 NA
ATOM      4  C   UNL     1     -10.699  12.681  67.468  0.00  0.00    +0.105 C 
ATOM      5  C   UNL     1      -9.249  12.343  67.661  0.00  0.00    +0.162 C 
ATOM      6  O   UNL     1      -8.958  13.417  68.549  0.00  0.00    -0.328 OA
ENDROOT
BRANCH   2   7
ATOM      7  C   UNL     1     -10.832  14.727  69.135  0.00  0.00    -0.003 A 
ATOM      8  C   UNL     1     -11.560  13.888  69.740  0.00  0.00    -0.001 A 
ATOM      9  C   UNL     1     -12.413  13.950  70.787  0.00  0.00    +0.029 A 
ATOM     10  C   UNL     1     -12.653  15.242  71.255  0.00  0.00    +0.140 A 
ATOM     11  F   UNL     1     -13.952  15.597  71.510  0.00  0.00    -0.204 F 
ATOM     12  C   UNL     1     -11.674  16.167  70.904  0.00  0.00    +0.029 A 
ATOM     13  C   UNL     1     -10.776  15.931  69.858  0.00  0.00    -0.001 A 
ENDBRANCH   2   7
BRANCH   3  14
ATOM     14  C   UNL     1     -12.404  14.021  66.655  0.00  0.00    +0.141 C 
BRANCH  14  15
ATOM     15  C   UNL     1     -12.785  13.774  65.232  0.00  0.00    +0.182 A 
ATOM     16  N   UNL     1     -12.921  12.487  64.823  0.00  0.00    -0.171 NA
ATOM     17  C   UNL     1     -12.274  12.361  63.636  0.00  0.00    +0.388 A 
ATOM     18  O   UNL     1     -11.741  11.327  63.135  0.00  0.00    -0.241 OA
ATOM     19  N   UNL     1     -12.357  13.607  63.111  0.00  0.00    -0.087 NA
ATOM     20  N   UNL     1     -12.619  14.444  64.096  0.00  0.00    -0.127 NA
ENDBRANCH  14  15
ENDBRANCH   3  14
BRANCH   1  21
ATOM     21  O   UNL     1      -8.219  15.605  68.264  0.00  0.00    -0.327 OA
BRANCH  21  23
ATOM     22  C   UNL     1      -6.615  17.071  68.692  0.00  0.00    +0.037 C 
ATOM     23  C   UNL     1      -7.023  16.042  67.455  0.00  0.00    +0.140 C 
BRANCH  23  24
ATOM     24  C   UNL     1      -7.817  17.150  66.562  0.00  0.00    +0.005 A 
ATOM     25  C   UNL     1      -6.922  17.829  65.732  0.00  0.00    +0.002 A 
ATOM     26  C   UNL     1      -6.714  19.156  65.667  0.00  0.00    +0.071 A 
ATOM     27  C   UNL     1      -7.547  19.958  66.440  0.00  0.00    +0.008 A 
ATOM     28  C   UNL     1      -8.724  19.389  66.912  0.00  0.00    +0.071 A 
ATOM     29  C   UNL     1      -8.656  18.018  67.172  0.00  0.00    +0.002 A 
BRANCH  26  30
ATOM     30  C   UNL     1      -5.832  19.721  64.597  0.00  0.00    +0.419 C 
ATOM     31  F   UNL     1      -4.598  20.082  65.076  0.00  0.00    -0.166 F 
ATOM     32  F   UNL     1      -6.437  20.890  64.143  0.00  0.00    -0.166 F 
ATOM     33  F   UNL     1      -5.737  18.821  63.565  0.00  0.00    -0.166 F 
ENDBRANCH  26  30
BRANCH  28  34
ATOM     34  C   UNL     1     -10.023  20.120  66.913  0.00  0.00    +0.419 C 
ATOM     35  F   UNL     1     -10.973  19.388  67.620  0.00  0.00    -0.166 F 
ATOM     36  F   UNL     1     -10.477  20.115  65.596  0.00  0.00    -0.166 F 
ATOM     37  F   UNL     1      -9.927  21.376  67.427  0.00  0.00    -0.166 F 
ENDBRANCH  28  34
ENDBRANCH  23  24
ENDBRANCH  21  23
ENDBRANCH   1  21
TORSDOF 8
ENDMDL
MODEL 4
REMARK VINA RESULT:      -8.0      3.144      4.938
REMARK  Name = 
REMARK  8 active torsions:
REMARK  status: ('A' for Active; 'I' for Inactive)
REMARK    1  A    between atoms: C_2  and  O_3
REMARK    2  A    between atoms: C_2  and  C_24
REMARK    3  A    between atoms: O_3  and  C_4
REMARK    4  A    between atoms: N_8  and  C_9
REMARK    5  A    between atoms: C_9  and  C_10
REMARK    6  A    between atoms: C_16  and  C_17
REMARK    7  A    between atoms: C_26  and  C_27
REMARK    8  A    between atoms: C_32  and  C_33
REMARK                            x       y       z     vdW  Elec       q    Type
REMARK                         _______ _______ _______ _____ _____    ______ ____
ROOT
ATOM      1  C   UNL     1     -10.325  16.892  68.577  0.00  0.00    +0.255 C 
ATOM      2  C   UNL     1      -9.714  15.674  67.491  0.00  0.00    +0.138 C 
ATOM      3  N   UNL     1      -9.703  14.638  68.662  0.00  0.00    -0.258 NA
ATOM      4  C   UNL     1     -10.874  14.495  69.312  0.00  0.00    +0.105 C 
ATOM      5  C   UNL     1     -11.571  15.685  69.906  0.00  0.00    +0.162 C 
ATOM      6  O   UNL     1     -11.755  16.383  68.680  0.00  0.00    -0.328 OA
ENDROOT
BRANCH   2   7
ATOM      7  C   UNL     1     -11.036  15.196  66.770  0.00  0.00    -0.003 A 
ATOM      8  C   UNL     1     -11.768  14.165  66.735  0.00  0.00    -0.001 A 
ATOM      9  C   UNL     1     -12.354  13.448  65.750  0.00  0.00    +0.029 A 
ATOM     10  C   UNL     1     -11.994  13.845  64.461  0.00  0.00    +0.140 A 
ATOM     11  F   UNL     1     -11.667  12.865  63.561  0.00  0.00    -0.204 F 
ATOM     12  C   UNL     1     -11.490  15.140  64.382  0.00  0.00    +0.029 A 
ATOM     13  C   UNL     1     -11.009  15.815  65.508  0.00  0.00    -0.001 A 
ENDBRANCH   2   7
BRANCH   3  14
ATOM     14  C   UNL     1      -9.066  13.478  68.282  0.00  0.00    +0.141 C 
BRANCH  14  15
ATOM     15  C   UNL     1      -7.576  13.560  68.265  0.00  0.00    +0.182 A 
ATOM     16  N   UNL     1      -6.967  14.304  69.224  0.00  0.00    -0.171 NA
ATOM     17  C   UNL     1      -6.028  15.074  68.616  0.00  0.00    +0.388 A 
ATOM     18  O   UNL     1      -5.573  16.197  68.982  0.00  0.00    -0.241 OA
ATOM     19  N   UNL     1      -5.684  14.334  67.535  0.00  0.00    -0.087 NA
ATOM     20  N   UNL     1      -6.650  13.463  67.315  0.00  0.00    -0.127 NA
ENDBRANCH  14  15
ENDBRANCH   3  14
BRANCH   1  21
ATOM     21  O   UNL     1     -10.500  17.944  67.494  0.00  0.00    -0.327 OA
BRANCH  21  23
ATOM     22  C   UNL     1     -10.511  20.015  66.711  0.00  0.00    +0.037 C 
ATOM     23  C   UNL     1      -9.994  19.236  68.083  0.00  0.00    +0.140 C 
BRANCH  23  24
ATOM     24  C   UNL     1      -8.448  19.049  67.604  0.00  0.00    +0.005 A 
ATOM     25  C   UNL     1      -7.579  19.339  68.657  0.00  0.00    +0.002 A 
ATOM     26  C   UNL     1      -6.583  20.243  68.670  0.00  0.00    +0.071 A 
ATOM     27  C   UNL     1      -6.318  20.899  67.474  0.00  0.00    +0.008 A 
ATOM     28  C   UNL     1      -6.825  20.333  66.309  0.00  0.00    +0.071 A 
ATOM     29  C   UNL     1      -8.029  19.641  66.462  0.00  0.00    +0.002 A 
BRANCH  26  30
ATOM     30  C   UNL     1      -5.644  20.302  69.835  0.00  0.00    +0.419 C 
ATOM     31  F   UNL     1      -4.805  19.216  69.884  0.00  0.00    -0.166 F 
ATOM     32  F   UNL     1      -6.421  20.253  70.989  0.00  0.00    -0.166 F 
ATOM     33  F   UNL     1      -4.948  21.485  69.798  0.00  0.00    -0.166 F 
ENDBRANCH  26  30
BRANCH  28  34
ATOM     34  C   UNL     1      -6.035  20.255  65.047  0.00  0.00    +0.419 C 
ATOM     35  F   UNL     1      -6.683  20.969  64.043  0.00  0.00    -0.166 F 
ATOM     36  F   UNL     1      -6.090  18.926  64.631  0.00  0.00    -0.166 F 
ATOM     37  F   UNL     1      -4.759  20.705  65.188  0.00  0.00    -0.166 F 
ENDBRANCH  28  34
ENDBRANCH  23  24
ENDBRANCH  21  23
ENDBRANCH   1  21
TORSDOF 8
ENDMDL
MODEL 5
REMARK VINA RESULT:      -7.9      4.890      8.781
REMARK  Name = 
REMARK  8 active torsions:
REMARK  status: ('A' for Active; 'I' for Inactive)
REMARK    1  A    between atoms: C_2  and  O_3
REMARK    2  A    between atoms: C_2  and  C_24
REMARK    3  A    between atoms: O_3  and  C_4
REMARK    4  A    between atoms: N_8  and  C_9
REMARK    5  A    between atoms: C_9  and  C_10
REMARK    6  A    between atoms: C_16  and  C_17
REMARK    7  A    between atoms: C_26  and  C_27
REMARK    8  A    between atoms: C_32  and  C_33
REMARK                            x       y       z     vdW  Elec       q    Type
REMARK                         _______ _______ _______ _____ _____    ______ ____
ROOT
ATOM      1  C   UNL     1      -9.324  11.628  68.680  0.00  0.00    +0.255 C 
ATOM      2  C   UNL     1     -10.783  12.512  68.322  0.00  0.00    +0.138 C 
ATOM      3  N   UNL     1     -10.131  13.813  68.893  0.00  0.00    -0.258 NA
ATOM      4  C   UNL     1      -8.942  14.144  68.352  0.00  0.00    +0.105 C 
ATOM      5  C   UNL     1      -7.806  13.163  68.339  0.00  0.00    +0.162 C 
ATOM      6  O   UNL     1      -8.464  12.177  67.552  0.00  0.00    -0.328 OA
ENDROOT
BRANCH   2   7
ATOM      7  C   UNL     1     -10.602  12.816  66.783  0.00  0.00    -0.003 A 
ATOM      8  C   UNL     1     -10.162  13.751  66.055  0.00  0.00    -0.001 A 
ATOM      9  C   UNL     1     -10.602  14.377  64.940  0.00  0.00    +0.029 A 
ATOM     10  C   UNL     1     -11.887  14.005  64.545  0.00  0.00    +0.140 A 
ATOM     11  F   UNL     1     -12.760  15.003  64.196  0.00  0.00    -0.204 F 
ATOM     12  C   UNL     1     -12.308  12.779  65.050  0.00  0.00    +0.029 A 
ATOM     13  C   UNL     1     -11.690  12.184  66.155  0.00  0.00    -0.001 A 
ENDBRANCH   2   7
BRANCH   3  14
ATOM     14  C   UNL     1     -11.062  14.823  68.993  0.00  0.00    +0.141 C 
BRANCH  14  15
ATOM     15  C   UNL     1     -11.616  15.029  70.363  0.00  0.00    +0.182 A 
ATOM     16  N   UNL     1     -12.784  14.411  70.678  0.00  0.00    -0.171 NA
ATOM     17  C   UNL     1     -13.579  15.323  71.294  0.00  0.00    +0.388 A 
ATOM     18  O   UNL     1     -14.845  15.364  71.334  0.00  0.00    -0.241 OA
ATOM     19  N   UNL     1     -12.688  16.162  71.873  0.00  0.00    -0.087 NA
ATOM     20  N   UNL     1     -11.528  16.001  71.266  0.00  0.00    -0.127 NA
ENDBRANCH  14  15
ENDBRANCH   3  14
BRANCH   1  21
ATOM     21  O   UNL     1      -9.804  10.337  68.038  0.00  0.00    -0.327 OA
BRANCH  21  23
ATOM     22  C   UNL     1     -10.387   8.214  68.279  0.00  0.00    +0.037 C 
ATOM     23  C   UNL     1      -9.191   9.218  68.843  0.00  0.00    +0.140 C 
BRANCH  23  24
ATOM     24  C   UNL     1      -9.928   9.594  70.246  0.00  0.00    +0.005 A 
ATOM     25  C   UNL     1      -9.345   8.889  71.301  0.00  0.00    +0.002 A 
ATOM     26  C   UNL     1      -9.956   8.066  72.172  0.00  0.00    +0.071 A 
ATOM     27  C   UNL     1     -11.340   7.977  72.081  0.00  0.00    +0.008 A 
ATOM     28  C   UNL     1     -12.001   8.980  71.380  0.00  0.00    +0.071 A 
ATOM     29  C   UNL     1     -11.278   9.539  70.324  0.00  0.00    +0.002 A 
BRANCH  26  30
ATOM     30  C   UNL     1      -9.198   7.524  73.344  0.00  0.00    +0.419 C 
ATOM     31  F   UNL     1     -10.028   7.112  74.356  0.00  0.00    -0.166 F 
ATOM     32  F   UNL     1      -8.437   8.570  73.858  0.00  0.00    -0.166 F 
ATOM     33  F   UNL     1      -8.368   6.515  72.919  0.00  0.00    -0.166 F 
ENDBRANCH  26  30
BRANCH  28  34
ATOM     34  C   UNL     1     -13.276   9.584  71.859  0.00  0.00    +0.419 C 
ATOM     35  F   UNL     1     -13.675   8.965  73.040  0.00  0.00    -0.166 F 
ATOM     36  F   UNL     1     -14.251   9.236  70.927  0.00  0.00    -0.166 F 
ATOM     37  F   UNL     1     -13.191  10.930  72.046  0.00  0.00    -0.166 F 
ENDBRANCH  28  34
ENDBRANCH  23  24
ENDBRANCH  21  23
ENDBRANCH   1  21
TORSDOF 8
ENDMDL
MODEL 6
REMARK VINA RESULT:      -7.9      2.961      5.471
REMARK  Name = 
REMARK  8 active torsions:
REMARK  status: ('A' for Active; 'I' for Inactive)
REMARK    1  A    between atoms: C_2  and  O_3
REMARK    2  A    between atoms: C_2  and  C_24
REMARK    3  A    between atoms: O_3  and  C_4
REMARK    4  A    between atoms: N_8  and  C_9
REMARK    5  A    between atoms: C_9  and  C_10
REMARK    6  A    between atoms: C_16  and  C_17
REMARK    7  A    between atoms: C_26  and  C_27
REMARK    8  A    between atoms: C_32  and  C_33
REMARK                            x       y       z     vdW  Elec       q    Type
REMARK                         _______ _______ _______ _____ _____    ______ ____
ROOT
ATOM      1  C   UNL     1     -10.799  16.919  67.188  0.00  0.00    +0.255 C 
ATOM      2  C   UNL     1     -10.303  16.477  68.799  0.00  0.00    +0.138 C 
ATOM      3  N   UNL     1     -11.389  15.352  68.821  0.00  0.00    -0.258 NA
ATOM      4  C   UNL     1     -11.337  14.484  67.793  0.00  0.00    +0.105 C 
ATOM      5  C   UNL     1     -11.372  14.975  66.374  0.00  0.00    +0.162 C 
ATOM      6  O   UNL     1     -10.178  15.744  66.448  0.00  0.00    -0.328 OA
ENDROOT
BRANCH   2   7
ATOM      7  C   UNL     1      -9.039  15.575  68.509  0.00  0.00    -0.003 A 
ATOM      8  C   UNL     1      -8.725  14.351  68.562  0.00  0.00    -0.001 A 
ATOM      9  C   UNL     1      -7.664  13.661  69.035  0.00  0.00    +0.029 A 
ATOM     10  C   UNL     1      -6.739  14.440  69.731  0.00  0.00    +0.140 A 
ATOM     11  F   UNL     1      -6.269  13.956  70.924  0.00  0.00    -0.204 F 
ATOM     12  C   UNL     1      -6.805  15.800  69.443  0.00  0.00    +0.029 A 
ATOM     13  C   UNL     1      -7.934  16.374  68.848  0.00  0.00    -0.001 A 
ENDBRANCH   2   7
BRANCH   3  14
ATOM     14  C   UNL     1     -11.501  14.806  70.080  0.00  0.00    +0.141 C 
BRANCH  14  15
ATOM     15  C   UNL     1     -12.354  15.585  71.026  0.00  0.00    +0.182 A 
ATOM     16  N   UNL     1     -11.796  16.001  72.192  0.00  0.00    -0.171 NA
ATOM     17  C   UNL     1     -12.671  15.720  73.192  0.00  0.00    +0.388 A 
ATOM     18  O   UNL     1     -12.424  15.489  74.412  0.00  0.00    -0.241 OA
ATOM     19  N   UNL     1     -13.871  15.771  72.567  0.00  0.00    -0.087 NA
ATOM     20  N   UNL     1     -13.659  15.640  71.272  0.00  0.00    -0.127 NA
ENDBRANCH  14  15
ENDBRANCH   3  14
BRANCH   1  21
ATOM     21  O   UNL     1      -9.700  17.953  67.003  0.00  0.00    -0.327 OA
BRANCH  21  23
ATOM     22  C   UNL     1     -10.448  19.599  65.725  0.00  0.00    +0.037 C 
ATOM     23  C   UNL     1     -10.318  19.285  67.349  0.00  0.00    +0.140 C 
BRANCH  23  24
ATOM     24  C   UNL     1      -8.910  20.075  67.568  0.00  0.00    +0.005 A 
ATOM     25  C   UNL     1      -8.170  20.076  66.383  0.00  0.00    +0.002 A 
ATOM     26  C   UNL     1      -6.918  19.621  66.201  0.00  0.00    +0.071 A 
ATOM     27  C   UNL     1      -6.239  19.186  67.333  0.00  0.00    +0.008 A 
ATOM     28  C   UNL     1      -6.739  19.584  68.569  0.00  0.00    +0.071 A 
ATOM     29  C   UNL     1      -8.124  19.754  68.621  0.00  0.00    +0.002 A 
BRANCH  26  30
ATOM     30  C   UNL     1      -6.221  19.856  64.896  0.00  0.00    +0.419 C 
ATOM     31  F   UNL     1      -6.036  18.695  64.188  0.00  0.00    -0.166 F 
ATOM     32  F   UNL     1      -4.952  20.345  65.193  0.00  0.00    -0.166 F 
ATOM     33  F   UNL     1      -6.918  20.792  64.172  0.00  0.00    -0.166 F 
ENDBRANCH  26  30
BRANCH  28  34
ATOM     34  C   UNL     1      -5.855  20.030  69.684  0.00  0.00    +0.419 C 
ATOM     35  F   UNL     1      -6.625  20.317  70.807  0.00  0.00    -0.166 F 
ATOM     36  F   UNL     1      -5.320  21.256  69.294  0.00  0.00    -0.166 F 
ATOM     37  F   UNL     1      -4.895  19.119  70.000  0.00  0.00    -0.166 F 
ENDBRANCH  28  34
ENDBRANCH  23  24
ENDBRANCH  21  23
ENDBRANCH   1  21
TORSDOF 8
ENDMDL
MODEL 7
REMARK VINA RESULT:      -7.6      3.002      4.382
REMARK  Name = 
REMARK  8 active torsions:
REMARK  status: ('A' for Active; 'I' for Inactive)
REMARK    1  A    between atoms: C_2  and  O_3
REMARK    2  A    between atoms: C_2  and  C_24
REMARK    3  A    between atoms: O_3  and  C_4
REMARK    4  A    between atoms: N_8  and  C_9
REMARK    5  A    between atoms: C_9  and  C_10
REMARK    6  A    between atoms: C_16  and  C_17
REMARK    7  A    between atoms: C_26  and  C_27
REMARK    8  A    between atoms: C_32  and  C_33
REMARK                            x       y       z     vdW  Elec       q    Type
REMARK                         _______ _______ _______ _____ _____    ______ ____
ROOT
ATOM      1  C   UNL     1     -10.304  16.563  68.811  0.00  0.00    +0.255 C 
ATOM      2  C   UNL     1      -9.847  15.336  67.661  0.00  0.00    +0.138 C 
ATOM      3  N   UNL     1     -10.177  14.229  68.715  0.00  0.00    -0.258 NA
ATOM      4  C   UNL     1     -11.415  14.290  69.242  0.00  0.00    +0.105 C 
ATOM      5  C   UNL     1     -11.909  15.550  69.893  0.00  0.00    +0.162 C 
ATOM      6  O   UNL     1     -11.811  16.370  68.735  0.00  0.00    -0.328 OA
ENDROOT
BRANCH   2   7
ATOM      7  C   UNL     1     -11.154  15.218  66.782  0.00  0.00    -0.003 A 
ATOM      8  C   UNL     1     -12.107  14.404  66.619  0.00  0.00    -0.001 A 
ATOM      9  C   UNL     1     -12.734  13.876  65.545  0.00  0.00    +0.029 A 
ATOM     10  C   UNL     1     -12.143  14.196  64.322  0.00  0.00    +0.140 A 
ATOM     11  F   UNL     1     -11.966  13.184  63.416  0.00  0.00    -0.204 F 
ATOM     12  C   UNL     1     -11.331  15.326  64.359  0.00  0.00    +0.029 A 
ATOM     13  C   UNL     1     -10.831  15.836  65.561  0.00  0.00    -0.001 A 
ENDBRANCH   2   7
BRANCH   3  14
ATOM     14  C   UNL     1      -9.758  12.994  68.274  0.00  0.00    +0.141 C 
BRANCH  14  15
ATOM     15  C   UNL     1     -10.715  11.879  68.535  0.00  0.00    +0.182 A 
ATOM     16  N   UNL     1     -10.395  10.977  69.498  0.00  0.00    -0.171 NA
ATOM     17  C   UNL     1     -10.627   9.737  68.996  0.00  0.00    +0.388 A 
ATOM     18  O   UNL     1     -10.068   8.644  69.306  0.00  0.00    -0.241 OA
ATOM     19  N   UNL     1     -11.618   9.954  68.098  0.00  0.00    -0.087 NA
ATOM     20  N   UNL     1     -11.621  11.240  67.802  0.00  0.00    -0.127 NA
ENDBRANCH  14  15
ENDBRANCH   3  14
BRANCH   1  21
ATOM     21  O   UNL     1     -10.139  17.714  67.832  0.00  0.00    -0.327 OA
BRANCH  21  23
ATOM     22  C   UNL     1     -10.277  19.893  67.466  0.00  0.00    +0.037 C 
ATOM     23  C   UNL     1      -9.679  18.894  68.650  0.00  0.00    +0.140 C 
BRANCH  23  24
ATOM     24  C   UNL     1      -8.142  18.887  68.110  0.00  0.00    +0.005 A 
ATOM     25  C   UNL     1      -7.270  19.254  69.137  0.00  0.00    +0.002 A 
ATOM     26  C   UNL     1      -6.379  20.262  69.133  0.00  0.00    +0.071 A 
ATOM     27  C   UNL     1      -6.235  20.964  67.941  0.00  0.00    +0.008 A 
ATOM     28  C   UNL     1      -6.722  20.365  66.784  0.00  0.00    +0.071 A 
ATOM     29  C   UNL     1      -7.835  19.542  66.966  0.00  0.00    +0.002 A 
BRANCH  26  30
ATOM     30  C   UNL     1      -5.408  20.405  70.263  0.00  0.00    +0.419 C 
ATOM     31  F   UNL     1      -4.752  21.610  70.238  0.00  0.00    -0.166 F 
ATOM     32  F   UNL     1      -4.436  19.423  70.094  0.00  0.00    -0.166 F 
ATOM     33  F   UNL     1      -6.064  20.204  71.453  0.00  0.00    -0.166 F 
ENDBRANCH  26  30
BRANCH  28  34
ATOM     34  C   UNL     1      -5.978  20.396  65.492  0.00  0.00    +0.419 C 
ATOM     35  F   UNL     1      -6.862  20.646  64.448  0.00  0.00    -0.166 F 
ATOM     36  F   UNL     1      -5.520  19.099  65.271  0.00  0.00    -0.166 F 
ATOM     37  F   UNL     1      -4.972  21.313  65.479  0.00  0.00    -0.166 F 
ENDBRANCH  28  34
ENDBRANCH  23  24
ENDBRANCH  21  23
ENDBRANCH   1  21
TORSDOF 8
ENDMDL
MODEL 8
REMARK VINA RESULT:      -7.6      3.113      5.218
REMARK  Name = 
REMARK  8 active torsions:
REMARK  status: ('A' for Active; 'I' for Inactive)
REMARK    1  A    between atoms: C_2  and  O_3
REMARK    2  A    between atoms: C_2  and  C_24
REMARK    3  A    between atoms: O_3  and  C_4
REMARK    4  A    between atoms: N_8  and  C_9
REMARK    5  A    between atoms: C_9  and  C_10
REMARK    6  A    between atoms: C_16  and  C_17
REMARK    7  A    between atoms: C_26  and  C_27
REMARK    8  A    between atoms: C_32  and  C_33
REMARK                            x       y       z     vdW  Elec       q    Type
REMARK                         _______ _______ _______ _____ _____    ______ ____
ROOT
ATOM      1  C   UNL     1      -9.663  16.863  68.279  0.00  0.00    +0.255 C 
ATOM      2  C   UNL     1      -9.432  15.455  67.280  0.00  0.00    +0.138 C 
ATOM      3  N   UNL     1      -9.604  14.539  68.535  0.00  0.00    -0.258 NA
ATOM      4  C   UNL     1     -10.735  14.739  69.240  0.00  0.00    +0.105 C 
ATOM      5  C   UNL     1     -11.085  16.105  69.755  0.00  0.00    +0.162 C 
ATOM      6  O   UNL     1     -11.166  16.733  68.481  0.00  0.00    -0.328 OA
ENDROOT
BRANCH   2   7
ATOM      7  C   UNL     1     -10.871  15.266  66.655  0.00  0.00    -0.003 A 
ATOM      8  C   UNL     1     -11.797  14.405  66.669  0.00  0.00    -0.001 A 
ATOM      9  C   UNL     1     -12.583  13.839  65.727  0.00  0.00    +0.029 A 
ATOM     10  C   UNL     1     -12.242  14.178  64.417  0.00  0.00    +0.140 A 
ATOM     11  F   UNL     1     -12.184  13.168  63.492  0.00  0.00    -0.204 F 
ATOM     12  C   UNL     1     -11.494  15.346  64.306  0.00  0.00    +0.029 A 
ATOM     13  C   UNL     1     -10.807  15.890  65.397  0.00  0.00    -0.001 A 
ENDBRANCH   2   7
BRANCH   3  14
ATOM     14  C   UNL     1      -9.292  13.232  68.233  0.00  0.00    +0.141 C 
BRANCH  14  15
ATOM     15  C   UNL     1      -7.830  12.938  68.168  0.00  0.00    +0.182 A 
ATOM     16  N   UNL     1      -6.995  13.686  68.932  0.00  0.00    -0.171 NA
ATOM     17  C   UNL     1      -5.947  14.060  68.154  0.00  0.00    +0.388 A 
ATOM     18  O   UNL     1      -5.212  15.086  68.261  0.00  0.00    -0.241 OA
ATOM     19  N   UNL     1      -5.867  13.054  67.250  0.00  0.00    -0.087 NA
ATOM     20  N   UNL     1      -7.026  12.424  67.243  0.00  0.00    -0.127 NA
ENDBRANCH  14  15
ENDBRANCH   3  14
BRANCH   1  21
ATOM     21  O   UNL     1      -9.640  17.842  67.117  0.00  0.00    -0.327 OA
BRANCH  21  23
ATOM     22  C   UNL     1     -10.568  19.543  66.045  0.00  0.00    +0.037 C 
ATOM     23  C   UNL     1     -10.292  19.105  67.622  0.00  0.00    +0.140 C 
BRANCH  23  24
ATOM     24  C   UNL     1      -8.910  19.951  67.797  0.00  0.00    +0.005 A 
ATOM     25  C   UNL     1      -8.180  19.932  66.607  0.00  0.00    +0.002 A 
ATOM     26  C   UNL     1      -6.914  19.514  66.431  0.00  0.00    +0.071 A 
ATOM     27  C   UNL     1      -6.212  19.146  67.573  0.00  0.00    +0.008 A 
ATOM     28  C   UNL     1      -6.716  19.573  68.797  0.00  0.00    +0.071 A 
ATOM     29  C   UNL     1      -8.106  19.698  68.855  0.00  0.00    +0.002 A 
BRANCH  26  30
ATOM     30  C   UNL     1      -6.236  19.723  65.112  0.00  0.00    +0.419 C 
ATOM     31  F   UNL     1      -6.106  18.555  64.402  0.00  0.00    -0.166 F 
ATOM     32  F   UNL     1      -4.944  20.167  65.383  0.00  0.00    -0.166 F 
ATOM     33  F   UNL     1      -6.914  20.682  64.401  0.00  0.00    -0.166 F 
ENDBRANCH  26  30
BRANCH  28  34
ATOM     34  C   UNL     1      -5.840  20.092  69.887  0.00  0.00    +0.419 C 
ATOM     35  F   UNL     1      -5.247  21.285  69.484  0.00  0.00    -0.166 F 
ATOM     36  F   UNL     1      -4.784  19.191  70.005  0.00  0.00    -0.166 F 
ATOM     37  F   UNL     1      -6.502  20.276  71.061  0.00  0.00    -0.166 F 
ENDBRANCH  28  34
ENDBRANCH  23  24
ENDBRANCH  21  23
ENDBRANCH   1  21
TORSDOF 8
ENDMDL
MODEL 9
REMARK VINA RESULT:      -7.6      4.391      8.329
REMARK  Name = 
REMARK  8 active torsions:
REMARK  status: ('A' for Active; 'I' for Inactive)
REMARK    1  A    between atoms: C_2  and  O_3
REMARK    2  A    between atoms: C_2  and  C_24
REMARK    3  A    between atoms: O_3  and  C_4
REMARK    4  A    between atoms: N_8  and  C_9
REMARK    5  A    between atoms: C_9  and  C_10
REMARK    6  A    between atoms: C_16  and  C_17
REMARK    7  A    between atoms: C_26  and  C_27
REMARK    8  A    between atoms: C_32  and  C_33
REMARK                            x       y       z     vdW  Elec       q    Type
REMARK                         _______ _______ _______ _____ _____    ______ ____
ROOT
ATOM      1  C   UNL     1      -6.217  15.836  67.912  0.00  0.00    +0.255 C 
ATOM      2  C   UNL     1      -7.291  17.025  68.599  0.00  0.00    +0.138 C 
ATOM      3  N   UNL     1      -6.089  18.012  68.760  0.00  0.00    -0.258 NA
ATOM      4  C   UNL     1      -5.384  18.247  67.636  0.00  0.00    +0.105 C 
ATOM      5  C   UNL     1      -4.799  17.112  66.847  0.00  0.00    +0.162 C 
ATOM      6  O   UNL     1      -6.037  16.480  66.546  0.00  0.00    -0.328 OA
ENDROOT
BRANCH   2   7
ATOM      7  C   UNL     1      -7.938  17.657  67.304  0.00  0.00    -0.003 A 
ATOM      8  C   UNL     1      -7.944  18.769  66.702  0.00  0.00    -0.001 A 
ATOM      9  C   UNL     1      -8.903  19.546  66.150  0.00  0.00    +0.029 A 
ATOM     10  C   UNL     1     -10.204  19.100  66.380  0.00  0.00    +0.140 A 
ATOM     11  F   UNL     1     -11.136  20.027  66.769  0.00  0.00    -0.204 F 
ATOM     12  C   UNL     1     -10.296  17.752  66.716  0.00  0.00    +0.029 A 
ATOM     13  C   UNL     1      -9.191  17.031  67.179  0.00  0.00    -0.001 A 
ENDBRANCH   2   7
BRANCH   3  14
ATOM     14  C   UNL     1      -6.459  19.116  69.495  0.00  0.00    +0.141 C 
BRANCH  14  15
ATOM     15  C   UNL     1      -5.735  19.277  70.790  0.00  0.00    +0.182 A 
ATOM     16  N   UNL     1      -5.923  20.427  71.487  0.00  0.00    -0.171 NA
ATOM     17  C   UNL     1      -4.703  20.870  71.888  0.00  0.00    +0.388 A 
ATOM     18  O   UNL     1      -4.336  22.059  72.125  0.00  0.00    -0.241 OA
ATOM     19  N   UNL     1      -3.984  19.727  71.992  0.00  0.00    -0.087 NA
ATOM     20  N   UNL     1      -4.598  18.797  71.287  0.00  0.00    -0.127 NA
ENDBRANCH  14  15
ENDBRANCH   3  14
BRANCH   1  21
ATOM     21  O   UNL     1      -7.324  14.846  67.590  0.00  0.00    -0.327 OA
BRANCH  21  23
ATOM     22  C   UNL     1      -5.827  13.226  67.785  0.00  0.00    +0.037 C 
ATOM     23  C   UNL     1      -7.188  13.727  68.592  0.00  0.00    +0.140 C 
BRANCH  23  24
ATOM     24  C   UNL     1      -8.217  12.706  67.848  0.00  0.00    +0.005 A 
ATOM     25  C   UNL     1      -8.890  13.365  66.818  0.00  0.00    +0.002 A 
ATOM     26  C   UNL     1     -10.219  13.487  66.656  0.00  0.00    +0.071 A 
ATOM     27  C   UNL     1     -11.024  12.800  67.558  0.00  0.00    +0.008 A 
ATOM     28  C   UNL     1     -10.431  11.782  68.297  0.00  0.00    +0.071 A 
ATOM     29  C   UNL     1      -9.080  11.973  68.590  0.00  0.00    +0.002 A 
BRANCH  26  30
ATOM     30  C   UNL     1     -10.766  14.089  65.399  0.00  0.00    +0.419 C 
ATOM     31  F   UNL     1      -9.879  14.955  64.807  0.00  0.00    -0.166 F 
ATOM     32  F   UNL     1     -11.877  14.847  65.758  0.00  0.00    -0.166 F 
ATOM     33  F   UNL     1     -11.149  13.085  64.544  0.00  0.00    -0.166 F 
ENDBRANCH  26  30
BRANCH  28  34
ATOM     34  C   UNL     1     -11.108  10.478  68.549  0.00  0.00    +0.419 C 
ATOM     35  F   UNL     1     -11.321   9.818  67.343  0.00  0.00    -0.166 F 
ATOM     36  F   UNL     1     -12.383  10.781  69.021  0.00  0.00    -0.166 F 
ATOM     37  F   UNL     1     -10.415   9.675  69.402  0.00  0.00    -0.166 F 
ENDBRANCH  28  34
ENDBRANCH  23  24
ENDBRANCH  21  23
ENDBRANCH   1  21
TORSDOF 8
ENDMDL
