MODEL 1
REMARK VINA RESULT:      -8.8      0.000      0.000
REMARK  Name = 
REMARK  2 active torsions:
REMARK  status: ('A' for Active; 'I' for Inactive)
REMARK    1  A    between atoms: C_11  and  C_12
REMARK    2  A    between atoms: C_15  and  C_16
REMARK                            x       y       z     vdW  Elec       q    Type
REMARK                         _______ _______ _______ _____ _____    ______ ____
ROOT
ATOM      1  O   UNL     1     -11.224  16.890  64.222  0.00  0.00    -0.283 OA
ATOM      2  C   UNL     1     -10.948  16.435  65.275  0.00  0.00    +0.234 C 
ATOM      3  C   UNL     1     -11.064  15.011  65.614  0.00  0.00    +0.233 C 
ATOM      4  O   UNL     1     -11.701  14.172  64.695  0.00  0.00    -0.283 OA
ATOM      5  C   UNL     1     -10.350  14.499  66.616  0.00  0.00    +0.059 C 
ATOM      6  C   UNL     1      -9.582  15.358  67.436  0.00  0.00    +0.195 C 
ATOM      7  O   UNL     1      -9.080  14.852  68.487  0.00  0.00    -0.287 OA
ATOM      8  C   UNL     1      -9.524  16.824  67.291  0.00  0.00    +0.042 A 
ATOM      9  C   UNL     1      -9.461  17.636  68.419  0.00  0.00    +0.003 A 
ATOM     10  C   UNL     1      -9.657  19.009  68.329  0.00  0.00    +0.000 A 
ATOM     11  C   UNL     1     -10.199  19.556  67.182  0.00  0.00    +0.000 A 
ATOM     12  C   UNL     1     -10.445  18.677  66.151  0.00  0.00    +0.003 A 
ATOM     13  C   UNL     1     -10.274  17.321  66.232  0.00  0.00    +0.045 A 
ENDROOT
BRANCH   5  14
ATOM     14  C   UNL     1     -11.048  13.173  67.205  0.00  0.00    +0.029 C 
ATOM     15  C   UNL     1     -11.837  13.925  68.443  0.00  0.00    +0.005 C 
ATOM     16  C   UNL     1     -11.745  13.004  69.600  0.00  0.00    +0.005 C 
ATOM     17  C   UNL     1     -11.763  11.507  68.914  0.00  0.00    +0.022 C 
ATOM     18  C   UNL     1     -10.119  11.474  68.804  0.00  0.00    +0.005 C 
ATOM     19  C   UNL     1      -9.753  12.811  68.159  0.00  0.00    +0.005 C 
BRANCH  17  20
ATOM     20  C   UNL     1     -11.816  10.747  70.336  0.00  0.00    -0.022 A 
ATOM     21  C   UNL     1     -11.228   9.488  70.248  0.00  0.00    -0.003 A 
ATOM     22  C   UNL     1     -11.746   8.372  70.902  0.00  0.00    +0.011 A 
ATOM     23  C   UNL     1     -12.960   8.518  71.564  0.00  0.00    +0.058 A 
ATOM     24 CL   UNL     1     -14.214   7.280  71.497  0.00  0.00    -0.082 Cl
ATOM     25  C   UNL     1     -13.215   9.815  72.001  0.00  0.00    +0.011 A 
ATOM     26  C   UNL     1     -12.961  10.817  71.058  0.00  0.00    -0.003 A 
ENDBRANCH  17  20
ENDBRANCH   5  14
TORSDOF 2
ENDMDL
MODEL 2
REMARK VINA RESULT:      -8.2      4.641      8.149
REMARK  Name = 
REMARK  2 active torsions:
REMARK  status: ('A' for Active; 'I' for Inactive)
REMARK    1  A    between atoms: C_11  and  C_12
REMARK    2  A    between atoms: C_15  and  C_16
REMARK                            x       y       z     vdW  Elec       q    Type
REMARK                         _______ _______ _______ _____ _____    ______ ____
ROOT
ATOM      1  O   UNL     1     -12.444  13.599  63.376  0.00  0.00    -0.283 OA
ATOM      2  C   UNL     1     -11.663  13.906  64.205  0.00  0.00    +0.234 C 
ATOM      3  C   UNL     1     -11.452  15.283  64.668  0.00  0.00    +0.233 C 
ATOM      4  O   UNL     1     -12.087  16.311  63.967  0.00  0.00    -0.283 OA
ATOM      5  C   UNL     1     -10.910  15.514  65.865  0.00  0.00    +0.059 C 
ATOM      6  C   UNL     1     -10.418  14.430  66.629  0.00  0.00    +0.195 C 
ATOM      7  O   UNL     1      -9.742  14.717  67.664  0.00  0.00    -0.287 OA
ATOM      8  C   UNL     1     -10.427  13.022  66.189  0.00  0.00    +0.042 A 
ATOM      9  C   UNL     1      -9.360  12.186  66.503  0.00  0.00    +0.003 A 
ATOM     10  C   UNL     1      -9.220  10.943  65.899  0.00  0.00    +0.000 A 
ATOM     11  C   UNL     1      -9.962  10.633  64.775  0.00  0.00    +0.000 A 
ATOM     12  C   UNL     1     -10.869  11.584  64.367  0.00  0.00    +0.003 A 
ATOM     13  C   UNL     1     -11.005  12.820  64.942  0.00  0.00    +0.045 A 
ENDROOT
BRANCH   5  14
ATOM     14  C   UNL     1     -10.214  16.965  65.915  0.00  0.00    +0.029 C 
ATOM     15  C   UNL     1      -8.697  16.420  66.263  0.00  0.00    +0.005 C 
ATOM     16  C   UNL     1      -8.134  17.383  67.238  0.00  0.00    +0.005 C 
ATOM     17  C   UNL     1      -8.812  18.821  66.805  0.00  0.00    +0.022 C 
ATOM     18  C   UNL     1     -10.087  18.593  67.822  0.00  0.00    +0.005 C 
ATOM     19  C   UNL     1     -10.577  17.180  67.508  0.00  0.00    +0.005 C 
BRANCH  17  20
ATOM     20  C   UNL     1      -7.942  19.665  67.870  0.00  0.00    -0.022 A 
ATOM     21  C   UNL     1      -7.244  20.691  67.239  0.00  0.00    -0.003 A 
ATOM     22  C   UNL     1      -5.943  21.041  67.595  0.00  0.00    +0.011 A 
ATOM     23  C   UNL     1      -5.296  20.248  68.536  0.00  0.00    +0.058 A 
ATOM     24 CL   UNL     1      -3.600  19.797  68.366  0.00  0.00    -0.082 Cl
ATOM     25  C   UNL     1      -6.155  19.602  69.419  0.00  0.00    +0.011 A 
ATOM     26  C   UNL     1      -7.261  18.985  68.825  0.00  0.00    -0.003 A 
ENDBRANCH  17  20
ENDBRANCH   5  14
TORSDOF 2
ENDMDL
MODEL 3
REMARK VINA RESULT:      -8.0      3.903      7.949
REMARK  Name = 
REMARK  2 active torsions:
REMARK  status: ('A' for Active; 'I' for Inactive)
REMARK    1  A    between atoms: C_11  and  C_12
REMARK    2  A    between atoms: C_15  and  C_16
REMARK                            x       y       z     vdW  Elec       q    Type
REMARK                         _______ _______ _______ _____ _____    ______ ____
ROOT
ATOM      1  O   UNL     1     -12.438  14.348  64.135  0.00  0.00    -0.283 OA
ATOM      2  C   UNL     1     -11.649  14.616  64.969  0.00  0.00    +0.234 C 
ATOM      3  C   UNL     1     -11.063  15.950  65.151  0.00  0.00    +0.233 C 
ATOM      4  O   UNL     1     -11.323  16.915  64.175  0.00  0.00    -0.283 OA
ATOM      5  C   UNL     1     -10.545  16.302  66.329  0.00  0.00    +0.059 C 
ATOM      6  C   UNL     1     -10.441  15.339  67.361  0.00  0.00    +0.195 C 
ATOM      7  O   UNL     1      -9.769  15.667  68.386  0.00  0.00    -0.287 OA
ATOM      8  C   UNL     1     -10.844  13.926  67.233  0.00  0.00    +0.042 A 
ATOM      9  C   UNL     1     -10.094  12.928  67.846  0.00  0.00    +0.003 A 
ATOM     10  C   UNL     1     -10.298  11.587  67.542  0.00  0.00    +0.000 A 
ATOM     11  C   UNL     1     -11.034  11.235  66.427  0.00  0.00    +0.000 A 
ATOM     12  C   UNL     1     -11.592  12.274  65.718  0.00  0.00    +0.003 A 
ATOM     13  C   UNL     1     -11.386  13.600  65.995  0.00  0.00    +0.045 A 
ENDROOT
BRANCH   5  14
ATOM     14  C   UNL     1      -9.453  17.471  66.154  0.00  0.00    +0.029 C 
ATOM     15  C   UNL     1      -8.129  16.493  66.260  0.00  0.00    +0.005 C 
ATOM     16  C   UNL     1      -7.129  17.247  67.050  0.00  0.00    +0.005 C 
ATOM     17  C   UNL     1      -7.417  18.819  66.650  0.00  0.00    +0.022 C 
ATOM     18  C   UNL     1      -8.482  19.001  67.893  0.00  0.00    +0.005 C 
ATOM     19  C   UNL     1      -9.422  17.802  67.769  0.00  0.00    +0.005 C 
BRANCH  17  20
ATOM     20  C   UNL     1      -6.148  19.367  67.481  0.00  0.00    -0.022 A 
ATOM     21  C   UNL     1      -5.595  18.359  68.266  0.00  0.00    -0.003 A 
ATOM     22  C   UNL     1      -5.116  18.590  69.554  0.00  0.00    +0.011 A 
ATOM     23  C   UNL     1      -5.314  19.853  70.100  0.00  0.00    +0.058 A 
ATOM     24 CL   UNL     1      -5.794  20.077  71.782  0.00  0.00    -0.082 Cl
ATOM     25  C   UNL     1      -5.411  20.869  69.154  0.00  0.00    +0.011 A 
ATOM     26  C   UNL     1      -6.242  20.587  68.065  0.00  0.00    -0.003 A 
ENDBRANCH  17  20
ENDBRANCH   5  14
TORSDOF 2
ENDMDL
MODEL 4
REMARK VINA RESULT:      -7.9      4.269      7.495
REMARK  Name = 
REMARK  2 active torsions:
REMARK  status: ('A' for Active; 'I' for Inactive)
REMARK    1  A    between atoms: C_11  and  C_12
REMARK    2  A    between atoms: C_15  and  C_16
REMARK                            x       y       z     vdW  Elec       q    Type
REMARK                         _______ _______ _______ _____ _____    ______ ____
ROOT
ATOM      1  O   UNL     1     -12.803  12.117  63.526  0.00  0.00    -0.283 OA
ATOM      2  C   UNL     1     -12.085  12.329  64.437  0.00  0.00    +0.234 C 
ATOM      3  C   UNL     1     -12.379  13.284  65.513  0.00  0.00    +0.233 C 
ATOM      4  O   UNL     1     -13.492  14.116  65.360  0.00  0.00    -0.283 OA
ATOM      5  C   UNL     1     -11.780  13.166  66.698  0.00  0.00    +0.059 C 
ATOM      6  C   UNL     1     -10.762  12.200  66.873  0.00  0.00    +0.195 C 
ATOM      7  O   UNL     1     -10.093  12.258  67.949  0.00  0.00    -0.287 OA
ATOM      8  C   UNL     1     -10.269  11.301  65.812  0.00  0.00    +0.042 A 
ATOM      9  C   UNL     1      -8.917  10.984  65.738  0.00  0.00    +0.003 A 
ATOM     10  C   UNL     1      -8.387  10.352  64.619  0.00  0.00    +0.000 A 
ATOM     11  C   UNL     1      -9.120  10.287  63.450  0.00  0.00    +0.000 A 
ATOM     12  C   UNL     1     -10.394  10.807  63.505  0.00  0.00    +0.003 A 
ATOM     13  C   UNL     1     -10.922  11.448  64.594  0.00  0.00    +0.045 A 
ENDROOT
BRANCH   5  14
ATOM     14  C   UNL     1     -11.743  14.578  67.471  0.00  0.00    +0.029 C 
ATOM     15  C   UNL     1     -11.194  15.463  66.193  0.00  0.00    +0.005 C 
ATOM     16  C   UNL     1     -10.224  16.431  66.757  0.00  0.00    +0.005 C 
ATOM     17  C   UNL     1     -10.819  16.753  68.258  0.00  0.00    +0.022 C 
ATOM     18  C   UNL     1      -9.939  15.534  68.932  0.00  0.00    +0.005 C 
ATOM     19  C   UNL     1     -10.217  14.325  68.040  0.00  0.00    +0.005 C 
BRANCH  17  20
ATOM     20  C   UNL     1      -9.718  17.893  68.559  0.00  0.00    -0.022 A 
ATOM     21  C   UNL     1     -10.124  19.123  68.049  0.00  0.00    -0.003 A 
ATOM     22  C   UNL     1      -9.239  20.012  67.442  0.00  0.00    +0.011 A 
ATOM     23  C   UNL     1      -7.931  19.586  67.244  0.00  0.00    +0.058 A 
ATOM     24 CL   UNL     1      -7.053  19.931  65.754  0.00  0.00    -0.082 Cl
ATOM     25  C   UNL     1      -7.504  18.625  68.156  0.00  0.00    +0.011 A 
ATOM     26  C   UNL     1      -8.409  17.583  68.385  0.00  0.00    -0.003 A 
ENDBRANCH  17  20
ENDBRANCH   5  14
TORSDOF 2
ENDMDL
MODEL 5
REMARK VINA RESULT:      -7.9      4.017      8.262
REMARK  Name = 
REMARK  2 active torsions:
REMARK  status: ('A' for Active; 'I' for Inactive)
REMARK    1  A    between atoms: C_11  and  C_12
REMARK    2  A    between atoms: C_15  and  C_16
REMARK                            x       y       z     vdW  Elec       q    Type
REMARK                         _______ _______ _______ _____ _____    ______ ____
ROOT
ATOM      1  O   UNL     1     -11.245  12.102  65.804  0.00  0.00    -0.283 OA
ATOM      2  C   UNL     1     -11.129  13.020  66.534  0.00  0.00    +0.234 C 
ATOM      3  C   UNL     1     -10.619  14.336  66.130  0.00  0.00    +0.233 C 
ATOM      4  O   UNL     1     -10.077  14.459  64.847  0.00  0.00    -0.283 OA
ATOM      5  C   UNL     1     -10.916  15.421  66.846  0.00  0.00    +0.059 C 
ATOM      6  C   UNL     1     -11.611  15.281  68.069  0.00  0.00    +0.195 C 
ATOM      7  O   UNL     1     -11.697  16.313  68.803  0.00  0.00    -0.287 OA
ATOM      8  C   UNL     1     -12.026  13.993  68.655  0.00  0.00    +0.042 A 
ATOM      9  C   UNL     1     -11.968  13.800  70.031  0.00  0.00    +0.003 A 
ATOM     10  C   UNL     1     -12.109  12.534  70.587  0.00  0.00    +0.000 A 
ATOM     11  C   UNL     1     -12.020  11.413  69.784  0.00  0.00    +0.000 A 
ATOM     12  C   UNL     1     -11.865  11.645  68.436  0.00  0.00    +0.003 A 
ATOM     13  C   UNL     1     -11.707  12.886  67.877  0.00  0.00    +0.045 A 
ENDROOT
BRANCH   5  14
ATOM     14  C   UNL     1      -9.814  16.576  66.630  0.00  0.00    +0.029 C 
ATOM     15  C   UNL     1      -8.868  16.158  67.914  0.00  0.00    +0.005 C 
ATOM     16  C   UNL     1      -8.418  17.433  68.518  0.00  0.00    +0.005 C 
ATOM     17  C   UNL     1      -8.294  18.454  67.232  0.00  0.00    +0.022 C 
ATOM     18  C   UNL     1      -9.851  18.962  67.410  0.00  0.00    +0.005 C 
ATOM     19  C   UNL     1     -10.662  17.671  67.523  0.00  0.00    +0.005 C 
BRANCH  17  20
ATOM     20  C   UNL     1      -7.664  19.649  68.114  0.00  0.00    -0.022 A 
ATOM     21  C   UNL     1      -7.098  20.625  67.297  0.00  0.00    -0.003 A 
ATOM     22  C   UNL     1      -5.905  21.270  67.618  0.00  0.00    +0.011 A 
ATOM     23  C   UNL     1      -5.212  20.827  68.739  0.00  0.00    +0.058 A 
ATOM     24 CL   UNL     1      -3.457  20.661  68.744  0.00  0.00    -0.082 Cl
ATOM     25  C   UNL     1      -6.020  20.241  69.709  0.00  0.00    +0.011 A 
ATOM     26  C   UNL     1      -6.957  19.323  69.224  0.00  0.00    -0.003 A 
ENDBRANCH  17  20
ENDBRANCH   5  14
TORSDOF 2
ENDMDL
MODEL 6
REMARK VINA RESULT:      -7.7      3.786      5.008
REMARK  Name = 
REMARK  2 active torsions:
REMARK  status: ('A' for Active; 'I' for Inactive)
REMARK    1  A    between atoms: C_11  and  C_12
REMARK    2  A    between atoms: C_15  and  C_16
REMARK                            x       y       z     vdW  Elec       q    Type
REMARK                         _______ _______ _______ _____ _____    ______ ____
ROOT
ATOM      1  O   UNL     1      -6.561  17.424  69.129  0.00  0.00    -0.283 OA
ATOM      2  C   UNL     1      -7.671  17.159  68.836  0.00  0.00    +0.234 C 
ATOM      3  C   UNL     1      -8.294  15.849  69.063  0.00  0.00    +0.233 C 
ATOM      4  O   UNL     1      -7.473  14.803  69.493  0.00  0.00    -0.283 OA
ATOM      5  C   UNL     1      -9.621  15.737  69.128  0.00  0.00    +0.059 C 
ATOM      6  C   UNL     1     -10.431  16.862  68.843  0.00  0.00    +0.195 C 
ATOM      7  O   UNL     1     -11.678  16.658  68.728  0.00  0.00    -0.287 OA
ATOM      8  C   UNL     1      -9.916  18.184  68.440  0.00  0.00    +0.042 A 
ATOM      9  C   UNL     1     -10.598  18.939  67.491  0.00  0.00    +0.003 A 
ATOM     10  C   UNL     1     -10.016  20.060  66.911  0.00  0.00    +0.000 A 
ATOM     11  C   UNL     1      -8.659  20.281  67.044  0.00  0.00    +0.000 A 
ATOM     12  C   UNL     1      -7.973  19.382  67.829  0.00  0.00    +0.003 A 
ATOM     13  C   UNL     1      -8.530  18.263  68.391  0.00  0.00    +0.045 A 
ENDROOT
BRANCH   5  14
ATOM     14  C   UNL     1     -10.095  14.243  68.760  0.00  0.00    +0.029 C 
ATOM     15  C   UNL     1      -8.884  13.935  67.684  0.00  0.00    +0.005 C 
ATOM     16  C   UNL     1      -9.509  13.176  66.576  0.00  0.00    +0.005 C 
ATOM     17  C   UNL     1     -10.692  12.302  67.317  0.00  0.00    +0.022 C 
ATOM     18  C   UNL     1     -11.803  13.495  67.078  0.00  0.00    +0.005 C 
ATOM     19  C   UNL     1     -11.110  14.766  67.571  0.00  0.00    +0.005 C 
BRANCH  17  20
ATOM     20  C   UNL     1     -11.075  11.495  65.974  0.00  0.00    -0.022 A 
ATOM     21  C   UNL     1     -10.255  10.380  65.814  0.00  0.00    -0.003 A 
ATOM     22  C   UNL     1      -9.768   9.981  64.571  0.00  0.00    +0.011 A 
ATOM     23  C   UNL     1     -10.026  10.805  63.482  0.00  0.00    +0.058 A 
ATOM     24 CL   UNL     1      -8.803  11.138  62.255  0.00  0.00    -0.082 Cl
ATOM     25  C   UNL     1     -11.180  11.572  63.612  0.00  0.00    +0.011 A 
ATOM     26  C   UNL     1     -11.333  12.205  64.849  0.00  0.00    -0.003 A 
ENDBRANCH  17  20
ENDBRANCH   5  14
TORSDOF 2
ENDMDL
MODEL 7
REMARK VINA RESULT:      -7.6      4.217      7.846
REMARK  Name = 
REMARK  2 active torsions:
REMARK  status: ('A' for Active; 'I' for Inactive)
REMARK    1  A    between atoms: C_11  and  C_12
REMARK    2  A    between atoms: C_15  and  C_16
REMARK                            x       y       z     vdW  Elec       q    Type
REMARK                         _______ _______ _______ _____ _____    ______ ____
ROOT
ATOM      1  O   UNL     1     -12.471  11.796  70.486  0.00  0.00    -0.283 OA
ATOM      2  C   UNL     1     -12.062  12.874  70.238  0.00  0.00    +0.234 C 
ATOM      3  C   UNL     1     -11.345  13.220  69.004  0.00  0.00    +0.233 C 
ATOM      4  O   UNL     1     -10.973  12.176  68.152  0.00  0.00    -0.283 OA
ATOM      5  C   UNL     1     -11.302  14.485  68.584  0.00  0.00    +0.059 C 
ATOM      6  C   UNL     1     -11.835  15.510  69.400  0.00  0.00    +0.195 C 
ATOM      7  O   UNL     1     -11.596  16.706  69.049  0.00  0.00    -0.287 OA
ATOM      8  C   UNL     1     -12.428  15.296  70.733  0.00  0.00    +0.042 A 
ATOM      9  C   UNL     1     -12.222  16.227  71.746  0.00  0.00    +0.003 A 
ATOM     10  C   UNL     1     -12.550  15.937  73.065  0.00  0.00    +0.000 A 
ATOM     11  C   UNL     1     -12.814  14.635  73.442  0.00  0.00    +0.000 A 
ATOM     12  C   UNL     1     -12.802  13.699  72.433  0.00  0.00    +0.003 A 
ATOM     13  C   UNL     1     -12.462  13.966  71.133  0.00  0.00    +0.045 A 
ENDROOT
BRANCH   5  14
ATOM     14  C   UNL     1     -10.021  14.738  67.641  0.00  0.00    +0.029 C 
ATOM     15  C   UNL     1      -9.067  15.396  68.814  0.00  0.00    +0.005 C 
ATOM     16  C   UNL     1      -8.331  16.505  68.163  0.00  0.00    +0.005 C 
ATOM     17  C   UNL     1      -8.122  15.981  66.615  0.00  0.00    +0.022 C 
ATOM     18  C   UNL     1      -9.531  16.679  66.126  0.00  0.00    +0.005 C 
ATOM     19  C   UNL     1     -10.563  16.217  67.155  0.00  0.00    +0.005 C 
BRANCH  17  20
ATOM     20  C   UNL     1      -7.201  17.241  66.207  0.00  0.00    -0.022 A 
ATOM     21  C   UNL     1      -5.976  17.196  66.868  0.00  0.00    -0.003 A 
ATOM     22  C   UNL     1      -5.354  18.337  67.371  0.00  0.00    +0.011 A 
ATOM     23  C   UNL     1      -6.053  19.536  67.303  0.00  0.00    +0.058 A 
ATOM     24 CL   UNL     1      -6.054  20.692  68.635  0.00  0.00    -0.082 Cl
ATOM     25  C   UNL     1      -6.977  19.595  66.263  0.00  0.00    +0.011 A 
ATOM     26  C   UNL     1      -7.784  18.462  66.124  0.00  0.00    -0.003 A 
ENDBRANCH  17  20
ENDBRANCH   5  14
TORSDOF 2
ENDMDL
MODEL 8
REMARK VINA RESULT:      -7.4      3.988      5.640
REMARK  Name = 
REMARK  2 active torsions:
REMARK  status: ('A' for Active; 'I' for Inactive)
REMARK    1  A    between atoms: C_11  and  C_12
REMARK    2  A    between atoms: C_15  and  C_16
REMARK                            x       y       z     vdW  Elec       q    Type
REMARK                         _______ _______ _______ _____ _____    ______ ____
ROOT
ATOM      1  O   UNL     1      -6.813  21.399  67.250  0.00  0.00    -0.283 OA
ATOM      2  C   UNL     1      -7.044  20.352  67.739  0.00  0.00    +0.234 C 
ATOM      3  C   UNL     1      -8.042  19.405  67.225  0.00  0.00    +0.233 C 
ATOM      4  O   UNL     1      -8.887  19.840  66.202  0.00  0.00    -0.283 OA
ATOM      5  C   UNL     1      -7.955  18.108  67.526  0.00  0.00    +0.059 C 
ATOM      6  C   UNL     1      -6.977  17.670  68.450  0.00  0.00    +0.195 C 
ATOM      7  O   UNL     1      -7.061  16.468  68.848  0.00  0.00    -0.287 OA
ATOM      8  C   UNL     1      -6.032  18.557  69.154  0.00  0.00    +0.042 A 
ATOM      9  C   UNL     1      -5.687  18.301  70.476  0.00  0.00    +0.003 A 
ATOM     10  C   UNL     1      -5.006  19.244  71.237  0.00  0.00    +0.000 A 
ATOM     11  C   UNL     1      -4.913  20.550  70.797  0.00  0.00    +0.000 A 
ATOM     12  C   UNL     1      -5.458  20.812  69.561  0.00  0.00    +0.003 A 
ATOM     13  C   UNL     1      -6.147  19.898  68.809  0.00  0.00    +0.045 A 
ENDROOT
BRANCH   5  14
ATOM     14  C   UNL     1      -9.393  17.392  67.418  0.00  0.00    +0.029 C 
ATOM     15  C   UNL     1      -9.066  16.179  68.486  0.00  0.00    +0.005 C 
ATOM     16  C   UNL     1      -9.695  14.962  67.922  0.00  0.00    +0.005 C 
ATOM     17  C   UNL     1     -11.030  15.534  67.145  0.00  0.00    +0.022 C 
ATOM     18  C   UNL     1     -10.202  15.716  65.733  0.00  0.00    +0.005 C 
ATOM     19  C   UNL     1      -8.934  16.474  66.128  0.00  0.00    +0.005 C 
BRANCH  17  20
ATOM     20  C   UNL     1     -11.577  14.059  66.789  0.00  0.00    -0.022 A 
ATOM     21  C   UNL     1     -10.577  13.105  66.952  0.00  0.00    -0.003 A 
ATOM     22  C   UNL     1     -10.416  12.032  66.078  0.00  0.00    +0.011 A 
ATOM     23  C   UNL     1     -11.219  11.997  64.944  0.00  0.00    +0.058 A 
ATOM     24 CL   UNL     1     -10.586  11.524  63.367  0.00  0.00    -0.082 Cl
ATOM     25  C   UNL     1     -12.438  12.652  65.092  0.00  0.00    +0.011 A 
ATOM     26  C   UNL     1     -12.362  13.913  65.693  0.00  0.00    -0.003 A 
ENDBRANCH  17  20
ENDBRANCH   5  14
TORSDOF 2
ENDMDL
MODEL 9
REMARK VINA RESULT:      -7.3      2.181      2.521
REMARK  Name = 
REMARK  2 active torsions:
REMARK  status: ('A' for Active; 'I' for Inactive)
REMARK    1  A    between atoms: C_11  and  C_12
REMARK    2  A    between atoms: C_15  and  C_16
REMARK                            x       y       z     vdW  Elec       q    Type
REMARK                         _______ _______ _______ _____ _____    ______ ____
ROOT
ATOM      1  O   UNL     1     -11.368  16.692  64.131  0.00  0.00    -0.283 OA
ATOM      2  C   UNL     1     -10.929  16.050  65.017  0.00  0.00    +0.234 C 
ATOM      3  C   UNL     1     -10.946  14.582  65.059  0.00  0.00    +0.233 C 
ATOM      4  O   UNL     1     -11.678  13.911  64.076  0.00  0.00    -0.283 OA
ATOM      5  C   UNL     1     -10.078  13.922  65.826  0.00  0.00    +0.059 C 
ATOM      6  C   UNL     1      -9.231  14.641  66.701  0.00  0.00    +0.195 C 
ATOM      7  O   UNL     1      -8.567  13.964  67.544  0.00  0.00    -0.287 OA
ATOM      8  C   UNL     1      -9.245  16.107  66.863  0.00  0.00    +0.042 A 
ATOM      9  C   UNL     1      -9.049  16.672  68.119  0.00  0.00    +0.003 A 
ATOM     10  C   UNL     1      -9.303  18.019  68.348  0.00  0.00    +0.000 A 
ATOM     11  C   UNL     1     -10.022  18.754  67.426  0.00  0.00    +0.000 A 
ATOM     12  C   UNL     1     -10.383  18.092  66.274  0.00  0.00    +0.003 A 
ATOM     13  C   UNL     1     -10.156  16.761  66.042  0.00  0.00    +0.045 A 
ENDROOT
BRANCH   5  14
ATOM     14  C   UNL     1     -10.639  12.461  66.208  0.00  0.00    +0.029 C 
ATOM     15  C   UNL     1     -11.158  12.863  67.721  0.00  0.00    +0.005 C 
ATOM     16  C   UNL     1     -10.830  11.703  68.583  0.00  0.00    +0.005 C 
ATOM     17  C   UNL     1     -10.986  10.409  67.576  0.00  0.00    +0.022 C 
ATOM     18  C   UNL     1      -9.400  10.485  67.137  0.00  0.00    +0.005 C 
ATOM     19  C   UNL     1      -9.176  11.952  66.770  0.00  0.00    +0.005 C 
BRANCH  17  20
ATOM     20  C   UNL     1     -10.745   9.336  68.757  0.00  0.00    -0.022 A 
ATOM     21  C   UNL     1     -10.060   9.915  69.822  0.00  0.00    -0.003 A 
ATOM     22  C   UNL     1      -9.073   9.237  70.534  0.00  0.00    +0.011 A 
ATOM     23  C   UNL     1      -8.692   7.982  70.074  0.00  0.00    +0.058 A 
ATOM     24 CL   UNL     1      -7.003   7.474  70.041  0.00  0.00    -0.082 Cl
ATOM     25  C   UNL     1      -9.686   7.311  69.368  0.00  0.00    +0.011 A 
ATOM     26  C   UNL     1     -10.358   8.082  68.415  0.00  0.00    -0.003 A 
ENDBRANCH  17  20
ENDBRANCH   5  14
TORSDOF 2
ENDMDL
