MODEL 1
REMARK VINA RESULT:      -8.3      0.000      0.000
REMARK  Name = 
REMARK  6 active torsions:
REMARK  status: ('A' for Active; 'I' for Inactive)
REMARK    1  A    between atoms: C_2  and  C_3
REMARK    2  A    between atoms: C_2  and  C_19
REMARK    3  A    between atoms: C_3  and  N_4
REMARK    4  A    between atoms: N_4  and  C_5
REMARK    5  A    between atoms: C_5  and  C_6
REMARK    6  A    between atoms: C_6  and  C_8
REMARK                            x       y       z     vdW  Elec       q    Type
REMARK                         _______ _______ _______ _____ _____    ______ ____
ROOT
ATOM      1  N   UNL     1     -10.696  13.719  65.586  0.00  0.00    -0.212 NA
ENDROOT
BRANCH   1   2
ATOM      2  C   UNL     1     -10.560  13.252  66.900  0.00  0.00    +0.125 C 
BRANCH   2   4
ATOM      3  O   UNL     1     -11.992  11.977  68.105  0.00  0.00    -0.218 OA
ATOM      4  C   UNL     1     -12.038  13.395  67.591  0.00  0.00    +0.209 C 
BRANCH   4   5
ATOM      5  C   UNL     1     -11.378  13.977  69.068  0.00  0.00    +0.198 C 
ATOM      6  O   UNL     1     -12.737  13.843  69.758  0.00  0.00    -0.477 OA
ATOM      7  C   UNL     1     -12.897  14.564  70.927  0.00  0.00    +0.135 A 
ATOM      8  C   UNL     1     -12.072  15.667  71.100  0.00  0.00    +0.014 A 
ATOM      9  C   UNL     1     -12.025  16.232  72.342  0.00  0.00    +0.028 A 
ATOM     10  C   UNL     1     -12.415  15.504  73.461  0.00  0.00    +0.140 A 
ATOM     11  C   UNL     1     -13.285  14.444  73.320  0.00  0.00    +0.033 A 
ATOM     12  F   UNL     1     -11.997  15.977  74.654  0.00  0.00    -0.204 F 
ATOM     13  C   UNL     1     -11.327  16.232  69.960  0.00  0.00    +0.033 C 
ATOM     14  C   UNL     1     -13.441  13.928  72.035  0.00  0.00    +0.039 A 
ATOM     15  C   UNL     1     -11.665  15.532  68.658  0.00  0.00    +0.051 C 
ENDBRANCH   4   5
ENDBRANCH   2   4
ENDBRANCH   1   2
BRANCH   1  16
ATOM     16  C   UNL     1      -9.921  14.788  65.119  0.00  0.00    +0.125 C 
BRANCH  16  17
ATOM     17  C   UNL     1     -10.147  16.070  66.106  0.00  0.00    +0.209 C 
ATOM     18  O   UNL     1     -10.560  16.971  64.964  0.00  0.00    -0.218 OA
BRANCH  17  19
ATOM     19  C   UNL     1      -8.463  16.482  66.061  0.00  0.00    +0.198 C 
ATOM     20  O   UNL     1      -8.694  17.988  66.190  0.00  0.00    -0.477 OA
ATOM     21  C   UNL     1      -7.877  18.777  66.885  0.00  0.00    +0.135 A 
ATOM     22  C   UNL     1      -7.578  18.428  68.187  0.00  0.00    +0.014 A 
ATOM     23  C   UNL     1      -6.609  19.140  68.838  0.00  0.00    +0.028 A 
ATOM     24  C   UNL     1      -6.115  20.284  68.222  0.00  0.00    +0.140 A 
ATOM     25  C   UNL     1      -7.027  20.919  67.383  0.00  0.00    +0.033 A 
ATOM     26  F   UNL     1      -5.266  21.094  68.881  0.00  0.00    -0.204 F 
ATOM     27  C   UNL     1      -7.679  16.996  68.465  0.00  0.00    +0.033 C 
ATOM     28  C   UNL     1      -7.686  20.090  66.482  0.00  0.00    +0.039 A 
ATOM     29  C   UNL     1      -8.354  16.098  67.640  0.00  0.00    +0.051 C 
ENDBRANCH  17  19
ENDBRANCH  16  17
ENDBRANCH   1  16
TORSDOF 6
ENDMDL
MODEL 2
REMARK VINA RESULT:      -8.1      3.203      3.848
REMARK  Name = 
REMARK  6 active torsions:
REMARK  status: ('A' for Active; 'I' for Inactive)
REMARK    1  A    between atoms: C_2  and  C_3
REMARK    2  A    between atoms: C_2  and  C_19
REMARK    3  A    between atoms: C_3  and  N_4
REMARK    4  A    between atoms: N_4  and  C_5
REMARK    5  A    between atoms: C_5  and  C_6
REMARK    6  A    between atoms: C_6  and  C_8
REMARK                            x       y       z     vdW  Elec       q    Type
REMARK                         _______ _______ _______ _____ _____    ______ ____
ROOT
ATOM      1  N   UNL     1     -11.090  13.604  66.063  0.00  0.00    -0.212 NA
ENDROOT
BRANCH   1   2
ATOM      2  C   UNL     1     -10.448  12.532  66.698  0.00  0.00    +0.125 C 
BRANCH   2   4
ATOM      3  O   UNL     1     -12.059  13.311  68.087  0.00  0.00    -0.218 OA
ATOM      4  C   UNL     1     -10.673  12.753  68.305  0.00  0.00    +0.209 C 
BRANCH   4   5
ATOM      5  C   UNL     1     -11.316  11.173  68.512  0.00  0.00    +0.198 C 
ATOM      6  O   UNL     1     -11.672  11.480  69.969  0.00  0.00    -0.477 OA
ATOM      7  C   UNL     1     -11.887  10.384  70.783  0.00  0.00    +0.135 A 
ATOM      8  C   UNL     1     -11.311   9.185  70.388  0.00  0.00    +0.014 A 
ATOM      9  C   UNL     1     -11.721   8.047  71.021  0.00  0.00    +0.028 A 
ATOM     10  C   UNL     1     -12.938   8.016  71.692  0.00  0.00    +0.140 A 
ATOM     11  C   UNL     1     -13.498   9.189  72.151  0.00  0.00    +0.033 A 
ATOM     12  F   UNL     1     -13.438   6.791  71.960  0.00  0.00    -0.204 F 
ATOM     13  C   UNL     1     -10.251   9.166  69.362  0.00  0.00    +0.033 C 
ATOM     14  C   UNL     1     -13.007  10.373  71.605  0.00  0.00    +0.039 A 
ATOM     15  C   UNL     1      -9.859  10.564  68.926  0.00  0.00    +0.051 C 
ENDBRANCH   4   5
ENDBRANCH   2   4
ENDBRANCH   1   2
BRANCH   1  16
ATOM     16  C   UNL     1     -10.361  14.539  65.317  0.00  0.00    +0.125 C 
BRANCH  16  17
ATOM     17  C   UNL     1     -10.609  16.023  65.955  0.00  0.00    +0.209 C 
ATOM     18  O   UNL     1     -10.764  16.663  64.594  0.00  0.00    -0.218 OA
BRANCH  17  19
ATOM     19  C   UNL     1      -8.906  16.315  66.099  0.00  0.00    +0.198 C 
ATOM     20  O   UNL     1      -9.031  17.839  66.067  0.00  0.00    -0.477 OA
ATOM     21  C   UNL     1      -8.249  18.634  66.794  0.00  0.00    +0.135 A 
ATOM     22  C   UNL     1      -8.143  18.390  68.150  0.00  0.00    +0.014 A 
ATOM     23  C   UNL     1      -7.212  19.093  68.860  0.00  0.00    +0.028 A 
ATOM     24  C   UNL     1      -6.555  20.138  68.220  0.00  0.00    +0.140 A 
ATOM     25  C   UNL     1      -7.301  20.750  67.217  0.00  0.00    +0.033 A 
ATOM     26  F   UNL     1      -5.735  20.948  68.914  0.00  0.00    -0.204 F 
ATOM     27  C   UNL     1      -8.392  17.001  68.532  0.00  0.00    +0.033 C 
ATOM     28  C   UNL     1      -7.905  19.887  66.310  0.00  0.00    +0.039 A 
ATOM     29  C   UNL     1      -9.026  16.076  67.705  0.00  0.00    +0.051 C 
ENDBRANCH  17  19
ENDBRANCH  16  17
ENDBRANCH   1  16
TORSDOF 6
ENDMDL
MODEL 3
REMARK VINA RESULT:      -8.0      1.459      1.831
REMARK  Name = 
REMARK  6 active torsions:
REMARK  status: ('A' for Active; 'I' for Inactive)
REMARK    1  A    between atoms: C_2  and  C_3
REMARK    2  A    between atoms: C_2  and  C_19
REMARK    3  A    between atoms: C_3  and  N_4
REMARK    4  A    between atoms: N_4  and  C_5
REMARK    5  A    between atoms: C_5  and  C_6
REMARK    6  A    between atoms: C_6  and  C_8
REMARK                            x       y       z     vdW  Elec       q    Type
REMARK                         _______ _______ _______ _____ _____    ______ ____
ROOT
ATOM      1  N   UNL     1     -10.936  12.118  65.997  0.00  0.00    -0.212 NA
ENDROOT
BRANCH   1   2
ATOM      2  C   UNL     1     -10.496  12.002  67.322  0.00  0.00    +0.125 C 
BRANCH   2   4
ATOM      3  O   UNL     1     -11.272  10.852  69.112  0.00  0.00    -0.218 OA
ATOM      4  C   UNL     1     -11.846  11.949  68.249  0.00  0.00    +0.209 C 
BRANCH   4   5
ATOM      5  C   UNL     1     -11.247  13.144  69.329  0.00  0.00    +0.198 C 
ATOM      6  O   UNL     1     -12.479  12.991  70.223  0.00  0.00    -0.477 OA
ATOM      7  C   UNL     1     -12.729  14.034  71.095  0.00  0.00    +0.135 A 
ATOM      8  C   UNL     1     -12.191  15.270  70.764  0.00  0.00    +0.014 A 
ATOM      9  C   UNL     1     -12.197  16.240  71.725  0.00  0.00    +0.028 A 
ATOM     10  C   UNL     1     -12.316  15.899  73.067  0.00  0.00    +0.140 A 
ATOM     11  C   UNL     1     -12.907  14.704  73.422  0.00  0.00    +0.033 A 
ATOM     12  F   UNL     1     -11.945  16.844  73.957  0.00  0.00    -0.204 F 
ATOM     13  C   UNL     1     -11.689  15.528  69.401  0.00  0.00    +0.033 C 
ATOM     14  C   UNL     1     -13.021  13.742  72.421  0.00  0.00    +0.039 A 
ATOM     15  C   UNL     1     -11.935  14.353  68.474  0.00  0.00    +0.051 C 
ENDBRANCH   4   5
ENDBRANCH   2   4
ENDBRANCH   1   2
BRANCH   1  16
ATOM     16  C   UNL     1     -10.525  13.188  65.193  0.00  0.00    +0.125 C 
BRANCH  16  17
ATOM     17  C   UNL     1     -11.343  14.528  65.647  0.00  0.00    +0.209 C 
ATOM     18  O   UNL     1     -12.128  14.576  64.356  0.00  0.00    -0.218 OA
BRANCH  17  19
ATOM     19  C   UNL     1     -10.060  15.567  65.116  0.00  0.00    +0.198 C 
ATOM     20  O   UNL     1     -10.721  16.854  65.612  0.00  0.00    -0.477 OA
ATOM     21  C   UNL     1     -10.021  17.861  66.130  0.00  0.00    +0.135 A 
ATOM     22  C   UNL     1      -9.138  17.587  67.156  0.00  0.00    +0.014 A 
ATOM     23  C   UNL     1      -8.298  18.584  67.568  0.00  0.00    +0.028 A 
ATOM     24  C   UNL     1      -8.506  19.862  67.061  0.00  0.00    +0.140 A 
ATOM     25  C   UNL     1      -9.829  20.134  66.725  0.00  0.00    +0.033 A 
ATOM     26  F   UNL     1      -7.799  20.902  67.540  0.00  0.00    -0.204 F 
ATOM     27  C   UNL     1      -8.628  16.216  67.162  0.00  0.00    +0.033 C 
ATOM     28  C   UNL     1     -10.462  19.164  65.956  0.00  0.00    +0.039 A 
ATOM     29  C   UNL     1      -9.220  15.172  66.454  0.00  0.00    +0.051 C 
ENDBRANCH  17  19
ENDBRANCH  16  17
ENDBRANCH   1  16
TORSDOF 6
ENDMDL
MODEL 4
REMARK VINA RESULT:      -7.8      3.675      4.414
REMARK  Name = 
REMARK  6 active torsions:
REMARK  status: ('A' for Active; 'I' for Inactive)
REMARK    1  A    between atoms: C_2  and  C_3
REMARK    2  A    between atoms: C_2  and  C_19
REMARK    3  A    between atoms: C_3  and  N_4
REMARK    4  A    between atoms: N_4  and  C_5
REMARK    5  A    between atoms: C_5  and  C_6
REMARK    6  A    between atoms: C_6  and  C_8
REMARK                            x       y       z     vdW  Elec       q    Type
REMARK                         _______ _______ _______ _____ _____    ______ ____
ROOT
ATOM      1  N   UNL     1     -11.395  12.034  65.424  0.00  0.00    -0.212 NA
ENDROOT
BRANCH   1   2
ATOM      2  C   UNL     1     -10.519  11.302  66.236  0.00  0.00    +0.125 C 
BRANCH   2   4
ATOM      3  O   UNL     1     -12.231  11.758  67.647  0.00  0.00    -0.218 OA
ATOM      4  C   UNL     1     -10.729  11.866  67.759  0.00  0.00    +0.209 C 
BRANCH   4   5
ATOM      5  C   UNL     1     -10.643  10.290  68.439  0.00  0.00    +0.198 C 
ATOM      6  O   UNL     1     -11.385  10.761  69.691  0.00  0.00    -0.477 OA
ATOM      7  C   UNL     1     -11.260   9.956  70.808  0.00  0.00    +0.135 A 
ATOM      8  C   UNL     1     -10.150   9.126  70.861  0.00  0.00    +0.014 A 
ATOM      9  C   UNL     1     -10.140   8.144  71.810  0.00  0.00    +0.028 A 
ATOM     10  C   UNL     1     -11.328   7.711  72.386  0.00  0.00    +0.140 A 
ATOM     11  C   UNL     1     -12.426   8.545  72.403  0.00  0.00    +0.033 A 
ATOM     12  F   UNL     1     -11.285   6.517  73.015  0.00  0.00    -0.204 F 
ATOM     13  C   UNL     1      -9.005   9.347  69.959  0.00  0.00    +0.033 C 
ATOM     14  C   UNL     1     -12.403   9.627  71.525  0.00  0.00    +0.039 A 
ATOM     15  C   UNL     1      -9.184  10.589  69.109  0.00  0.00    +0.051 C 
ENDBRANCH   4   5
ENDBRANCH   2   4
ENDBRANCH   1   2
BRANCH   1  16
ATOM     16  C   UNL     1     -10.953  13.164  64.724  0.00  0.00    +0.125 C 
BRANCH  16  17
ATOM     17  C   UNL     1     -11.629  14.492  65.394  0.00  0.00    +0.209 C 
ATOM     18  O   UNL     1     -12.438  14.798  64.155  0.00  0.00    -0.218 OA
BRANCH  17  19
ATOM     19  C   UNL     1     -10.266  15.478  64.968  0.00  0.00    +0.198 C 
ATOM     20  O   UNL     1     -10.884  16.780  65.477  0.00  0.00    -0.477 OA
ATOM     21  C   UNL     1     -10.160  17.730  66.066  0.00  0.00    +0.135 A 
ATOM     22  C   UNL     1      -9.348  17.373  67.125  0.00  0.00    +0.014 A 
ATOM     23  C   UNL     1      -8.480  18.309  67.615  0.00  0.00    +0.028 A 
ATOM     24  C   UNL     1      -8.593  19.613  67.146  0.00  0.00    +0.140 A 
ATOM     25  C   UNL     1      -9.881  19.968  66.753  0.00  0.00    +0.033 A 
ATOM     26  F   UNL     1      -7.859  20.596  67.698  0.00  0.00    -0.204 F 
ATOM     27  C   UNL     1      -8.913  15.978  67.107  0.00  0.00    +0.033 C 
ATOM     28  C   UNL     1     -10.522  19.060  65.918  0.00  0.00    +0.039 A 
ATOM     29  C   UNL     1      -9.521  14.992  66.332  0.00  0.00    +0.051 C 
ENDBRANCH  17  19
ENDBRANCH  16  17
ENDBRANCH   1  16
TORSDOF 6
ENDMDL
MODEL 5
REMARK VINA RESULT:      -7.8      2.333      7.719
REMARK  Name = 
REMARK  6 active torsions:
REMARK  status: ('A' for Active; 'I' for Inactive)
REMARK    1  A    between atoms: C_2  and  C_3
REMARK    2  A    between atoms: C_2  and  C_19
REMARK    3  A    between atoms: C_3  and  N_4
REMARK    4  A    between atoms: N_4  and  C_5
REMARK    5  A    between atoms: C_5  and  C_6
REMARK    6  A    between atoms: C_6  and  C_8
REMARK                            x       y       z     vdW  Elec       q    Type
REMARK                         _______ _______ _______ _____ _____    ______ ____
ROOT
ATOM      1  N   UNL     1     -10.252  16.792  65.393  0.00  0.00    -0.212 NA
ENDROOT
BRANCH   1   2
ATOM      2  C   UNL     1     -10.154  17.684  66.469  0.00  0.00    +0.125 C 
BRANCH   2   4
ATOM      3  O   UNL     1      -9.621  19.881  66.347  0.00  0.00    -0.218 OA
ATOM      4  C   UNL     1      -8.832  18.605  66.179  0.00  0.00    +0.209 C 
BRANCH   4   5
ATOM      5  C   UNL     1      -8.389  18.632  67.840  0.00  0.00    +0.198 C 
ATOM      6  O   UNL     1      -7.191  19.534  67.532  0.00  0.00    -0.477 OA
ATOM      7  C   UNL     1      -6.200  19.575  68.496  0.00  0.00    +0.135 A 
ATOM      8  C   UNL     1      -6.123  18.492  69.361  0.00  0.00    +0.014 A 
ATOM      9  C   UNL     1      -5.339  18.625  70.470  0.00  0.00    +0.028 A 
ATOM     10  C   UNL     1      -4.999  19.887  70.944  0.00  0.00    +0.140 A 
ATOM     11  C   UNL     1      -5.006  20.967  70.086  0.00  0.00    +0.033 A 
ATOM     12  F   UNL     1      -4.555  19.946  72.217  0.00  0.00    -0.204 F 
ATOM     13  C   UNL     1      -6.820  17.231  69.047  0.00  0.00    +0.033 C 
ATOM     14  C   UNL     1      -5.701  20.809  68.889  0.00  0.00    +0.039 A 
ATOM     15  C   UNL     1      -7.492  17.277  67.689  0.00  0.00    +0.051 C 
ENDBRANCH   4   5
ENDBRANCH   2   4
ENDBRANCH   1   2
BRANCH   1  16
ATOM     16  C   UNL     1     -11.074  15.660  65.469  0.00  0.00    +0.125 C 
BRANCH  16  17
ATOM     17  C   UNL     1     -10.329  14.534  66.389  0.00  0.00    +0.209 C 
ATOM     18  O   UNL     1     -10.199  13.568  65.234  0.00  0.00    -0.218 OA
BRANCH  17  19
ATOM     19  C   UNL     1     -11.842  13.917  66.970  0.00  0.00    +0.198 C 
ATOM     20  O   UNL     1     -11.232  12.688  67.644  0.00  0.00    -0.477 OA
ATOM     21  C   UNL     1     -11.695  12.201  68.793  0.00  0.00    +0.135 A 
ATOM     22  C   UNL     1     -11.837  13.064  69.862  0.00  0.00    +0.014 A 
ATOM     23  C   UNL     1     -12.472  12.604  70.982  0.00  0.00    +0.028 A 
ATOM     24  C   UNL     1     -12.773  11.248  71.051  0.00  0.00    +0.140 A 
ATOM     25  C   UNL     1     -11.896  10.433  70.340  0.00  0.00    +0.033 A 
ATOM     26  F   UNL     1     -13.268  10.722  72.186  0.00  0.00    -0.204 F 
ATOM     27  C   UNL     1     -12.041  14.461  69.484  0.00  0.00    +0.033 C 
ATOM     28  C   UNL     1     -11.628  10.837  69.037  0.00  0.00    +0.039 A 
ATOM     29  C   UNL     1     -11.762  14.964  68.215  0.00  0.00    +0.051 C 
ENDBRANCH  17  19
ENDBRANCH  16  17
ENDBRANCH   1  16
TORSDOF 6
ENDMDL
MODEL 6
REMARK VINA RESULT:      -7.8      3.723      7.892
REMARK  Name = 
REMARK  6 active torsions:
REMARK  status: ('A' for Active; 'I' for Inactive)
REMARK    1  A    between atoms: C_2  and  C_3
REMARK    2  A    between atoms: C_2  and  C_19
REMARK    3  A    between atoms: C_3  and  N_4
REMARK    4  A    between atoms: N_4  and  C_5
REMARK    5  A    between atoms: C_5  and  C_6
REMARK    6  A    between atoms: C_6  and  C_8
REMARK                            x       y       z     vdW  Elec       q    Type
REMARK                         _______ _______ _______ _____ _____    ______ ____
ROOT
ATOM      1  N   UNL     1     -10.592  12.077  64.505  0.00  0.00    -0.212 NA
ENDROOT
BRANCH   1   2
ATOM      2  C   UNL     1     -11.472  13.019  65.054  0.00  0.00    +0.125 C 
BRANCH   2   4
ATOM      3  O   UNL     1     -12.488  14.838  64.168  0.00  0.00    -0.218 OA
ATOM      4  C   UNL     1     -11.046  14.466  64.417  0.00  0.00    +0.209 C 
BRANCH   4   5
ATOM      5  C   UNL     1     -11.086  15.242  65.950  0.00  0.00    +0.198 C 
ATOM      6  O   UNL     1     -10.615  16.557  65.326  0.00  0.00    -0.477 OA
ATOM      7  C   UNL     1     -10.080  17.485  66.201  0.00  0.00    +0.135 A 
ATOM      8  C   UNL     1      -9.577  17.000  67.399  0.00  0.00    +0.014 A 
ATOM      9  C   UNL     1      -9.290  17.908  68.378  0.00  0.00    +0.028 A 
ATOM     10  C   UNL     1      -9.871  19.171  68.358  0.00  0.00    +0.140 A 
ATOM     11  C   UNL     1     -10.320  19.700  67.166  0.00  0.00    +0.033 A 
ATOM     12  F   UNL     1      -9.843  19.858  69.519  0.00  0.00    -0.204 F 
ATOM     13  C   UNL     1      -9.310  15.560  67.571  0.00  0.00    +0.033 C 
ATOM     14  C   UNL     1     -10.504  18.805  66.114  0.00  0.00    +0.039 A 
ATOM     15  C   UNL     1      -9.558  14.780  66.295  0.00  0.00    +0.051 C 
ENDBRANCH   4   5
ENDBRANCH   2   4
ENDBRANCH   1   2
BRANCH   1  16
ATOM     16  C   UNL     1     -10.398  10.831  65.116  0.00  0.00    +0.125 C 
BRANCH  16  17
ATOM     17  C   UNL     1      -9.694  11.067  66.571  0.00  0.00    +0.209 C 
ATOM     18  O   UNL     1      -8.483  10.241  66.203  0.00  0.00    -0.218 OA
BRANCH  17  19
ATOM     19  C   UNL     1     -10.590   9.766  67.286  0.00  0.00    +0.198 C 
ATOM     20  O   UNL     1      -9.588   9.523  68.415  0.00  0.00    -0.477 OA
ATOM     21  C   UNL     1      -9.969   9.176  69.643  0.00  0.00    +0.135 A 
ATOM     22  C   UNL     1     -10.922   9.948  70.277  0.00  0.00    +0.014 A 
ATOM     23  C   UNL     1     -11.435   9.495  71.461  0.00  0.00    +0.028 A 
ATOM     24  C   UNL     1     -10.840   8.384  72.047  0.00  0.00    +0.140 A 
ATOM     25  C   UNL     1      -9.486   8.241  71.753  0.00  0.00    +0.033 A 
ATOM     26  F   UNL     1     -11.215   7.986  73.277  0.00  0.00    -0.204 F 
ATOM     27  C   UNL     1     -11.820  10.662  69.370  0.00  0.00    +0.033 C 
ATOM     28  C   UNL     1      -9.152   8.357  70.409  0.00  0.00    +0.039 A 
ATOM     29  C   UNL     1     -11.548  10.861  68.018  0.00  0.00    +0.051 C 
ENDBRANCH  17  19
ENDBRANCH  16  17
ENDBRANCH   1  16
TORSDOF 6
ENDMDL
MODEL 7
REMARK VINA RESULT:      -7.7      4.008      7.387
REMARK  Name = 
REMARK  6 active torsions:
REMARK  status: ('A' for Active; 'I' for Inactive)
REMARK    1  A    between atoms: C_2  and  C_3
REMARK    2  A    between atoms: C_2  and  C_19
REMARK    3  A    between atoms: C_3  and  N_4
REMARK    4  A    between atoms: N_4  and  C_5
REMARK    5  A    between atoms: C_5  and  C_6
REMARK    6  A    between atoms: C_6  and  C_8
REMARK                            x       y       z     vdW  Elec       q    Type
REMARK                         _______ _______ _______ _____ _____    ______ ____
ROOT
ATOM      1  N   UNL     1     -10.165  12.224  66.414  0.00  0.00    -0.212 NA
ENDROOT
BRANCH   1   2
ATOM      2  C   UNL     1      -9.935  13.560  66.765  0.00  0.00    +0.125 C 
BRANCH   2   4
ATOM      3  O   UNL     1     -11.951  12.826  67.490  0.00  0.00    -0.218 OA
ATOM      4  C   UNL     1     -11.396  14.189  67.152  0.00  0.00    +0.209 C 
BRANCH   4   5
ATOM      5  C   UNL     1     -10.944  14.437  68.791  0.00  0.00    +0.198 C 
ATOM      6  O   UNL     1     -12.387  14.223  69.250  0.00  0.00    -0.477 OA
ATOM      7  C   UNL     1     -12.701  14.703  70.508  0.00  0.00    +0.135 A 
ATOM      8  C   UNL     1     -11.896  15.715  71.011  0.00  0.00    +0.014 A 
ATOM      9  C   UNL     1     -12.017  16.018  72.337  0.00  0.00    +0.028 A 
ATOM     10  C   UNL     1     -12.569  15.098  73.222  0.00  0.00    +0.140 A 
ATOM     11  C   UNL     1     -13.424  14.124  72.752  0.00  0.00    +0.033 A 
ATOM     12  F   UNL     1     -12.318  15.307  74.531  0.00  0.00    -0.204 F 
ATOM     13  C   UNL     1     -10.991  16.465  70.121  0.00  0.00    +0.033 C 
ATOM     14  C   UNL     1     -13.404  13.881  71.380  0.00  0.00    +0.039 A 
ATOM     15  C   UNL     1     -11.151  16.053  68.671  0.00  0.00    +0.051 C 
ENDBRANCH   4   5
ENDBRANCH   2   4
ENDBRANCH   1   2
BRANCH   1  16
ATOM     16  C   UNL     1      -9.289  11.211  66.823  0.00  0.00    +0.125 C 
BRANCH  16  17
ATOM     17  C   UNL     1      -9.018  11.370  68.426  0.00  0.00    +0.209 C 
ATOM     18  O   UNL     1      -7.530  11.150  68.272  0.00  0.00    -0.218 OA
BRANCH  17  19
ATOM     19  C   UNL     1      -9.416   9.708  68.722  0.00  0.00    +0.198 C 
ATOM     20  O   UNL     1      -8.744   9.655  70.095  0.00  0.00    -0.477 OA
ATOM     21  C   UNL     1      -9.245   8.951  71.107  0.00  0.00    +0.135 A 
ATOM     22  C   UNL     1     -10.569   9.147  71.452  0.00  0.00    +0.014 A 
ATOM     23  C   UNL     1     -11.127   8.305  72.372  0.00  0.00    +0.028 A 
ATOM     24  C   UNL     1     -10.287   7.421  73.041  0.00  0.00    +0.140 A 
ATOM     25  C   UNL     1      -8.981   7.879  73.190  0.00  0.00    +0.033 A 
ATOM     26  F   UNL     1     -10.762   6.673  74.054  0.00  0.00    -0.204 F 
ATOM     27  C   UNL     1     -11.412   9.620  70.355  0.00  0.00    +0.033 C 
ATOM     28  C   UNL     1      -8.389   8.381  72.037  0.00  0.00    +0.039 A 
ATOM     29  C   UNL     1     -10.908  10.174  69.180  0.00  0.00    +0.051 C 
ENDBRANCH  17  19
ENDBRANCH  16  17
ENDBRANCH   1  16
TORSDOF 6
ENDMDL
MODEL 8
REMARK VINA RESULT:      -7.5      3.184      8.225
REMARK  Name = 
REMARK  6 active torsions:
REMARK  status: ('A' for Active; 'I' for Inactive)
REMARK    1  A    between atoms: C_2  and  C_3
REMARK    2  A    between atoms: C_2  and  C_19
REMARK    3  A    between atoms: C_3  and  N_4
REMARK    4  A    between atoms: N_4  and  C_5
REMARK    5  A    between atoms: C_5  and  C_6
REMARK    6  A    between atoms: C_6  and  C_8
REMARK                            x       y       z     vdW  Elec       q    Type
REMARK                         _______ _______ _______ _____ _____    ______ ____
ROOT
ATOM      1  N   UNL     1     -11.345  13.530  65.419  0.00  0.00    -0.212 NA
ENDROOT
BRANCH   1   2
ATOM      2  C   UNL     1     -11.007  14.644  66.198  0.00  0.00    +0.125 C 
BRANCH   2   4
ATOM      3  O   UNL     1     -10.906  16.473  64.867  0.00  0.00    -0.218 OA
ATOM      4  C   UNL     1      -9.882  15.473  65.346  0.00  0.00    +0.209 C 
BRANCH   4   5
ATOM      5  C   UNL     1      -9.493  16.478  66.686  0.00  0.00    +0.198 C 
ATOM      6  O   UNL     1      -8.606  17.357  65.803  0.00  0.00    -0.477 OA
ATOM      7  C   UNL     1      -7.686  18.148  66.465  0.00  0.00    +0.135 A 
ATOM      8  C   UNL     1      -7.310  17.741  67.737  0.00  0.00    +0.014 A 
ATOM      9  C   UNL     1      -6.617  18.631  68.507  0.00  0.00    +0.028 A 
ATOM     10  C   UNL     1      -6.668  19.992  68.227  0.00  0.00    +0.140 A 
ATOM     11  C   UNL     1      -6.975  20.418  66.952  0.00  0.00    +0.033 A 
ATOM     12  F   UNL     1      -6.281  20.819  69.221  0.00  0.00    -0.204 F 
ATOM     13  C   UNL     1      -7.604  16.373  68.204  0.00  0.00    +0.033 C 
ATOM     14  C   UNL     1      -7.575  19.486  66.108  0.00  0.00    +0.039 A 
ATOM     15  C   UNL     1      -8.237  15.527  67.116  0.00  0.00    +0.051 C 
ENDBRANCH   4   5
ENDBRANCH   2   4
ENDBRANCH   1   2
BRANCH   1  16
ATOM     16  C   UNL     1     -10.903  12.247  65.767  0.00  0.00    +0.125 C 
BRANCH  16  17
ATOM     17  C   UNL     1     -10.236  12.311  67.258  0.00  0.00    +0.209 C 
ATOM     18  O   UNL     1      -8.886  11.854  66.754  0.00  0.00    -0.218 OA
BRANCH  17  19
ATOM     19  C   UNL     1     -10.824  10.729  67.658  0.00  0.00    +0.198 C 
ATOM     20  O   UNL     1      -9.820  10.498  68.787  0.00  0.00    -0.477 OA
ATOM     21  C   UNL     1     -10.138   9.843  69.901  0.00  0.00    +0.135 A 
ATOM     22  C   UNL     1     -11.258  10.245  70.602  0.00  0.00    +0.014 A 
ATOM     23  C   UNL     1     -11.680   9.467  71.644  0.00  0.00    +0.028 A 
ATOM     24  C   UNL     1     -10.858   8.423  72.054  0.00  0.00    +0.140 A 
ATOM     25  C   UNL     1      -9.501   8.644  71.829  0.00  0.00    +0.033 A 
ATOM     26  F   UNL     1     -11.159   7.720  73.160  0.00  0.00    -0.204 F 
ATOM     27  C   UNL     1     -12.274  10.906  69.785  0.00  0.00    +0.033 C 
ATOM     28  C   UNL     1      -9.172   9.092  70.555  0.00  0.00    +0.039 A 
ATOM     29  C   UNL     1     -12.025  11.420  68.514  0.00  0.00    +0.051 C 
ENDBRANCH  17  19
ENDBRANCH  16  17
ENDBRANCH   1  16
TORSDOF 6
ENDMDL
MODEL 9
REMARK VINA RESULT:      -7.5      3.815      8.878
REMARK  Name = 
REMARK  6 active torsions:
REMARK  status: ('A' for Active; 'I' for Inactive)
REMARK    1  A    between atoms: C_2  and  C_3
REMARK    2  A    between atoms: C_2  and  C_19
REMARK    3  A    between atoms: C_3  and  N_4
REMARK    4  A    between atoms: N_4  and  C_5
REMARK    5  A    between atoms: C_5  and  C_6
REMARK    6  A    between atoms: C_6  and  C_8
REMARK                            x       y       z     vdW  Elec       q    Type
REMARK                         _______ _______ _______ _____ _____    ______ ____
ROOT
ATOM      1  N   UNL     1     -11.783  14.583  67.986  0.00  0.00    -0.212 NA
ENDROOT
BRANCH   1   2
ATOM      2  C   UNL     1     -10.929  15.535  67.413  0.00  0.00    +0.125 C 
BRANCH   2   4
ATOM      3  O   UNL     1      -9.608  15.809  69.232  0.00  0.00    -0.218 OA
ATOM      4  C   UNL     1     -10.662  16.663  68.570  0.00  0.00    +0.209 C 
BRANCH   4   5
ATOM      5  C   UNL     1      -9.462  17.457  67.629  0.00  0.00    +0.198 C 
ATOM      6  O   UNL     1      -8.950  18.202  68.864  0.00  0.00    -0.477 OA
ATOM      7  C   UNL     1      -8.188  19.330  68.618  0.00  0.00    +0.135 A 
ATOM      8  C   UNL     1      -8.360  19.945  67.387  0.00  0.00    +0.014 A 
ATOM      9  C   UNL     1      -7.444  20.889  67.019  0.00  0.00    +0.028 A 
ATOM     10  C   UNL     1      -6.188  20.919  67.614  0.00  0.00    +0.140 A 
ATOM     11  C   UNL     1      -6.009  20.370  68.866  0.00  0.00    +0.033 A 
ATOM     12  F   UNL     1      -5.234  21.612  66.956  0.00  0.00    -0.204 F 
ATOM     13  C   UNL     1      -9.528  19.625  66.545  0.00  0.00    +0.033 C 
ATOM     14  C   UNL     1      -6.997  19.495  69.312  0.00  0.00    +0.039 A 
ATOM     15  C   UNL     1     -10.481  18.670  67.237  0.00  0.00    +0.051 C 
ENDBRANCH   4   5
ENDBRANCH   2   4
ENDBRANCH   1   2
BRANCH   1  16
ATOM     16  C   UNL     1     -11.717  13.236  67.607  0.00  0.00    +0.125 C 
BRANCH  16  17
ATOM     17  C   UNL     1     -10.728  12.449  68.642  0.00  0.00    +0.209 C 
ATOM     18  O   UNL     1      -9.881  11.887  67.523  0.00  0.00    -0.218 OA
BRANCH  17  19
ATOM     19  C   UNL     1     -11.809  11.097  68.746  0.00  0.00    +0.198 C 
ATOM     20  O   UNL     1     -10.727  10.096  69.152  0.00  0.00    -0.477 OA
ATOM     21  C   UNL     1     -10.956   9.110  70.018  0.00  0.00    +0.135 A 
ATOM     22  C   UNL     1     -11.516   9.428  71.240  0.00  0.00    +0.014 A 
ATOM     23  C   UNL     1     -11.908   8.403  72.055  0.00  0.00    +0.028 A 
ATOM     24  C   UNL     1     -11.555   7.108  71.690  0.00  0.00    +0.140 A 
ATOM     25  C   UNL     1     -10.378   7.025  70.952  0.00  0.00    +0.033 A 
ATOM     26  F   UNL     1     -11.794   6.081  72.527  0.00  0.00    -0.204 F 
ATOM     27  C   UNL     1     -12.324  10.646  71.234  0.00  0.00    +0.033 C 
ATOM     28  C   UNL     1     -10.279   7.908  69.883  0.00  0.00    +0.039 A 
ATOM     29  C   UNL     1     -12.262  11.606  70.225  0.00  0.00    +0.051 C 
ENDBRANCH  17  19
ENDBRANCH  16  17
ENDBRANCH   1  16
TORSDOF 6
ENDMDL
