MODEL 1
REMARK VINA RESULT:      -6.9      0.000      0.000
REMARK  Name = 
REMARK  7 active torsions:
REMARK  status: ('A' for Active; 'I' for Inactive)
REMARK    1  A    between atoms: C_8  and  O_9
REMARK    2  A    between atoms: O_9  and  C_10
REMARK    3  A    between atoms: C_10  and  C_11
REMARK    4  A    between atoms: C_11  and  C_12
REMARK    5  A    between atoms: C_12  and  C_13
REMARK    6  A    between atoms: C_13  and  N_14
REMARK    7  A    between atoms: N_17  and  C_18
REMARK                            x       y       z     vdW  Elec       q    Type
REMARK                         _______ _______ _______ _____ _____    ______ ____
ROOT
ATOM      1  C   UNL     1     -10.495  11.872  63.594  0.00  0.00    +0.072 C 
ENDROOT
BRANCH   1   2
ATOM      2  N   UNL     1     -10.966  13.086  64.258  0.00  0.00    -0.270 NA
ATOM      3  C   UNL     1     -12.289  12.798  64.732  0.00  0.00    +0.094 C 
ATOM      4  C   UNL     1     -12.756  13.673  65.852  0.00  0.00    +0.108 C 
ATOM      5  N   UNL     1     -11.726  13.966  66.824  0.00  0.00    -0.305 N 
ATOM      6  C   UNL     1     -10.458  14.426  66.262  0.00  0.00    +0.108 C 
ATOM      7  C   UNL     1     -10.012  13.365  65.299  0.00  0.00    +0.094 C 
BRANCH   5   8
ATOM      8  C   UNL     1     -11.621  13.281  68.077  0.00  0.00    +0.048 A 
ATOM      9  C   UNL     1     -11.946  13.893  69.284  0.00  0.00    +0.020 A 
ATOM     10  C   UNL     1     -12.213  13.079  70.380  0.00  0.00    +0.031 A 
ATOM     11  S   UNL     1     -12.916  14.215  71.460  0.00  0.00    -0.086 S 
ATOM     12  C   UNL     1     -12.585  15.657  70.587  0.00  0.00    +0.035 A 
ATOM     13  C   UNL     1     -12.169  11.694  70.267  0.00  0.00    +0.007 A 
ATOM     14  C   UNL     1     -11.715  11.082  69.105  0.00  0.00    +0.002 A 
ATOM     15  C   UNL     1     -11.662  15.173  69.666  0.00  0.00    +0.009 A 
ATOM     16  C   UNL     1     -11.519  11.918  68.027  0.00  0.00    +0.015 A 
ENDBRANCH   5   8
ENDBRANCH   1   2
BRANCH   1  17
ATOM     17  C   UNL     1     -10.287  10.737  64.553  0.00  0.00    +0.021 C 
BRANCH  17  18
ATOM     18  C   UNL     1      -9.359   9.733  63.928  0.00  0.00    +0.049 C 
BRANCH  18  19
ATOM     19  C   UNL     1      -8.694   8.934  65.040  0.00  0.00    +0.205 C 
BRANCH  19  20
ATOM     20  O   UNL     1      -9.680   8.689  66.032  0.00  0.00    -0.475 OA
BRANCH  20  28
ATOM     21  O   UNL     1     -12.758   6.747  71.804  0.00  0.00    -0.265 OA
ATOM     22  C   UNL     1     -11.907   7.405  71.146  0.00  0.00    +0.279 A 
ATOM     23  N   UNL     1     -11.453   6.871  69.986  0.00  0.00    -0.208 NA
ATOM     24  C   UNL     1     -10.459   7.538  69.362  0.00  0.00    +0.088 A 
ATOM     25  C   UNL     1      -9.592   8.308  70.112  0.00  0.00    +0.018 A 
ATOM     26  C   UNL     1      -8.493   8.859  69.471  0.00  0.00    +0.005 A 
ATOM     27  C   UNL     1      -8.411   8.949  68.088  0.00  0.00    +0.037 A 
ATOM     28  C   UNL     1      -9.364   8.287  67.326  0.00  0.00    +0.140 A 
ATOM     29  C   UNL     1     -10.003   8.844  71.318  0.00  0.00    +0.006 A 
ATOM     30  C   UNL     1     -10.314   7.520  67.986  0.00  0.00    +0.056 A 
ATOM     31  C   UNL     1     -11.222   8.404  71.807  0.00  0.00    +0.063 A 
ENDBRANCH  20  28
ENDBRANCH  19  20
ENDBRANCH  18  19
ENDBRANCH  17  18
ENDBRANCH   1  17
TORSDOF 7
ENDMDL
MODEL 2
REMARK VINA RESULT:      -6.8      3.083      6.600
REMARK  Name = 
REMARK  7 active torsions:
REMARK  status: ('A' for Active; 'I' for Inactive)
REMARK    1  A    between atoms: C_8  and  O_9
REMARK    2  A    between atoms: O_9  and  C_10
REMARK    3  A    between atoms: C_10  and  C_11
REMARK    4  A    between atoms: C_11  and  C_12
REMARK    5  A    between atoms: C_12  and  C_13
REMARK    6  A    between atoms: C_13  and  N_14
REMARK    7  A    between atoms: N_17  and  C_18
REMARK                            x       y       z     vdW  Elec       q    Type
REMARK                         _______ _______ _______ _____ _____    ______ ____
ROOT
ATOM      1  C   UNL     1      -9.372  11.339  64.977  0.00  0.00    +0.072 C 
ENDROOT
BRANCH   1   2
ATOM      2  N   UNL     1      -8.870  10.335  65.913  0.00  0.00    -0.270 NA
ATOM      3  C   UNL     1      -8.474  11.049  67.093  0.00  0.00    +0.094 C 
ATOM      4  C   UNL     1      -8.418  10.217  68.336  0.00  0.00    +0.108 C 
ATOM      5  N   UNL     1      -9.498   9.261  68.441  0.00  0.00    -0.305 N 
ATOM      6  C   UNL     1      -9.721   8.447  67.248  0.00  0.00    +0.108 C 
ATOM      7  C   UNL     1      -9.951   9.407  66.117  0.00  0.00    +0.094 C 
BRANCH   5   8
ATOM      8  C   UNL     1     -10.658   9.483  69.250  0.00  0.00    +0.048 A 
ATOM      9  C   UNL     1     -11.009   8.630  70.291  0.00  0.00    +0.020 A 
ATOM     10  C   UNL     1     -11.877   9.109  71.267  0.00  0.00    +0.031 A 
ATOM     11  S   UNL     1     -11.697   7.902  72.476  0.00  0.00    -0.086 S 
ATOM     12  C   UNL     1     -10.774   6.762  71.584  0.00  0.00    +0.035 A 
ATOM     13  C   UNL     1     -12.368  10.408  71.209  0.00  0.00    +0.007 A 
ATOM     14  C   UNL     1     -12.130  11.217  70.104  0.00  0.00    +0.002 A 
ATOM     15  C   UNL     1     -10.947   7.265  70.299  0.00  0.00    +0.009 A 
ATOM     16  C   UNL     1     -11.220  10.730  69.191  0.00  0.00    +0.015 A 
ENDBRANCH   5   8
ENDBRANCH   1   2
BRANCH   1  17
ATOM     17  C   UNL     1     -10.430  10.793  64.062  0.00  0.00    +0.021 C 
BRANCH  17  18
ATOM     18  C   UNL     1     -10.952  11.908  63.199  0.00  0.00    +0.049 C 
BRANCH  18  19
ATOM     19  C   UNL     1     -12.411  12.152  63.557  0.00  0.00    +0.205 C 
BRANCH  19  20
ATOM     20  O   UNL     1     -12.560  13.543  63.802  0.00  0.00    -0.475 OA
BRANCH  20  28
ATOM     21  O   UNL     1      -7.405  17.325  66.187  0.00  0.00    -0.265 OA
ATOM     22  C   UNL     1      -8.231  16.375  66.253  0.00  0.00    +0.279 A 
ATOM     23  N   UNL     1      -9.425  16.529  65.630  0.00  0.00    -0.208 NA
ATOM     24  C   UNL     1     -10.334  15.547  65.814  0.00  0.00    +0.088 A 
ATOM     25  C   UNL     1     -10.293  14.803  66.976  0.00  0.00    +0.018 A 
ATOM     26  C   UNL     1     -11.324  13.906  67.209  0.00  0.00    +0.005 A 
ATOM     27  C   UNL     1     -12.188  13.493  66.203  0.00  0.00    +0.037 A 
ATOM     28  C   UNL     1     -12.139  14.151  64.981  0.00  0.00    +0.140 A 
ATOM     29  C   UNL     1      -9.102  14.648  67.662  0.00  0.00    +0.006 A 
ATOM     30  C   UNL     1     -11.272  15.226  64.849  0.00  0.00    +0.056 A 
ATOM     31  C   UNL     1      -8.040  15.429  67.240  0.00  0.00    +0.063 A 
ENDBRANCH  20  28
ENDBRANCH  19  20
ENDBRANCH  18  19
ENDBRANCH  17  18
ENDBRANCH   1  17
TORSDOF 7
ENDMDL
MODEL 3
REMARK VINA RESULT:      -6.6      3.749      6.288
REMARK  Name = 
REMARK  7 active torsions:
REMARK  status: ('A' for Active; 'I' for Inactive)
REMARK    1  A    between atoms: C_8  and  O_9
REMARK    2  A    between atoms: O_9  and  C_10
REMARK    3  A    between atoms: C_10  and  C_11
REMARK    4  A    between atoms: C_11  and  C_12
REMARK    5  A    between atoms: C_12  and  C_13
REMARK    6  A    between atoms: C_13  and  N_14
REMARK    7  A    between atoms: N_17  and  C_18
REMARK                            x       y       z     vdW  Elec       q    Type
REMARK                         _______ _______ _______ _____ _____    ______ ____
ROOT
ATOM      1  C   UNL     1     -12.721  15.317  70.329  0.00  0.00    +0.072 C 
ENDROOT
BRANCH   1   2
ATOM      2  N   UNL     1     -11.569  14.949  69.508  0.00  0.00    -0.270 NA
ATOM      3  C   UNL     1     -11.931  15.243  68.151  0.00  0.00    +0.094 C 
ATOM      4  C   UNL     1     -10.773  15.432  67.223  0.00  0.00    +0.108 C 
ATOM      5  N   UNL     1      -9.672  16.161  67.813  0.00  0.00    -0.305 N 
ATOM      6  C   UNL     1      -9.248  15.680  69.127  0.00  0.00    +0.108 C 
ATOM      7  C   UNL     1     -10.463  15.723  70.007  0.00  0.00    +0.094 C 
BRANCH   5   8
ATOM      8  C   UNL     1      -9.441  17.553  67.572  0.00  0.00    +0.048 A 
ATOM      9  C   UNL     1      -8.268  18.018  66.987  0.00  0.00    +0.020 A 
ATOM     10  C   UNL     1      -8.278  19.288  66.419  0.00  0.00    +0.031 A 
ATOM     11  S   UNL     1      -6.813  19.250  65.522  0.00  0.00    -0.086 S 
ATOM     12  C   UNL     1      -6.167  17.777  66.125  0.00  0.00    +0.035 A 
ATOM     13  C   UNL     1      -9.432  20.063  66.426  0.00  0.00    +0.007 A 
ATOM     14  C   UNL     1     -10.563  19.661  67.126  0.00  0.00    +0.002 A 
ATOM     15  C   UNL     1      -6.995  17.583  67.225  0.00  0.00    +0.009 A 
ATOM     16  C   UNL     1     -10.533  18.376  67.622  0.00  0.00    +0.015 A 
ENDBRANCH   5   8
ENDBRANCH   1   2
BRANCH   1  17
ATOM     17  C   UNL     1     -12.340  15.629  71.747  0.00  0.00    +0.021 C 
BRANCH  17  18
ATOM     18  C   UNL     1     -13.265  14.892  72.675  0.00  0.00    +0.049 C 
BRANCH  18  19
ATOM     19  C   UNL     1     -13.979  13.807  71.882  0.00  0.00    +0.205 C 
BRANCH  19  20
ATOM     20  O   UNL     1     -13.560  12.555  72.406  0.00  0.00    -0.475 OA
BRANCH  20  28
ATOM     21  O   UNL     1     -11.183   6.182  72.945  0.00  0.00    -0.265 OA
ATOM     22  C   UNL     1     -11.159   7.359  72.495  0.00  0.00    +0.279 A 
ATOM     23  N   UNL     1     -12.339   8.017  72.383  0.00  0.00    -0.208 NA
ATOM     24  C   UNL     1     -12.300   9.230  71.790  0.00  0.00    +0.088 A 
ATOM     25  C   UNL     1     -11.313   9.495  70.863  0.00  0.00    +0.018 A 
ATOM     26  C   UNL     1     -11.383  10.688  70.161  0.00  0.00    +0.005 A 
ATOM     27  C   UNL     1     -12.186  11.743  70.574  0.00  0.00    +0.037 A 
ATOM     28  C   UNL     1     -13.090  11.520  71.603  0.00  0.00    +0.140 A 
ATOM     29  C   UNL     1     -10.105   8.822  70.921  0.00  0.00    +0.006 A 
ATOM     30  C   UNL     1     -13.188  10.238  72.125  0.00  0.00    +0.056 A 
ATOM     31  C   UNL     1     -10.033   7.758  71.806  0.00  0.00    +0.063 A 
ENDBRANCH  20  28
ENDBRANCH  19  20
ENDBRANCH  18  19
ENDBRANCH  17  18
ENDBRANCH   1  17
TORSDOF 7
ENDMDL
MODEL 4
REMARK VINA RESULT:      -6.6      2.632      5.848
REMARK  Name = 
REMARK  7 active torsions:
REMARK  status: ('A' for Active; 'I' for Inactive)
REMARK    1  A    between atoms: C_8  and  O_9
REMARK    2  A    between atoms: O_9  and  C_10
REMARK    3  A    between atoms: C_10  and  C_11
REMARK    4  A    between atoms: C_11  and  C_12
REMARK    5  A    between atoms: C_12  and  C_13
REMARK    6  A    between atoms: C_13  and  N_14
REMARK    7  A    between atoms: N_17  and  C_18
REMARK                            x       y       z     vdW  Elec       q    Type
REMARK                         _______ _______ _______ _____ _____    ______ ____
ROOT
ATOM      1  C   UNL     1      -9.785   8.222  68.214  0.00  0.00    +0.072 C 
ENDROOT
BRANCH   1   2
ATOM      2  N   UNL     1      -9.049   9.027  67.240  0.00  0.00    -0.270 NA
ATOM      3  C   UNL     1      -9.845   9.042  66.047  0.00  0.00    +0.094 C 
ATOM      4  C   UNL     1      -9.563  10.185  65.123  0.00  0.00    +0.108 C 
ATOM      5  N   UNL     1      -9.326  11.436  65.807  0.00  0.00    -0.305 N 
ATOM      6  C   UNL     1      -8.362  11.368  66.904  0.00  0.00    +0.108 C 
ATOM      7  C   UNL     1      -8.869  10.318  67.849  0.00  0.00    +0.094 C 
BRANCH   5   8
ATOM      8  C   UNL     1     -10.326  12.452  65.941  0.00  0.00    +0.048 A 
ATOM      9  C   UNL     1     -10.001  13.788  66.153  0.00  0.00    +0.020 A 
ATOM     10  C   UNL     1     -10.963  14.751  65.867  0.00  0.00    +0.031 A 
ATOM     11  S   UNL     1     -10.009  16.179  65.901  0.00  0.00    -0.086 S 
ATOM     12  C   UNL     1      -8.553  15.516  66.526  0.00  0.00    +0.035 A 
ATOM     13  C   UNL     1     -12.211  14.387  65.372  0.00  0.00    +0.007 A 
ATOM     14  C   UNL     1     -12.588  13.052  65.288  0.00  0.00    +0.002 A 
ATOM     15  C   UNL     1      -9.021  14.282  66.967  0.00  0.00    +0.009 A 
ATOM     16  C   UNL     1     -11.589  12.132  65.521  0.00  0.00    +0.015 A 
ENDBRANCH   5   8
ENDBRANCH   1   2
BRANCH   1  17
ATOM     17  C   UNL     1      -9.529   8.655  69.628  0.00  0.00    +0.021 C 
BRANCH  17  18
ATOM     18  C   UNL     1     -10.490   7.942  70.538  0.00  0.00    +0.049 C 
BRANCH  18  19
ATOM     19  C   UNL     1     -11.653   8.876  70.838  0.00  0.00    +0.205 C 
BRANCH  19  20
ATOM     20  O   UNL     1     -11.340  10.138  70.265  0.00  0.00    -0.475 OA
BRANCH  20  28
ATOM     21  O   UNL     1     -11.160  16.893  69.322  0.00  0.00    -0.265 OA
ATOM     22  C   UNL     1     -11.426  15.854  69.985  0.00  0.00    +0.279 A 
ATOM     23  N   UNL     1     -11.712  14.721  69.298  0.00  0.00    -0.208 NA
ATOM     24  C   UNL     1     -12.107  13.655  70.028  0.00  0.00    +0.088 A 
ATOM     25  C   UNL     1     -12.738  13.865  71.237  0.00  0.00    +0.018 A 
ATOM     26  C   UNL     1     -13.266  12.764  71.894  0.00  0.00    +0.005 A 
ATOM     27  C   UNL     1     -12.905  11.464  71.567  0.00  0.00    +0.037 A 
ATOM     28  C   UNL     1     -12.151  11.258  70.420  0.00  0.00    +0.140 A 
ATOM     29  C   UNL     1     -12.500  15.023  71.955  0.00  0.00    +0.006 A 
ATOM     30  C   UNL     1     -11.847  12.356  69.628  0.00  0.00    +0.056 A 
ATOM     31  C   UNL     1     -11.778  16.013  71.309  0.00  0.00    +0.063 A 
ENDBRANCH  20  28
ENDBRANCH  19  20
ENDBRANCH  18  19
ENDBRANCH  17  18
ENDBRANCH   1  17
TORSDOF 7
ENDMDL
MODEL 5
REMARK VINA RESULT:      -6.6      2.815      6.239
REMARK  Name = 
REMARK  7 active torsions:
REMARK  status: ('A' for Active; 'I' for Inactive)
REMARK    1  A    between atoms: C_8  and  O_9
REMARK    2  A    between atoms: O_9  and  C_10
REMARK    3  A    between atoms: C_10  and  C_11
REMARK    4  A    between atoms: C_11  and  C_12
REMARK    5  A    between atoms: C_12  and  C_13
REMARK    6  A    between atoms: C_13  and  N_14
REMARK    7  A    between atoms: N_17  and  C_18
REMARK                            x       y       z     vdW  Elec       q    Type
REMARK                         _______ _______ _______ _____ _____    ______ ____
ROOT
ATOM      1  C   UNL     1      -9.459  11.517  65.685  0.00  0.00    +0.072 C 
ENDROOT
BRANCH   1   2
ATOM      2  N   UNL     1      -9.021  10.222  66.202  0.00  0.00    -0.270 NA
ATOM      3  C   UNL     1      -8.405  10.483  67.472  0.00  0.00    +0.094 C 
ATOM      4  C   UNL     1      -8.349   9.305  68.392  0.00  0.00    +0.108 C 
ATOM      5  N   UNL     1      -9.544   8.490  68.362  0.00  0.00    -0.305 N 
ATOM      6  C   UNL     1     -10.006   8.119  67.026  0.00  0.00    +0.108 C 
ATOM      7  C   UNL     1     -10.203   9.403  66.274  0.00  0.00    +0.094 C 
BRANCH   5   8
ATOM      8  C   UNL     1     -10.570   8.577  69.357  0.00  0.00    +0.048 A 
ATOM      9  C   UNL     1     -10.862   7.521  70.214  0.00  0.00    +0.020 A 
ATOM     10  C   UNL     1     -11.556   7.800  71.387  0.00  0.00    +0.031 A 
ATOM     11  S   UNL     1     -11.333   6.332  72.249  0.00  0.00    -0.086 S 
ATOM     12  C   UNL     1     -10.632   5.388  70.997  0.00  0.00    +0.035 A 
ATOM     13  C   UNL     1     -11.934   9.102  71.698  0.00  0.00    +0.007 A 
ATOM     14  C   UNL     1     -11.765  10.136  70.786  0.00  0.00    +0.002 A 
ATOM     15  C   UNL     1     -10.920   6.192  69.900  0.00  0.00    +0.009 A 
ATOM     16  C   UNL     1     -11.023   9.831  69.666  0.00  0.00    +0.015 A 
ENDBRANCH   5   8
ENDBRANCH   1   2
BRANCH   1  17
ATOM     17  C   UNL     1     -10.943  11.711  65.805  0.00  0.00    +0.021 C 
BRANCH  17  18
ATOM     18  C   UNL     1     -11.342  12.926  65.013  0.00  0.00    +0.049 C 
BRANCH  18  19
ATOM     19  C   UNL     1     -12.338  13.731  65.835  0.00  0.00    +0.205 C 
BRANCH  19  20
ATOM     20  O   UNL     1     -11.625  14.808  66.426  0.00  0.00    -0.475 OA
BRANCH  20  28
ATOM     21  O   UNL     1     -13.977  13.512  72.698  0.00  0.00    -0.265 OA
ATOM     22  C   UNL     1     -13.333  14.191  71.854  0.00  0.00    +0.279 A 
ATOM     23  N   UNL     1     -12.790  13.538  70.798  0.00  0.00    -0.208 NA
ATOM     24  C   UNL     1     -12.009  14.269  69.972  0.00  0.00    +0.088 A 
ATOM     25  C   UNL     1     -11.342  15.368  70.476  0.00  0.00    +0.018 A 
ATOM     26  C   UNL     1     -10.432  16.009  69.650  0.00  0.00    +0.005 A 
ATOM     27  C   UNL     1     -10.409  15.809  68.276  0.00  0.00    +0.037 A 
ATOM     28  C   UNL     1     -11.186  14.788  67.746  0.00  0.00    +0.140 A 
ATOM     29  C   UNL     1     -11.844  16.043  71.574  0.00  0.00    +0.006 A 
ATOM     30  C   UNL     1     -11.899  13.983  68.623  0.00  0.00    +0.056 A 
ATOM     31  C   UNL     1     -12.902  15.445  72.237  0.00  0.00    +0.063 A 
ENDBRANCH  20  28
ENDBRANCH  19  20
ENDBRANCH  18  19
ENDBRANCH  17  18
ENDBRANCH   1  17
TORSDOF 7
ENDMDL
MODEL 6
REMARK VINA RESULT:      -6.5      2.574      5.319
REMARK  Name = 
REMARK  7 active torsions:
REMARK  status: ('A' for Active; 'I' for Inactive)
REMARK    1  A    between atoms: C_8  and  O_9
REMARK    2  A    between atoms: O_9  and  C_10
REMARK    3  A    between atoms: C_10  and  C_11
REMARK    4  A    between atoms: C_11  and  C_12
REMARK    5  A    between atoms: C_12  and  C_13
REMARK    6  A    between atoms: C_13  and  N_14
REMARK    7  A    between atoms: N_17  and  C_18
REMARK                            x       y       z     vdW  Elec       q    Type
REMARK                         _______ _______ _______ _____ _____    ______ ____
ROOT
ATOM      1  C   UNL     1     -11.731  15.234  69.227  0.00  0.00    +0.072 C 
ENDROOT
BRANCH   1   2
ATOM      2  N   UNL     1     -11.158  15.262  67.883  0.00  0.00    -0.270 NA
ATOM      3  C   UNL     1      -9.859  14.661  67.987  0.00  0.00    +0.094 C 
ATOM      4  C   UNL     1      -9.314  14.125  66.701  0.00  0.00    +0.108 C 
ATOM      5  N   UNL     1     -10.309  13.472  65.880  0.00  0.00    -0.305 N 
ATOM      6  C   UNL     1     -11.540  14.234  65.677  0.00  0.00    +0.108 C 
ATOM      7  C   UNL     1     -12.078  14.540  67.044  0.00  0.00    +0.094 C 
BRANCH   5   8
ATOM      8  C   UNL     1     -10.459  12.049  65.823  0.00  0.00    +0.048 A 
ATOM      9  C   UNL     1     -10.034  11.303  64.728  0.00  0.00    +0.020 A 
ATOM     10  C   UNL     1      -9.834   9.938  64.902  0.00  0.00    +0.031 A 
ATOM     11  S   UNL     1      -8.976   9.553  63.465  0.00  0.00    -0.086 S 
ATOM     12  C   UNL     1      -9.160  11.044  62.633  0.00  0.00    +0.035 A 
ATOM     13  C   UNL     1     -10.042   9.340  66.140  0.00  0.00    +0.007 A 
ATOM     14  C   UNL     1     -10.594  10.051  67.198  0.00  0.00    +0.002 A 
ATOM     15  C   UNL     1     -10.157  11.629  63.406  0.00  0.00    +0.009 A 
ATOM     16  C   UNL     1     -10.721  11.410  67.004  0.00  0.00    +0.015 A 
ENDBRANCH   5   8
ENDBRANCH   1   2
BRANCH   1  17
ATOM     17  C   UNL     1     -11.968  13.837  69.722  0.00  0.00    +0.021 C 
BRANCH  17  18
ATOM     18  C   UNL     1     -12.348  13.892  71.176  0.00  0.00    +0.049 C 
BRANCH  18  19
ATOM     19  C   UNL     1     -13.047  12.590  71.540  0.00  0.00    +0.205 C 
BRANCH  19  20
ATOM     20  O   UNL     1     -12.514  11.575  70.701  0.00  0.00    -0.475 OA
BRANCH  20  28
ATOM     21  O   UNL     1      -8.560   6.305  68.928  0.00  0.00    -0.265 OA
ATOM     22  C   UNL     1      -9.622   6.818  69.374  0.00  0.00    +0.279 A 
ATOM     23  N   UNL     1      -9.530   8.012  70.009  0.00  0.00    -0.208 NA
ATOM     24  C   UNL     1     -10.661   8.482  70.578  0.00  0.00    +0.088 A 
ATOM     25  C   UNL     1     -11.621   7.587  71.004  0.00  0.00    +0.018 A 
ATOM     26  C   UNL     1     -12.700   8.083  71.719  0.00  0.00    +0.005 A 
ATOM     27  C   UNL     1     -13.020   9.435  71.734  0.00  0.00    +0.037 A 
ATOM     28  C   UNL     1     -12.115  10.332  71.182  0.00  0.00    +0.140 A 
ATOM     29  C   UNL     1     -11.728   6.344  70.407  0.00  0.00    +0.006 A 
ATOM     30  C   UNL     1     -10.913   9.837  70.698  0.00  0.00    +0.056 A 
ATOM     31  C   UNL     1     -10.714   5.990  69.532  0.00  0.00    +0.063 A 
ENDBRANCH  20  28
ENDBRANCH  19  20
ENDBRANCH  18  19
ENDBRANCH  17  18
ENDBRANCH   1  17
TORSDOF 7
ENDMDL
MODEL 7
REMARK VINA RESULT:      -6.4      2.887      7.709
REMARK  Name = 
REMARK  7 active torsions:
REMARK  status: ('A' for Active; 'I' for Inactive)
REMARK    1  A    between atoms: C_8  and  O_9
REMARK    2  A    between atoms: O_9  and  C_10
REMARK    3  A    between atoms: C_10  and  C_11
REMARK    4  A    between atoms: C_11  and  C_12
REMARK    5  A    between atoms: C_12  and  C_13
REMARK    6  A    between atoms: C_13  and  N_14
REMARK    7  A    between atoms: N_17  and  C_18
REMARK                            x       y       z     vdW  Elec       q    Type
REMARK                         _______ _______ _______ _____ _____    ______ ____
ROOT
ATOM      1  C   UNL     1     -12.762   9.083  72.416  0.00  0.00    +0.072 C 
ENDROOT
BRANCH   1   2
ATOM      2  N   UNL     1     -11.840   7.956  72.278  0.00  0.00    -0.270 NA
ATOM      3  C   UNL     1     -12.378   7.121  71.242  0.00  0.00    +0.094 C 
ATOM      4  C   UNL     1     -11.381   6.217  70.588  0.00  0.00    +0.108 C 
ATOM      5  N   UNL     1     -10.093   6.839  70.371  0.00  0.00    -0.305 N 
ATOM      6  C   UNL     1      -9.532   7.521  71.535  0.00  0.00    +0.108 C 
ATOM      7  C   UNL     1     -10.556   8.529  71.970  0.00  0.00    +0.094 C 
BRANCH   5   8
ATOM      8  C   UNL     1      -9.688   7.368  69.104  0.00  0.00    +0.048 A 
ATOM      9  C   UNL     1      -8.670   6.790  68.352  0.00  0.00    +0.020 A 
ATOM     10  C   UNL     1      -8.608   7.087  66.995  0.00  0.00    +0.031 A 
ATOM     11  S   UNL     1      -7.499   5.891  66.455  0.00  0.00    -0.086 S 
ATOM     12  C   UNL     1      -6.990   5.287  67.980  0.00  0.00    +0.035 A 
ATOM     13  C   UNL     1      -9.545   7.927  66.405  0.00  0.00    +0.007 A 
ATOM     14  C   UNL     1     -10.479   8.612  67.173  0.00  0.00    +0.002 A 
ATOM     15  C   UNL     1      -7.486   6.286  68.811  0.00  0.00    +0.009 A 
ATOM     16  C   UNL     1     -10.547   8.245  68.500  0.00  0.00    +0.015 A 
ENDBRANCH   5   8
ENDBRANCH   1   2
BRANCH   1  17
ATOM     17  C   UNL     1     -12.728  10.000  71.228  0.00  0.00    +0.021 C 
BRANCH  17  18
ATOM     18  C   UNL     1     -13.024  11.402  71.684  0.00  0.00    +0.049 C 
BRANCH  18  19
ATOM     19  C   UNL     1     -12.262  12.370  70.792  0.00  0.00    +0.205 C 
BRANCH  19  20
ATOM     20  O   UNL     1     -11.592  11.598  69.805  0.00  0.00    -0.475 OA
BRANCH  20  28
ATOM     21  O   UNL     1     -12.934  12.129  63.137  0.00  0.00    -0.265 OA
ATOM     22  C   UNL     1     -12.175  11.915  64.120  0.00  0.00    +0.279 A 
ATOM     23  N   UNL     1     -12.454  12.549  65.285  0.00  0.00    -0.208 NA
ATOM     24  C   UNL     1     -11.561  12.394  66.287  0.00  0.00    +0.088 A 
ATOM     25  C   UNL     1     -10.239  12.148  65.976  0.00  0.00    +0.018 A 
ATOM     26  C   UNL     1      -9.319  12.143  67.013  0.00  0.00    +0.005 A 
ATOM     27  C   UNL     1      -9.703  12.043  68.344  0.00  0.00    +0.037 A 
ATOM     28  C   UNL     1     -11.052  12.155  68.650  0.00  0.00    +0.140 A 
ATOM     29  C   UNL     1      -9.907  11.533  64.782  0.00  0.00    +0.006 A 
ATOM     30  C   UNL     1     -11.940  12.419  67.617  0.00  0.00    +0.056 A 
ATOM     31  C   UNL     1     -10.931  11.377  63.863  0.00  0.00    +0.063 A 
ENDBRANCH  20  28
ENDBRANCH  19  20
ENDBRANCH  18  19
ENDBRANCH  17  18
ENDBRANCH   1  17
TORSDOF 7
ENDMDL
MODEL 8
REMARK VINA RESULT:      -6.4      2.606      5.417
REMARK  Name = 
REMARK  7 active torsions:
REMARK  status: ('A' for Active; 'I' for Inactive)
REMARK    1  A    between atoms: C_8  and  O_9
REMARK    2  A    between atoms: O_9  and  C_10
REMARK    3  A    between atoms: C_10  and  C_11
REMARK    4  A    between atoms: C_11  and  C_12
REMARK    5  A    between atoms: C_12  and  C_13
REMARK    6  A    between atoms: C_13  and  N_14
REMARK    7  A    between atoms: N_17  and  C_18
REMARK                            x       y       z     vdW  Elec       q    Type
REMARK                         _______ _______ _______ _____ _____    ______ ____
ROOT
ATOM      1  C   UNL     1     -11.102  15.879  70.604  0.00  0.00    +0.072 C 
ENDROOT
BRANCH   1   2
ATOM      2  N   UNL     1     -10.381  16.062  69.345  0.00  0.00    -0.270 NA
ATOM      3  C   UNL     1      -9.207  15.241  69.432  0.00  0.00    +0.094 C 
ATOM      4  C   UNL     1      -8.604  14.873  68.113  0.00  0.00    +0.108 C 
ATOM      5  N   UNL     1      -9.585  14.564  67.096  0.00  0.00    -0.305 N 
ATOM      6  C   UNL     1     -10.657  15.547  66.952  0.00  0.00    +0.108 C 
ATOM      7  C   UNL     1     -11.297  15.677  68.303  0.00  0.00    +0.094 C 
BRANCH   5   8
ATOM      8  C   UNL     1      -9.938  13.224  66.737  0.00  0.00    +0.048 A 
ATOM      9  C   UNL     1     -10.796  12.943  65.677  0.00  0.00    +0.020 A 
ATOM     10  C   UNL     1     -10.771  11.662  65.136  0.00  0.00    +0.031 A 
ATOM     11  S   UNL     1     -11.654  11.910  63.683  0.00  0.00    -0.086 S 
ATOM     12  C   UNL     1     -12.215  13.506  63.978  0.00  0.00    +0.035 A 
ATOM     13  C   UNL     1      -9.904  10.695  65.632  0.00  0.00    +0.007 A 
ATOM     14  C   UNL     1      -9.146  10.928  66.774  0.00  0.00    +0.002 A 
ATOM     15  C   UNL     1     -11.938  13.610  65.337  0.00  0.00    +0.009 A 
ATOM     16  C   UNL     1      -9.154  12.223  67.242  0.00  0.00    +0.015 A 
ENDBRANCH   5   8
ENDBRANCH   1   2
BRANCH   1  17
ATOM     17  C   UNL     1     -12.558  15.580  70.393  0.00  0.00    +0.021 C 
BRANCH  17  18
ATOM     18  C   UNL     1     -13.238  15.494  71.731  0.00  0.00    +0.049 C 
BRANCH  18  19
ATOM     19  C   UNL     1     -14.011  14.185  71.796  0.00  0.00    +0.205 C 
BRANCH  19  20
ATOM     20  O   UNL     1     -13.081  13.161  72.120  0.00  0.00    -0.475 OA
BRANCH  20  28
ATOM     21  O   UNL     1     -11.597   6.514  72.532  0.00  0.00    -0.265 OA
ATOM     22  C   UNL     1     -11.450   7.675  72.063  0.00  0.00    +0.279 A 
ATOM     23  N   UNL     1     -12.529   8.495  72.054  0.00  0.00    -0.208 NA
ATOM     24  C   UNL     1     -12.376   9.689  71.440  0.00  0.00    +0.088 A 
ATOM     25  C   UNL     1     -11.456   9.806  70.418  0.00  0.00    +0.018 A 
ATOM     26  C   UNL     1     -11.424  10.995  69.706  0.00  0.00    +0.005 A 
ATOM     27  C   UNL     1     -12.023  12.156  70.177  0.00  0.00    +0.037 A 
ATOM     28  C   UNL     1     -12.845  12.068  71.292  0.00  0.00    +0.140 A 
ATOM     29  C   UNL     1     -10.357   8.967  70.371  0.00  0.00    +0.006 A 
ATOM     30  C   UNL     1     -13.073  10.814  71.842  0.00  0.00    +0.056 A 
ATOM     31  C   UNL     1     -10.351   7.906  71.262  0.00  0.00    +0.063 A 
ENDBRANCH  20  28
ENDBRANCH  19  20
ENDBRANCH  18  19
ENDBRANCH  17  18
ENDBRANCH   1  17
TORSDOF 7
ENDMDL
MODEL 9
REMARK VINA RESULT:      -6.4      5.511      8.591
REMARK  Name = 
REMARK  7 active torsions:
REMARK  status: ('A' for Active; 'I' for Inactive)
REMARK    1  A    between atoms: C_8  and  O_9
REMARK    2  A    between atoms: O_9  and  C_10
REMARK    3  A    between atoms: C_10  and  C_11
REMARK    4  A    between atoms: C_11  and  C_12
REMARK    5  A    between atoms: C_12  and  C_13
REMARK    6  A    between atoms: C_13  and  N_14
REMARK    7  A    between atoms: N_17  and  C_18
REMARK                            x       y       z     vdW  Elec       q    Type
REMARK                         _______ _______ _______ _____ _____    ______ ____
ROOT
ATOM      1  C   UNL     1     -10.810  15.490  65.854  0.00  0.00    +0.072 C 
ENDROOT
BRANCH   1   2
ATOM      2  N   UNL     1     -10.623  14.057  66.076  0.00  0.00    -0.270 NA
ATOM      3  C   UNL     1      -9.558  13.934  67.031  0.00  0.00    +0.094 C 
ATOM      4  C   UNL     1      -9.537  12.638  67.778  0.00  0.00    +0.108 C 
ATOM      5  N   UNL     1     -10.852  12.163  68.149  0.00  0.00    -0.305 N 
ATOM      6  C   UNL     1     -11.835  12.155  67.067  0.00  0.00    +0.108 C 
ATOM      7  C   UNL     1     -11.892  13.557  66.536  0.00  0.00    +0.094 C 
BRANCH   5   8
ATOM      8  C   UNL     1     -11.398  12.329  69.462  0.00  0.00    +0.048 A 
ATOM      9  C   UNL     1     -11.768  13.574  69.959  0.00  0.00    +0.020 A 
ATOM     10  C   UNL     1     -12.645  13.616  71.037  0.00  0.00    +0.031 A 
ATOM     11  S   UNL     1     -13.091  15.275  71.025  0.00  0.00    -0.086 S 
ATOM     12  C   UNL     1     -11.964  15.848  69.863  0.00  0.00    +0.035 A 
ATOM     13  C   UNL     1     -13.146  12.445  71.595  0.00  0.00    +0.007 A 
ATOM     14  C   UNL     1     -12.676  11.201  71.193  0.00  0.00    +0.002 A 
ATOM     15  C   UNL     1     -11.102  14.758  69.805  0.00  0.00    +0.009 A 
ATOM     16  C   UNL     1     -11.857  11.200  70.085  0.00  0.00    +0.015 A 
ENDBRANCH   5   8
ENDBRANCH   1   2
BRANCH   1  17
ATOM     17  C   UNL     1      -9.823  16.323  66.618  0.00  0.00    +0.021 C 
BRANCH  17  18
ATOM     18  C   UNL     1     -10.055  17.773  66.297  0.00  0.00    +0.049 C 
BRANCH  18  19
ATOM     19  C   UNL     1     -10.515  18.480  67.564  0.00  0.00    +0.205 C 
BRANCH  19  20
ATOM     20  O   UNL     1      -9.715  19.645  67.712  0.00  0.00    -0.475 OA
BRANCH  20  28
ATOM     21  O   UNL     1      -4.510  19.354  72.114  0.00  0.00    -0.265 OA
ATOM     22  C   UNL     1      -5.103  19.806  71.097  0.00  0.00    +0.279 A 
ATOM     23  N   UNL     1      -5.943  18.976  70.433  0.00  0.00    -0.208 NA
ATOM     24  C   UNL     1      -6.474  19.446  69.283  0.00  0.00    +0.088 A 
ATOM     25  C   UNL     1      -5.774  20.387  68.556  0.00  0.00    +0.018 A 
ATOM     26  C   UNL     1      -6.266  20.741  67.309  0.00  0.00    +0.005 A 
ATOM     27  C   UNL     1      -7.566  20.451  66.916  0.00  0.00    +0.037 A 
ATOM     28  C   UNL     1      -8.324  19.609  67.718  0.00  0.00    +0.140 A 
ATOM     29  C   UNL     1      -4.881  21.233  69.189  0.00  0.00    +0.006 A 
ATOM     30  C   UNL     1      -7.724  19.053  68.838  0.00  0.00    +0.056 A 
ATOM     31  C   UNL     1      -4.590  20.945  70.512  0.00  0.00    +0.063 A 
ENDBRANCH  20  28
ENDBRANCH  19  20
ENDBRANCH  18  19
ENDBRANCH  17  18
ENDBRANCH   1  17
TORSDOF 7
ENDMDL
