MODEL 1
REMARK VINA RESULT:      -6.4      0.000      0.000
REMARK  Name = 
REMARK  10 active torsions:
REMARK  status: ('A' for Active; 'I' for Inactive)
REMARK    1  A    between atoms: C_2  and  C_3
REMARK    2  A    between atoms: C_3  and  C_4
REMARK    3  A    between atoms: C_4  and  C_5
REMARK    4  A    between atoms: C_5  and  C_6
REMARK    5  A    between atoms: C_6  and  C_8
REMARK    6  A    between atoms: C_9  and  C_10
REMARK    7  A    between atoms: C_17  and  C_18
REMARK    8  A    between atoms: C_18  and  C_19
REMARK    9  A    between atoms: C_19  and  C_20
REMARK   10  A    between atoms: C_20  and  C_21
REMARK                            x       y       z     vdW  Elec       q    Type
REMARK                         _______ _______ _______ _____ _____    ______ ____
ROOT
ATOM      1  C   UNL     1      -9.940  17.870  66.289  0.00  0.00    +0.056 C 
ATOM      2  C   UNL     1      -8.343  17.530  66.666  0.00  0.00    +0.054 C 
ATOM      3  C   UNL     1      -8.708  17.000  68.248  0.00  0.00    +0.169 C 
ATOM      4  O   UNL     1      -7.228  17.261  68.642  0.00  0.00    -0.484 OA
ATOM      5  C   UNL     1      -6.882  18.456  68.122  0.00  0.00    +0.112 C 
ATOM      6  C   UNL     1      -5.781  19.143  68.427  0.00  0.00    +0.006 C 
ATOM      7  C   UNL     1      -9.120  18.552  68.595  0.00  0.00    +0.077 C 
ATOM      8  C   UNL     1      -7.858  19.006  67.128  0.00  0.00    +0.068 C 
ATOM      9  C   UNL     1     -10.543  18.422  67.798  0.00  0.00    +0.160 C 
ATOM     10  O   UNL     1     -10.427  19.886  67.315  0.00  0.00    -0.223 OA
ENDROOT
BRANCH   1  12
ATOM     11  C   UNL     1     -10.760  15.616  65.588  0.00  0.00    +0.002 C 
ATOM     12  C   UNL     1     -10.338  16.342  66.592  0.00  0.00    -0.026 C 
BRANCH  11  13
ATOM     13  C   UNL     1     -10.925  14.081  66.167  0.00  0.00    +0.174 C 
ATOM     14  O   UNL     1     -11.461  14.614  67.513  0.00  0.00    -0.218 OA
BRANCH  13  15
ATOM     15  C   UNL     1     -12.484  13.953  65.557  0.00  0.00    +0.037 C 
BRANCH  15  16
ATOM     16  C   UNL     1     -12.499  12.584  64.901  0.00  0.00    +0.003 C 
BRANCH  16  17
ATOM     17  C   UNL     1     -11.798  12.574  63.553  0.00  0.00    +0.000 C 
BRANCH  17  19
ATOM     18  C   UNL     1     -10.676  11.308  63.457  0.00  0.00    +0.000 C 
ATOM     19  C   UNL     1     -10.739  11.496  63.688  0.00  0.00    +0.000 C 
ENDBRANCH  17  19
ENDBRANCH  16  17
ENDBRANCH  15  16
ENDBRANCH  13  15
ENDBRANCH  11  13
ENDBRANCH   1  12
BRANCH   6  20
ATOM     20  C   UNL     1      -5.828  20.619  68.518  0.00  0.00    +0.029 C 
BRANCH  20  21
ATOM     21  C   UNL     1      -4.870  20.986  69.646  0.00  0.00    +0.017 C 
BRANCH  21  22
ATOM     22  C   UNL     1      -5.379  20.237  70.862  0.00  0.00    +0.114 C 
BRANCH  22  23
ATOM     23  C   UNL     1      -4.603  20.791  72.012  0.00  0.00    +0.365 C 
ATOM     24  O   UNL     1      -4.390  22.154  72.157  0.00  0.00    -0.246 OA
ATOM     25  O   UNL     1      -3.725  20.010  72.440  0.00  0.00    -0.246 OA
ENDBRANCH  22  23
ENDBRANCH  21  22
ENDBRANCH  20  21
ENDBRANCH   6  20
TORSDOF 10
ENDMDL
MODEL 2
REMARK VINA RESULT:      -6.3      2.025      3.813
REMARK  Name = 
REMARK  10 active torsions:
REMARK  status: ('A' for Active; 'I' for Inactive)
REMARK    1  A    between atoms: C_2  and  C_3
REMARK    2  A    between atoms: C_3  and  C_4
REMARK    3  A    between atoms: C_4  and  C_5
REMARK    4  A    between atoms: C_5  and  C_6
REMARK    5  A    between atoms: C_6  and  C_8
REMARK    6  A    between atoms: C_9  and  C_10
REMARK    7  A    between atoms: C_17  and  C_18
REMARK    8  A    between atoms: C_18  and  C_19
REMARK    9  A    between atoms: C_19  and  C_20
REMARK   10  A    between atoms: C_20  and  C_21
REMARK                            x       y       z     vdW  Elec       q    Type
REMARK                         _______ _______ _______ _____ _____    ______ ____
ROOT
ATOM      1  C   UNL     1     -10.546  14.262  67.268  0.00  0.00    +0.056 C 
ATOM      2  C   UNL     1     -11.248  15.702  66.779  0.00  0.00    +0.054 C 
ATOM      3  C   UNL     1     -10.282  15.830  65.376  0.00  0.00    +0.169 C 
ATOM      4  O   UNL     1     -10.586  17.354  65.345  0.00  0.00    -0.484 OA
ATOM      5  C   UNL     1     -10.454  17.812  66.607  0.00  0.00    +0.112 C 
ATOM      6  C   UNL     1     -10.403  19.096  66.963  0.00  0.00    +0.006 C 
ATOM      7  C   UNL     1      -8.995  16.063  66.371  0.00  0.00    +0.077 C 
ATOM      8  C   UNL     1     -10.359  16.741  67.649  0.00  0.00    +0.068 C 
ATOM      9  C   UNL     1      -8.922  14.475  66.755  0.00  0.00    +0.160 C 
ATOM     10  O   UNL     1      -8.505  14.825  68.203  0.00  0.00    -0.223 OA
ENDROOT
BRANCH   1  12
ATOM     11  C   UNL     1     -11.992  12.744  65.909  0.00  0.00    +0.002 C 
ATOM     12  C   UNL     1     -10.983  13.576  65.881  0.00  0.00    -0.026 C 
BRANCH  11  13
ATOM     13  C   UNL     1     -12.304  12.343  64.340  0.00  0.00    +0.174 C 
ATOM     14  O   UNL     1     -12.507  13.828  63.970  0.00  0.00    -0.218 OA
BRANCH  13  15
ATOM     15  C   UNL     1     -10.678  12.427  63.931  0.00  0.00    +0.037 C 
BRANCH  15  16
ATOM     16  C   UNL     1     -10.296  10.978  63.689  0.00  0.00    +0.003 C 
BRANCH  16  17
ATOM     17  C   UNL     1      -9.214  10.492  64.639  0.00  0.00    +0.000 C 
BRANCH  17  19
ATOM     18  C   UNL     1      -9.816   9.472  65.852  0.00  0.00    +0.000 C 
ATOM     19  C   UNL     1      -9.939   9.554  65.586  0.00  0.00    +0.000 C 
ENDBRANCH  17  19
ENDBRANCH  16  17
ENDBRANCH  15  16
ENDBRANCH  13  15
ENDBRANCH  11  13
ENDBRANCH   1  12
BRANCH   6  20
ATOM     20  C   UNL     1      -9.510  19.527  68.060  0.00  0.00    +0.029 C 
BRANCH  20  21
ATOM     21  C   UNL     1      -8.148  19.751  67.411  0.00  0.00    +0.017 C 
BRANCH  21  22
ATOM     22  C   UNL     1      -7.146  19.664  68.545  0.00  0.00    +0.114 C 
BRANCH  22  23
ATOM     23  C   UNL     1      -6.115  20.698  68.231  0.00  0.00    +0.365 C 
ATOM     24  O   UNL     1      -5.171  21.092  69.169  0.00  0.00    -0.246 OA
ATOM     25  O   UNL     1      -6.497  21.541  67.391  0.00  0.00    -0.246 OA
ENDBRANCH  22  23
ENDBRANCH  21  22
ENDBRANCH  20  21
ENDBRANCH   6  20
TORSDOF 10
ENDMDL
MODEL 3
REMARK VINA RESULT:      -6.2      3.526      7.712
REMARK  Name = 
REMARK  10 active torsions:
REMARK  status: ('A' for Active; 'I' for Inactive)
REMARK    1  A    between atoms: C_2  and  C_3
REMARK    2  A    between atoms: C_3  and  C_4
REMARK    3  A    between atoms: C_4  and  C_5
REMARK    4  A    between atoms: C_5  and  C_6
REMARK    5  A    between atoms: C_6  and  C_8
REMARK    6  A    between atoms: C_9  and  C_10
REMARK    7  A    between atoms: C_17  and  C_18
REMARK    8  A    between atoms: C_18  and  C_19
REMARK    9  A    between atoms: C_19  and  C_20
REMARK   10  A    between atoms: C_20  and  C_21
REMARK                            x       y       z     vdW  Elec       q    Type
REMARK                         _______ _______ _______ _____ _____    ______ ____
ROOT
ATOM      1  C   UNL     1      -8.979  19.769  67.678  0.00  0.00    +0.056 C 
ATOM      2  C   UNL     1      -8.603  18.344  68.474  0.00  0.00    +0.054 C 
ATOM      3  C   UNL     1      -8.512  17.429  67.035  0.00  0.00    +0.169 C 
ATOM      4  O   UNL     1      -8.731  16.142  67.877  0.00  0.00    -0.484 OA
ATOM      5  C   UNL     1      -9.727  16.401  68.750  0.00  0.00    +0.112 C 
ATOM      6  C   UNL     1     -10.368  15.492  69.484  0.00  0.00    +0.006 C 
ATOM      7  C   UNL     1     -10.132  17.653  66.875  0.00  0.00    +0.077 C 
ATOM      8  C   UNL     1     -10.099  17.848  68.853  0.00  0.00    +0.068 C 
ATOM      9  C   UNL     1      -9.935  19.197  66.373  0.00  0.00    +0.160 C 
ATOM     10  O   UNL     1     -11.220  19.623  67.120  0.00  0.00    -0.223 OA
ENDROOT
BRANCH   1  12
ATOM     11  C   UNL     1      -6.789  20.676  66.887  0.00  0.00    +0.002 C 
ATOM     12  C   UNL     1      -7.613  19.661  66.836  0.00  0.00    -0.026 C 
BRANCH  11  13
ATOM     13  C   UNL     1      -5.431  20.209  66.077  0.00  0.00    +0.174 C 
ATOM     14  O   UNL     1      -4.570  21.203  66.886  0.00  0.00    -0.218 OA
BRANCH  13  15
ATOM     15  C   UNL     1      -5.119  18.984  67.183  0.00  0.00    +0.037 C 
BRANCH  15  16
ATOM     16  C   UNL     1      -4.551  19.722  68.381  0.00  0.00    +0.003 C 
BRANCH  16  17
ATOM     17  C   UNL     1      -4.972  19.100  69.703  0.00  0.00    +0.000 C 
BRANCH  17  19
ATOM     18  C   UNL     1      -6.046  20.146  70.493  0.00  0.00    +0.000 C 
ATOM     19  C   UNL     1      -5.761  20.194  70.398  0.00  0.00    +0.000 C 
ENDBRANCH  17  19
ENDBRANCH  16  17
ENDBRANCH  15  16
ENDBRANCH  13  15
ENDBRANCH  11  13
ENDBRANCH   1  12
BRANCH   6  20
ATOM     20  C   UNL     1     -11.819  15.631  69.736  0.00  0.00    +0.029 C 
BRANCH  20  21
ATOM     21  C   UNL     1     -12.079  14.874  71.035  0.00  0.00    +0.017 C 
BRANCH  21  22
ATOM     22  C   UNL     1     -11.862  15.890  72.139  0.00  0.00    +0.114 C 
BRANCH  22  23
ATOM     23  C   UNL     1     -13.101  15.828  72.971  0.00  0.00    +0.365 C 
ATOM     24  O   UNL     1     -14.363  15.935  72.405  0.00  0.00    -0.246 OA
ATOM     25  O   UNL     1     -12.939  16.256  74.135  0.00  0.00    -0.246 OA
ENDBRANCH  22  23
ENDBRANCH  21  22
ENDBRANCH  20  21
ENDBRANCH   6  20
TORSDOF 10
ENDMDL
MODEL 4
REMARK VINA RESULT:      -6.1      2.119      3.512
REMARK  Name = 
REMARK  10 active torsions:
REMARK  status: ('A' for Active; 'I' for Inactive)
REMARK    1  A    between atoms: C_2  and  C_3
REMARK    2  A    between atoms: C_3  and  C_4
REMARK    3  A    between atoms: C_4  and  C_5
REMARK    4  A    between atoms: C_5  and  C_6
REMARK    5  A    between atoms: C_6  and  C_8
REMARK    6  A    between atoms: C_9  and  C_10
REMARK    7  A    between atoms: C_17  and  C_18
REMARK    8  A    between atoms: C_18  and  C_19
REMARK    9  A    between atoms: C_19  and  C_20
REMARK   10  A    between atoms: C_20  and  C_21
REMARK                            x       y       z     vdW  Elec       q    Type
REMARK                         _______ _______ _______ _____ _____    ______ ____
ROOT
ATOM      1  C   UNL     1      -9.790  14.991  68.648  0.00  0.00    +0.056 C 
ATOM      2  C   UNL     1     -10.657  15.961  67.592  0.00  0.00    +0.054 C 
ATOM      3  C   UNL     1      -9.612  15.661  66.276  0.00  0.00    +0.169 C 
ATOM      4  O   UNL     1     -10.136  16.961  65.605  0.00  0.00    -0.484 OA
ATOM      5  C   UNL     1     -10.175  17.914  66.559  0.00  0.00    +0.112 C 
ATOM      6  C   UNL     1     -10.345  19.218  66.343  0.00  0.00    +0.006 C 
ATOM      7  C   UNL     1      -8.458  16.497  67.095  0.00  0.00    +0.077 C 
ATOM      8  C   UNL     1     -10.006  17.400  67.955  0.00  0.00    +0.068 C 
ATOM      9  C   UNL     1      -8.180  15.246  68.110  0.00  0.00    +0.160 C 
ATOM     10  O   UNL     1      -7.938  16.226  69.282  0.00  0.00    -0.223 OA
ENDROOT
BRANCH   1  12
ATOM     11  C   UNL     1     -10.670  12.708  68.145  0.00  0.00    +0.002 C 
ATOM     12  C   UNL     1     -10.007  13.732  67.672  0.00  0.00    -0.026 C 
BRANCH  11  13
ATOM     13  C   UNL     1     -10.872  11.666  66.882  0.00  0.00    +0.174 C 
ATOM     14  O   UNL     1     -11.956  10.888  67.658  0.00  0.00    -0.218 OA
BRANCH  13  15
ATOM     15  C   UNL     1     -12.034  12.651  66.176  0.00  0.00    +0.037 C 
BRANCH  15  16
ATOM     16  C   UNL     1     -11.878  12.378  64.691  0.00  0.00    +0.003 C 
BRANCH  16  17
ATOM     17  C   UNL     1     -10.469  12.653  64.192  0.00  0.00    +0.000 C 
BRANCH  17  19
ATOM     18  C   UNL     1     -10.017  11.440  63.098  0.00  0.00    +0.000 C 
ATOM     19  C   UNL     1     -10.108  11.418  63.388  0.00  0.00    +0.000 C 
ENDBRANCH  17  19
ENDBRANCH  16  17
ENDBRANCH  15  16
ENDBRANCH  13  15
ENDBRANCH  11  13
ENDBRANCH   1  12
BRANCH   6  20
ATOM     20  C   UNL     1      -9.618  20.208  67.168  0.00  0.00    +0.029 C 
BRANCH  20  21
ATOM     21  C   UNL     1      -8.159  20.102  66.736  0.00  0.00    +0.017 C 
BRANCH  21  22
ATOM     22  C   UNL     1      -7.375  19.910  68.019  0.00  0.00    +0.114 C 
BRANCH  22  23
ATOM     23  C   UNL     1      -6.209  20.836  67.903  0.00  0.00    +0.365 C 
ATOM     24  O   UNL     1      -5.367  21.083  68.978  0.00  0.00    -0.246 OA
ATOM     25  O   UNL     1      -6.383  21.752  67.070  0.00  0.00    -0.246 OA
ENDBRANCH  22  23
ENDBRANCH  21  22
ENDBRANCH  20  21
ENDBRANCH   6  20
TORSDOF 10
ENDMDL
MODEL 5
REMARK VINA RESULT:      -6.0      6.069      9.345
REMARK  Name = 
REMARK  10 active torsions:
REMARK  status: ('A' for Active; 'I' for Inactive)
REMARK    1  A    between atoms: C_2  and  C_3
REMARK    2  A    between atoms: C_3  and  C_4
REMARK    3  A    between atoms: C_4  and  C_5
REMARK    4  A    between atoms: C_5  and  C_6
REMARK    5  A    between atoms: C_6  and  C_8
REMARK    6  A    between atoms: C_9  and  C_10
REMARK    7  A    between atoms: C_17  and  C_18
REMARK    8  A    between atoms: C_18  and  C_19
REMARK    9  A    between atoms: C_19  and  C_20
REMARK   10  A    between atoms: C_20  and  C_21
REMARK                            x       y       z     vdW  Elec       q    Type
REMARK                         _______ _______ _______ _____ _____    ______ ____
ROOT
ATOM      1  C   UNL     1      -9.238   9.391  68.457  0.00  0.00    +0.056 C 
ATOM      2  C   UNL     1     -10.185  10.625  69.079  0.00  0.00    +0.054 C 
ATOM      3  C   UNL     1     -11.526  10.251  68.090  0.00  0.00    +0.169 C 
ATOM      4  O   UNL     1     -12.055  11.695  68.316  0.00  0.00    -0.484 OA
ATOM      5  C   UNL     1     -11.004  12.530  68.176  0.00  0.00    +0.112 C 
ATOM      6  C   UNL     1     -11.080  13.856  68.064  0.00  0.00    +0.006 C 
ATOM      7  C   UNL     1     -10.622  10.736  66.806  0.00  0.00    +0.077 C 
ATOM      8  C   UNL     1      -9.671  11.850  68.149  0.00  0.00    +0.068 C 
ATOM      9  C   UNL     1      -9.746   9.355  66.818  0.00  0.00    +0.160 C 
ATOM     10  O   UNL     1      -8.477  10.136  66.403  0.00  0.00    -0.223 OA
ENDROOT
BRANCH   1  12
ATOM     11  C   UNL     1     -10.153   7.695  70.048  0.00  0.00    +0.002 C 
ATOM     12  C   UNL     1     -10.343   8.314  68.911  0.00  0.00    -0.026 C 
BRANCH  11  13
ATOM     13  C   UNL     1     -11.510   6.797  70.317  0.00  0.00    +0.174 C 
ATOM     14  O   UNL     1     -10.700   5.487  70.209  0.00  0.00    -0.218 OA
BRANCH  13  15
ATOM     15  C   UNL     1     -11.283   6.840  71.980  0.00  0.00    +0.037 C 
BRANCH  15  16
ATOM     16  C   UNL     1     -11.648   8.266  72.353  0.00  0.00    +0.003 C 
BRANCH  16  17
ATOM     17  C   UNL     1     -13.098   8.598  72.041  0.00  0.00    +0.000 C 
BRANCH  17  19
ATOM     18  C   UNL     1     -12.806  10.210  71.609  0.00  0.00    +0.000 C 
ATOM     19  C   UNL     1     -13.068  10.057  71.626  0.00  0.00    +0.000 C 
ENDBRANCH  17  19
ENDBRANCH  16  17
ENDBRANCH  15  16
ENDBRANCH  13  15
ENDBRANCH  11  13
ENDBRANCH   1  12
BRANCH   6  20
ATOM     20  C   UNL     1     -10.155  14.579  67.165  0.00  0.00    +0.029 C 
BRANCH  20  21
ATOM     21  C   UNL     1     -11.012  15.053  65.997  0.00  0.00    +0.017 C 
BRANCH  21  22
ATOM     22  C   UNL     1     -10.782  14.039  64.894  0.00  0.00    +0.114 C 
BRANCH  22  23
ATOM     23  C   UNL     1     -12.143  13.546  64.529  0.00  0.00    +0.365 C 
ATOM     24  O   UNL     1     -12.447  13.134  63.240  0.00  0.00    -0.246 OA
ATOM     25  O   UNL     1     -13.057  14.059  65.213  0.00  0.00    -0.246 OA
ENDBRANCH  22  23
ENDBRANCH  21  22
ENDBRANCH  20  21
ENDBRANCH   6  20
TORSDOF 10
ENDMDL
MODEL 6
REMARK VINA RESULT:      -6.0      2.130      3.588
REMARK  Name = 
REMARK  10 active torsions:
REMARK  status: ('A' for Active; 'I' for Inactive)
REMARK    1  A    between atoms: C_2  and  C_3
REMARK    2  A    between atoms: C_3  and  C_4
REMARK    3  A    between atoms: C_4  and  C_5
REMARK    4  A    between atoms: C_5  and  C_6
REMARK    5  A    between atoms: C_6  and  C_8
REMARK    6  A    between atoms: C_9  and  C_10
REMARK    7  A    between atoms: C_17  and  C_18
REMARK    8  A    between atoms: C_18  and  C_19
REMARK    9  A    between atoms: C_19  and  C_20
REMARK   10  A    between atoms: C_20  and  C_21
REMARK                            x       y       z     vdW  Elec       q    Type
REMARK                         _______ _______ _______ _____ _____    ______ ____
ROOT
ATOM      1  C   UNL     1      -9.727  17.802  66.469  0.00  0.00    +0.056 C 
ATOM      2  C   UNL     1      -8.238  17.284  67.036  0.00  0.00    +0.054 C 
ATOM      3  C   UNL     1      -8.702  17.374  68.677  0.00  0.00    +0.169 C 
ATOM      4  O   UNL     1      -7.200  17.442  69.066  0.00  0.00    -0.484 OA
ATOM      5  C   UNL     1      -6.609  18.313  68.221  0.00  0.00    +0.112 C 
ATOM      6  C   UNL     1      -5.386  18.823  68.366  0.00  0.00    +0.006 C 
ATOM      7  C   UNL     1      -8.774  19.005  68.493  0.00  0.00    +0.077 C 
ATOM      8  C   UNL     1      -7.449  18.701  67.044  0.00  0.00    +0.068 C 
ATOM      9  C   UNL     1     -10.195  18.917  67.687  0.00  0.00    +0.160 C 
ATOM     10  O   UNL     1      -9.772  20.095  66.778  0.00  0.00    -0.223 OA
ENDROOT
BRANCH   1  12
ATOM     11  C   UNL     1     -10.763  15.528  66.480  0.00  0.00    +0.002 C 
ATOM     12  C   UNL     1     -10.440  16.565  67.210  0.00  0.00    -0.026 C 
BRANCH  11  13
ATOM     13  C   UNL     1     -11.310  14.378  67.528  0.00  0.00    +0.174 C 
ATOM     14  O   UNL     1      -9.905  14.237  68.153  0.00  0.00    -0.218 OA
BRANCH  13  15
ATOM     15  C   UNL     1     -11.739  15.534  68.668  0.00  0.00    +0.037 C 
BRANCH  15  16
ATOM     16  C   UNL     1     -12.049  14.714  69.907  0.00  0.00    +0.003 C 
BRANCH  16  17
ATOM     17  C   UNL     1     -12.891  15.478  70.916  0.00  0.00    +0.000 C 
BRANCH  17  19
ATOM     18  C   UNL     1     -11.997  16.001  72.258  0.00  0.00    +0.000 C 
ATOM     19  C   UNL     1     -11.902  15.898  71.988  0.00  0.00    +0.000 C 
ENDBRANCH  17  19
ENDBRANCH  16  17
ENDBRANCH  15  16
ENDBRANCH  13  15
ENDBRANCH  11  13
ENDBRANCH   1  12
BRANCH   6  20
ATOM     20  C   UNL     1      -5.118  20.227  67.986  0.00  0.00    +0.029 C 
BRANCH  20  21
ATOM     21  C   UNL     1      -4.969  20.982  69.303  0.00  0.00    +0.017 C 
BRANCH  21  22
ATOM     22  C   UNL     1      -3.823  20.302  70.026  0.00  0.00    +0.114 C 
BRANCH  22  23
ATOM     23  C   UNL     1      -3.779  20.944  71.374  0.00  0.00    +0.365 C 
ATOM     24  O   UNL     1      -3.654  20.194  72.534  0.00  0.00    -0.246 OA
ATOM     25  O   UNL     1      -4.418  22.018  71.433  0.00  0.00    -0.246 OA
ENDBRANCH  22  23
ENDBRANCH  21  22
ENDBRANCH  20  21
ENDBRANCH   6  20
TORSDOF 10
ENDMDL
MODEL 7
REMARK VINA RESULT:      -6.0      1.798      2.691
REMARK  Name = 
REMARK  10 active torsions:
REMARK  status: ('A' for Active; 'I' for Inactive)
REMARK    1  A    between atoms: C_2  and  C_3
REMARK    2  A    between atoms: C_3  and  C_4
REMARK    3  A    between atoms: C_4  and  C_5
REMARK    4  A    between atoms: C_5  and  C_6
REMARK    5  A    between atoms: C_6  and  C_8
REMARK    6  A    between atoms: C_9  and  C_10
REMARK    7  A    between atoms: C_17  and  C_18
REMARK    8  A    between atoms: C_18  and  C_19
REMARK    9  A    between atoms: C_19  and  C_20
REMARK   10  A    between atoms: C_20  and  C_21
REMARK                            x       y       z     vdW  Elec       q    Type
REMARK                         _______ _______ _______ _____ _____    ______ ____
ROOT
ATOM      1  C   UNL     1      -9.499  16.600  65.790  0.00  0.00    +0.056 C 
ATOM      2  C   UNL     1      -8.579  15.927  67.018  0.00  0.00    +0.054 C 
ATOM      3  C   UNL     1      -9.686  16.364  68.243  0.00  0.00    +0.169 C 
ATOM      4  O   UNL     1      -8.539  16.229  69.283  0.00  0.00    -0.484 OA
ATOM      5  C   UNL     1      -7.452  16.831  68.758  0.00  0.00    +0.112 C 
ATOM      6  C   UNL     1      -6.338  17.135  69.425  0.00  0.00    +0.006 C 
ATOM      7  C   UNL     1      -9.288  17.930  67.944  0.00  0.00    +0.077 C 
ATOM      8  C   UNL     1      -7.569  17.164  67.303  0.00  0.00    +0.068 C 
ATOM      9  C   UNL     1     -10.183  17.964  66.576  0.00  0.00    +0.160 C 
ATOM     10  O   UNL     1      -9.143  18.884  65.896  0.00  0.00    -0.223 OA
ENDROOT
BRANCH   1  12
ATOM     11  C   UNL     1     -11.315  14.979  65.227  0.00  0.00    +0.002 C 
ATOM     12  C   UNL     1     -10.730  15.646  66.189  0.00  0.00    -0.026 C 
BRANCH  11  13
ATOM     13  C   UNL     1     -12.407  13.980  65.955  0.00  0.00    +0.174 C 
ATOM     14  O   UNL     1     -12.756  13.326  64.601  0.00  0.00    -0.218 OA
BRANCH  13  15
ATOM     15  C   UNL     1     -11.235  12.816  66.255  0.00  0.00    +0.037 C 
BRANCH  15  16
ATOM     16  C   UNL     1     -11.616  12.271  67.620  0.00  0.00    +0.003 C 
BRANCH  16  17
ATOM     17  C   UNL     1     -10.752  12.836  68.736  0.00  0.00    +0.000 C 
BRANCH  17  19
ATOM     18  C   UNL     1     -11.997  13.611  69.585  0.00  0.00    +0.000 C 
ATOM     19  C   UNL     1     -11.743  13.479  69.688  0.00  0.00    +0.000 C 
ENDBRANCH  17  19
ENDBRANCH  16  17
ENDBRANCH  15  16
ENDBRANCH  13  15
ENDBRANCH  11  13
ENDBRANCH   1  12
BRANCH   6  20
ATOM     20  C   UNL     1      -5.612  18.388  69.126  0.00  0.00    +0.029 C 
BRANCH  20  21
ATOM     21  C   UNL     1      -6.155  19.416  70.113  0.00  0.00    +0.017 C 
BRANCH  21  22
ATOM     22  C   UNL     1      -5.102  20.505  70.176  0.00  0.00    +0.114 C 
BRANCH  22  23
ATOM     23  C   UNL     1      -4.794  20.663  71.629  0.00  0.00    +0.365 C 
ATOM     24  O   UNL     1      -4.430  21.889  72.166  0.00  0.00    -0.246 OA
ATOM     25  O   UNL     1      -4.324  19.628  72.152  0.00  0.00    -0.246 OA
ENDBRANCH  22  23
ENDBRANCH  21  22
ENDBRANCH  20  21
ENDBRANCH   6  20
TORSDOF 10
ENDMDL
MODEL 8
REMARK VINA RESULT:      -6.0      2.369      8.277
REMARK  Name = 
REMARK  10 active torsions:
REMARK  status: ('A' for Active; 'I' for Inactive)
REMARK    1  A    between atoms: C_2  and  C_3
REMARK    2  A    between atoms: C_3  and  C_4
REMARK    3  A    between atoms: C_4  and  C_5
REMARK    4  A    between atoms: C_5  and  C_6
REMARK    5  A    between atoms: C_6  and  C_8
REMARK    6  A    between atoms: C_9  and  C_10
REMARK    7  A    between atoms: C_17  and  C_18
REMARK    8  A    between atoms: C_18  and  C_19
REMARK    9  A    between atoms: C_19  and  C_20
REMARK   10  A    between atoms: C_20  and  C_21
REMARK                            x       y       z     vdW  Elec       q    Type
REMARK                         _______ _______ _______ _____ _____    ______ ____
ROOT
ATOM      1  C   UNL     1      -8.426  19.193  68.601  0.00  0.00    +0.056 C 
ATOM      2  C   UNL     1      -7.993  17.752  67.865  0.00  0.00    +0.054 C 
ATOM      3  C   UNL     1      -7.953  18.430  66.298  0.00  0.00    +0.169 C 
ATOM      4  O   UNL     1      -8.115  17.001  65.710  0.00  0.00    -0.484 OA
ATOM      5  C   UNL     1      -9.074  16.381  66.427  0.00  0.00    +0.112 C 
ATOM      6  C   UNL     1      -9.668  15.234  66.096  0.00  0.00    +0.006 C 
ATOM      7  C   UNL     1      -9.582  18.614  66.415  0.00  0.00    +0.077 C 
ATOM      8  C   UNL     1      -9.463  17.091  67.687  0.00  0.00    +0.068 C 
ATOM      9  C   UNL     1      -9.432  19.905  67.407  0.00  0.00    +0.160 C 
ATOM     10  O   UNL     1     -10.688  19.469  68.196  0.00  0.00    -0.223 OA
ENDROOT
BRANCH   1  12
ATOM     11  C   UNL     1      -6.188  20.267  68.882  0.00  0.00    +0.002 C 
ATOM     12  C   UNL     1      -7.098  19.890  68.021  0.00  0.00    -0.026 C 
BRANCH  11  13
ATOM     13  C   UNL     1      -4.898  20.782  67.992  0.00  0.00    +0.174 C 
ATOM     14  O   UNL     1      -4.744  19.385  67.353  0.00  0.00    -0.218 OA
BRANCH  13  15
ATOM     15  C   UNL     1      -5.888  21.287  66.735  0.00  0.00    +0.037 C 
BRANCH  15  16
ATOM     16  C   UNL     1      -5.105  20.909  65.490  0.00  0.00    +0.003 C 
BRANCH  16  17
ATOM     17  C   UNL     1      -6.000  20.694  64.281  0.00  0.00    +0.000 C 
BRANCH  17  19
ATOM     18  C   UNL     1      -5.506  19.152  63.780  0.00  0.00    +0.000 C 
ATOM     19  C   UNL     1      -5.471  19.422  63.645  0.00  0.00    +0.000 C 
ENDBRANCH  17  19
ENDBRANCH  16  17
ENDBRANCH  15  16
ENDBRANCH  13  15
ENDBRANCH  11  13
ENDBRANCH   1  12
BRANCH   6  20
ATOM     20  C   UNL     1     -11.107  15.037  66.372  0.00  0.00    +0.029 C 
BRANCH  20  21
ATOM     21  C   UNL     1     -11.325  13.528  66.331  0.00  0.00    +0.017 C 
BRANCH  21  22
ATOM     22  C   UNL     1     -10.911  13.102  64.936  0.00  0.00    +0.114 C 
BRANCH  22  23
ATOM     23  C   UNL     1     -12.190  12.943  64.183  0.00  0.00    +0.365 C 
ATOM     24  O   UNL     1     -12.537  13.800  63.149  0.00  0.00    -0.246 OA
ATOM     25  O   UNL     1     -13.111  12.445  64.867  0.00  0.00    -0.246 OA
ENDBRANCH  22  23
ENDBRANCH  21  22
ENDBRANCH  20  21
ENDBRANCH   6  20
TORSDOF 10
ENDMDL
MODEL 9
REMARK VINA RESULT:      -5.9      5.729      7.121
REMARK  Name = 
REMARK  10 active torsions:
REMARK  status: ('A' for Active; 'I' for Inactive)
REMARK    1  A    between atoms: C_2  and  C_3
REMARK    2  A    between atoms: C_3  and  C_4
REMARK    3  A    between atoms: C_4  and  C_5
REMARK    4  A    between atoms: C_5  and  C_6
REMARK    5  A    between atoms: C_6  and  C_8
REMARK    6  A    between atoms: C_9  and  C_10
REMARK    7  A    between atoms: C_17  and  C_18
REMARK    8  A    between atoms: C_18  and  C_19
REMARK    9  A    between atoms: C_19  and  C_20
REMARK   10  A    between atoms: C_20  and  C_21
REMARK                            x       y       z     vdW  Elec       q    Type
REMARK                         _______ _______ _______ _____ _____    ______ ____
ROOT
ATOM      1  C   UNL     1     -10.361  13.815  64.599  0.00  0.00    +0.056 C 
ATOM      2  C   UNL     1     -10.423  13.133  66.128  0.00  0.00    +0.054 C 
ATOM      3  C   UNL     1     -11.984  12.480  65.900  0.00  0.00    +0.169 C 
ATOM      4  O   UNL     1     -12.143  12.403  67.444  0.00  0.00    -0.484 OA
ATOM      5  C   UNL     1     -11.691  13.570  67.949  0.00  0.00    +0.112 C 
ATOM      6  C   UNL     1     -11.869  13.991  69.201  0.00  0.00    +0.006 C 
ATOM      7  C   UNL     1     -12.548  14.023  65.874  0.00  0.00    +0.077 C 
ATOM      8  C   UNL     1     -10.938  14.419  66.972  0.00  0.00    +0.068 C 
ATOM      9  C   UNL     1     -11.998  14.268  64.354  0.00  0.00    +0.160 C 
ATOM     10  O   UNL     1     -11.649  15.735  64.697  0.00  0.00    -0.223 OA
ENDROOT
BRANCH   1  12
ATOM     11  C   UNL     1      -9.517  11.740  63.491  0.00  0.00    +0.002 C 
ATOM     12  C   UNL     1     -10.576  12.362  63.942  0.00  0.00    -0.026 C 
BRANCH  11  13
ATOM     13  C   UNL     1     -10.022  10.237  63.041  0.00  0.00    +0.174 C 
ATOM     14  O   UNL     1      -9.038  10.229  61.852  0.00  0.00    -0.218 OA
BRANCH  13  15
ATOM     15  C   UNL     1      -8.888   9.492  64.030  0.00  0.00    +0.037 C 
BRANCH  15  16
ATOM     16  C   UNL     1      -9.617   9.334  65.352  0.00  0.00    +0.003 C 
BRANCH  16  17
ATOM     17  C   UNL     1      -8.704   9.534  66.550  0.00  0.00    +0.000 C 
BRANCH  17  19
ATOM     18  C   UNL     1      -9.541  10.019  67.941  0.00  0.00    +0.000 C 
ATOM     19  C   UNL     1      -9.645   9.893  67.684  0.00  0.00    +0.000 C 
ENDBRANCH  17  19
ENDBRANCH  16  17
ENDBRANCH  15  16
ENDBRANCH  13  15
ENDBRANCH  11  13
ENDBRANCH   1  12
BRANCH   6  20
ATOM     20  C   UNL     1     -12.111  15.424  69.475  0.00  0.00    +0.029 C 
BRANCH  20  21
ATOM     21  C   UNL     1     -12.054  15.562  70.993  0.00  0.00    +0.017 C 
BRANCH  21  22
ATOM     22  C   UNL     1     -13.483  15.381  71.465  0.00  0.00    +0.114 C 
BRANCH  22  23
ATOM     23  C   UNL     1     -13.399  14.401  72.589  0.00  0.00    +0.365 C 
ATOM     24  O   UNL     1     -14.166  13.245  72.605  0.00  0.00    -0.246 OA
ATOM     25  O   UNL     1     -13.105  14.927  73.685  0.00  0.00    -0.246 OA
ENDBRANCH  22  23
ENDBRANCH  21  22
ENDBRANCH  20  21
ENDBRANCH   6  20
TORSDOF 10
ENDMDL
