MODEL 1
REMARK VINA RESULT:      -6.7      0.000      0.000
REMARK  Name = 
REMARK  5 active torsions:
REMARK  status: ('A' for Active; 'I' for Inactive)
REMARK    1  A    between atoms: C_2  and  C_3
REMARK    2  A    between atoms: C_5  and  C_7
REMARK    3  A    between atoms: C_11  and  O_12
REMARK    4  A    between atoms: O_12  and  C_13
REMARK    5  A    between atoms: C_15  and  C_16
REMARK                            x       y       z     vdW  Elec       q    Type
REMARK                         _______ _______ _______ _____ _____    ______ ____
ROOT
ATOM      1  O   UNL     1      -9.894  15.445  66.815  0.00  0.00    -0.326 OA
ENDROOT
BRANCH   1   2
ATOM      2  C   UNL     1     -10.264  16.892  67.157  0.00  0.00    +0.270 C 
ATOM      3  C   UNL     1      -8.953  17.047  68.255  0.00  0.00    +0.241 C 
ATOM      4  O   UNL     1      -9.710  16.304  69.307  0.00  0.00    -0.215 OA
ATOM      5  C   UNL     1      -9.484  18.543  68.855  0.00  0.00    +0.220 C 
ATOM      6  O   UNL     1      -8.235  19.326  68.596  0.00  0.00    -0.217 OA
ATOM      7  C   UNL     1     -10.478  19.061  67.584  0.00  0.00    +0.214 C 
ATOM      8  O   UNL     1     -10.041  20.511  67.686  0.00  0.00    -0.218 OA
ATOM      9  C   UNL     1      -9.656  18.890  66.102  0.00  0.00    +0.183 C 
ATOM     10  O   UNL     1      -9.247  17.452  66.183  0.00  0.00    -0.326 OA
BRANCH   9  11
ATOM     11  C   UNL     1      -8.168  19.436  66.474  0.00  0.00    +0.214 C 
ATOM     12  O   UNL     1      -7.445  18.774  65.497  0.00  0.00    -0.218 OA
ENDBRANCH   9  11
ENDBRANCH   1   2
BRANCH   1  14
ATOM     13  C   UNL     1     -11.031  13.358  66.445  0.00  0.00    +0.180 C 
ATOM     14  C   UNL     1     -11.215  15.040  66.236  0.00  0.00    +0.183 C 
ATOM     15  C   UNL     1     -10.610  14.676  64.672  0.00  0.00    +0.238 C 
ATOM     16  O   UNL     1     -11.242  15.958  64.172  0.00  0.00    -0.215 OA
ATOM     17  C   UNL     1     -11.842  13.640  64.367  0.00  0.00    +0.281 C 
ATOM     18  O   UNL     1     -12.754  14.286  63.590  0.00  0.00    -0.190 OA
ATOM     19  O   UNL     1     -12.324  13.321  65.663  0.00  0.00    -0.325 OA
BRANCH  13  21
ATOM     20  O   UNL     1     -12.064  12.288  67.942  0.00  0.00    -0.218 OA
ATOM     21  C   UNL     1     -11.727  13.398  67.927  0.00  0.00    +0.214 C 
ENDBRANCH  13  21
BRANCH  17  22
ATOM     22  C   UNL     1     -11.358  12.333  63.936  0.00  0.00    +0.243 C 
ATOM     23  O   UNL     1     -10.317  12.002  63.233  0.00  0.00    -0.215 OA
ENDBRANCH  17  22
ENDBRANCH   1  14
TORSDOF 5
ENDMDL
MODEL 2
REMARK VINA RESULT:      -6.6      1.207      1.288
REMARK  Name = 
REMARK  5 active torsions:
REMARK  status: ('A' for Active; 'I' for Inactive)
REMARK    1  A    between atoms: C_2  and  C_3
REMARK    2  A    between atoms: C_5  and  C_7
REMARK    3  A    between atoms: C_11  and  O_12
REMARK    4  A    between atoms: O_12  and  C_13
REMARK    5  A    between atoms: C_15  and  C_16
REMARK                            x       y       z     vdW  Elec       q    Type
REMARK                         _______ _______ _______ _____ _____    ______ ____
ROOT
ATOM      1  O   UNL     1      -9.418  15.529  66.763  0.00  0.00    -0.326 OA
ENDROOT
BRANCH   1   2
ATOM      2  C   UNL     1      -9.319  16.991  67.209  0.00  0.00    +0.270 C 
ATOM      3  C   UNL     1      -7.807  16.732  67.980  0.00  0.00    +0.241 C 
ATOM      4  O   UNL     1      -8.484  16.120  69.163  0.00  0.00    -0.215 OA
ATOM      5  C   UNL     1      -7.791  18.261  68.715  0.00  0.00    +0.220 C 
ATOM      6  O   UNL     1      -6.468  18.730  68.192  0.00  0.00    -0.217 OA
ATOM      7  C   UNL     1      -8.867  19.107  67.715  0.00  0.00    +0.214 C 
ATOM      8  O   UNL     1      -8.060  20.391  67.743  0.00  0.00    -0.218 OA
ATOM      9  C   UNL     1      -8.458  18.853  66.082  0.00  0.00    +0.183 C 
ATOM     10  O   UNL     1      -8.427  17.357  66.039  0.00  0.00    -0.326 OA
BRANCH   9  11
ATOM     11  C   UNL     1      -6.835  18.983  66.114  0.00  0.00    +0.214 C 
ATOM     12  O   UNL     1      -6.570  18.701  64.785  0.00  0.00    -0.218 OA
ENDBRANCH   9  11
ENDBRANCH   1   2
BRANCH   1  14
ATOM     13  C   UNL     1     -11.173  13.887  66.686  0.00  0.00    +0.180 C 
ATOM     14  C   UNL     1     -10.870  15.539  66.393  0.00  0.00    +0.183 C 
ATOM     15  C   UNL     1     -10.640  14.972  64.790  0.00  0.00    +0.238 C 
ATOM     16  O   UNL     1     -10.921  16.375  64.295  0.00  0.00    -0.215 OA
ATOM     17  C   UNL     1     -12.158  14.360  64.721  0.00  0.00    +0.281 C 
ATOM     18  O   UNL     1     -12.936  15.238  64.032  0.00  0.00    -0.190 OA
ATOM     19  O   UNL     1     -12.518  14.233  66.087  0.00  0.00    -0.325 OA
BRANCH  13  21
ATOM     20  O   UNL     1     -11.965  13.095  68.475  0.00  0.00    -0.218 OA
ATOM     21  C   UNL     1     -11.599  14.171  68.242  0.00  0.00    +0.214 C 
ENDBRANCH  13  21
BRANCH  17  22
ATOM     22  C   UNL     1     -12.160  12.958  64.317  0.00  0.00    +0.243 C 
ATOM     23  O   UNL     1     -13.127  12.195  63.900  0.00  0.00    -0.215 OA
ENDBRANCH  17  22
ENDBRANCH   1  14
TORSDOF 5
ENDMDL
MODEL 3
REMARK VINA RESULT:      -6.4      1.661      6.634
REMARK  Name = 
REMARK  5 active torsions:
REMARK  status: ('A' for Active; 'I' for Inactive)
REMARK    1  A    between atoms: C_2  and  C_3
REMARK    2  A    between atoms: C_5  and  C_7
REMARK    3  A    between atoms: C_11  and  O_12
REMARK    4  A    between atoms: O_12  and  C_13
REMARK    5  A    between atoms: C_15  and  C_16
REMARK                            x       y       z     vdW  Elec       q    Type
REMARK                         _______ _______ _______ _____ _____    ______ ____
ROOT
ATOM      1  O   UNL     1      -9.204  16.843  65.746  0.00  0.00    -0.326 OA
ENDROOT
BRANCH   1   2
ATOM      2  C   UNL     1     -10.302  15.889  66.225  0.00  0.00    +0.270 C 
ATOM      3  C   UNL     1     -10.614  15.328  64.632  0.00  0.00    +0.241 C 
ATOM      4  O   UNL     1     -11.414  16.552  64.328  0.00  0.00    -0.215 OA
ATOM      5  C   UNL     1     -12.004  14.467  65.084  0.00  0.00    +0.220 C 
ATOM      6  O   UNL     1     -11.602  13.127  64.551  0.00  0.00    -0.217 OA
ATOM      7  C   UNL     1     -11.728  14.266  66.745  0.00  0.00    +0.214 C 
ATOM      8  O   UNL     1     -12.279  12.853  66.778  0.00  0.00    -0.218 OA
ATOM      9  C   UNL     1     -10.148  13.686  67.001  0.00  0.00    +0.183 C 
ATOM     10  O   UNL     1      -9.358  14.702  66.237  0.00  0.00    -0.326 OA
BRANCH   9  11
ATOM     11  C   UNL     1     -10.008  12.557  65.835  0.00  0.00    +0.214 C 
ATOM     12  O   UNL     1      -8.897  11.887  66.317  0.00  0.00    -0.218 OA
ENDBRANCH   9  11
ENDBRANCH   1   2
BRANCH   1  14
ATOM     13  C   UNL     1      -8.967  19.163  66.335  0.00  0.00    +0.180 C 
ATOM     14  C   UNL     1      -9.041  17.606  67.025  0.00  0.00    +0.183 C 
ATOM     15  C   UNL     1      -7.333  17.738  66.928  0.00  0.00    +0.238 C 
ATOM     16  O   UNL     1      -7.230  16.687  68.014  0.00  0.00    -0.215 OA
ATOM     17  C   UNL     1      -7.320  19.083  67.863  0.00  0.00    +0.281 C 
ATOM     18  O   UNL     1      -6.970  18.717  69.125  0.00  0.00    -0.190 OA
ATOM     19  O   UNL     1      -8.652  19.562  67.759  0.00  0.00    -0.325 OA
BRANCH  13  21
ATOM     20  O   UNL     1     -10.712  19.999  65.490  0.00  0.00    -0.218 OA
ATOM     21  C   UNL     1     -10.589  19.366  66.455  0.00  0.00    +0.214 C 
ENDBRANCH  13  21
BRANCH  17  22
ATOM     22  C   UNL     1      -6.596  20.179  67.226  0.00  0.00    +0.243 C 
ATOM     23  O   UNL     1      -6.733  21.466  67.339  0.00  0.00    -0.215 OA
ENDBRANCH  17  22
ENDBRANCH   1  14
TORSDOF 5
ENDMDL
MODEL 4
REMARK VINA RESULT:      -6.2      2.621      4.985
REMARK  Name = 
REMARK  5 active torsions:
REMARK  status: ('A' for Active; 'I' for Inactive)
REMARK    1  A    between atoms: C_2  and  C_3
REMARK    2  A    between atoms: C_5  and  C_7
REMARK    3  A    between atoms: C_11  and  O_12
REMARK    4  A    between atoms: O_12  and  C_13
REMARK    5  A    between atoms: C_15  and  C_16
REMARK                            x       y       z     vdW  Elec       q    Type
REMARK                         _______ _______ _______ _____ _____    ______ ____
ROOT
ATOM      1  O   UNL     1     -11.527  15.675  68.661  0.00  0.00    -0.326 OA
ENDROOT
BRANCH   1   2
ATOM      2  C   UNL     1     -10.141  16.318  68.544  0.00  0.00    +0.270 C 
ATOM      3  C   UNL     1     -10.231  16.378  66.830  0.00  0.00    +0.241 C 
ATOM      4  O   UNL     1      -9.882  14.929  66.733  0.00  0.00    -0.215 OA
ATOM      5  C   UNL     1      -8.608  16.836  66.646  0.00  0.00    +0.220 C 
ATOM      6  O   UNL     1      -8.832  18.078  65.841  0.00  0.00    -0.217 OA
ATOM      7  C   UNL     1      -8.284  17.482  68.180  0.00  0.00    +0.214 C 
ATOM      8  O   UNL     1      -7.435  18.619  67.644  0.00  0.00    -0.218 OA
ATOM      9  C   UNL     1      -9.516  18.572  68.619  0.00  0.00    +0.183 C 
ATOM     10  O   UNL     1     -10.725  17.711  68.419  0.00  0.00    -0.326 OA
BRANCH   9  11
ATOM     11  C   UNL     1      -9.751  19.395  67.234  0.00  0.00    +0.214 C 
ATOM     12  O   UNL     1     -11.105  19.651  67.362  0.00  0.00    -0.218 OA
ENDBRANCH   9  11
ENDBRANCH   1   2
BRANCH   1  14
ATOM     13  C   UNL     1     -12.447  13.739  69.750  0.00  0.00    +0.180 C 
ATOM     14  C   UNL     1     -11.310  14.989  69.975  0.00  0.00    +0.183 C 
ATOM     15  C   UNL     1     -12.634  15.731  70.775  0.00  0.00    +0.238 C 
ATOM     16  O   UNL     1     -11.644  16.599  71.525  0.00  0.00    -0.215 OA
ATOM     17  C   UNL     1     -12.763  14.497  71.844  0.00  0.00    +0.281 C 
ATOM     18  O   UNL     1     -12.169  14.880  73.006  0.00  0.00    -0.190 OA
ATOM     19  O   UNL     1     -12.094  13.431  71.188  0.00  0.00    -0.325 OA
BRANCH  13  21
ATOM     20  O   UNL     1     -12.028  12.272  68.291  0.00  0.00    -0.218 OA
ATOM     21  C   UNL     1     -11.326  12.748  69.082  0.00  0.00    +0.214 C 
ENDBRANCH  13  21
BRANCH  17  22
ATOM     22  C   UNL     1     -14.121  13.963  71.895  0.00  0.00    +0.243 C 
ATOM     23  O   UNL     1     -15.268  14.541  71.701  0.00  0.00    -0.215 OA
ENDBRANCH  17  22
ENDBRANCH   1  14
TORSDOF 5
ENDMDL
MODEL 5
REMARK VINA RESULT:      -6.1      1.401      6.210
REMARK  Name = 
REMARK  5 active torsions:
REMARK  status: ('A' for Active; 'I' for Inactive)
REMARK    1  A    between atoms: C_2  and  C_3
REMARK    2  A    between atoms: C_5  and  C_7
REMARK    3  A    between atoms: C_11  and  O_12
REMARK    4  A    between atoms: O_12  and  C_13
REMARK    5  A    between atoms: C_15  and  C_16
REMARK                            x       y       z     vdW  Elec       q    Type
REMARK                         _______ _______ _______ _____ _____    ______ ____
ROOT
ATOM      1  O   UNL     1     -11.108  15.752  66.905  0.00  0.00    -0.326 OA
ENDROOT
BRANCH   1   2
ATOM      2  C   UNL     1     -10.589  14.380  66.463  0.00  0.00    +0.270 C 
ATOM      3  C   UNL     1     -12.113  13.634  66.727  0.00  0.00    +0.241 C 
ATOM      4  O   UNL     1     -11.858  13.573  68.198  0.00  0.00    -0.215 OA
ATOM      5  C   UNL     1     -11.510  12.063  66.505  0.00  0.00    +0.220 C 
ATOM      6  O   UNL     1     -12.453  11.629  65.426  0.00  0.00    -0.217 OA
ATOM      7  C   UNL     1     -10.104  12.385  65.615  0.00  0.00    +0.214 C 
ATOM      8  O   UNL     1     -10.268  11.178  64.709  0.00  0.00    -0.218 OA
ATOM      9  C   UNL     1     -10.465  13.436  64.325  0.00  0.00    +0.183 C 
ATOM     10  O   UNL     1     -11.145  14.548  65.062  0.00  0.00    -0.326 OA
BRANCH   9  11
ATOM     11  C   UNL     1     -11.865  12.819  63.766  0.00  0.00    +0.214 C 
ATOM     12  O   UNL     1     -12.461  13.992  63.336  0.00  0.00    -0.218 OA
ENDBRANCH   9  11
ENDBRANCH   1   2
BRANCH   1  14
ATOM     13  C   UNL     1     -10.499  17.323  68.620  0.00  0.00    +0.180 C 
ATOM     14  C   UNL     1      -9.819  16.276  67.459  0.00  0.00    +0.183 C 
ATOM     15  C   UNL     1      -9.801  17.711  66.519  0.00  0.00    +0.238 C 
ATOM     16  O   UNL     1      -8.713  17.091  65.666  0.00  0.00    -0.215 OA
ATOM     17  C   UNL     1      -8.864  18.492  67.612  0.00  0.00    +0.281 C 
ATOM     18  O   UNL     1      -7.583  18.476  67.157  0.00  0.00    -0.190 OA
ATOM     19  O   UNL     1      -9.056  17.738  68.798  0.00  0.00    -0.325 OA
BRANCH  13  21
ATOM     20  O   UNL     1     -11.502  16.447  70.258  0.00  0.00    -0.218 OA
ATOM     21  C   UNL     1     -10.487  16.160  69.774  0.00  0.00    +0.214 C 
ENDBRANCH  13  21
BRANCH  17  22
ATOM     22  C   UNL     1      -9.448  19.768  68.013  0.00  0.00    +0.243 C 
ATOM     23  O   UNL     1      -9.877  20.767  67.302  0.00  0.00    -0.215 OA
ENDBRANCH  17  22
ENDBRANCH   1  14
TORSDOF 5
ENDMDL
MODEL 6
REMARK VINA RESULT:      -6.0      1.630      3.267
REMARK  Name = 
REMARK  5 active torsions:
REMARK  status: ('A' for Active; 'I' for Inactive)
REMARK    1  A    between atoms: C_2  and  C_3
REMARK    2  A    between atoms: C_5  and  C_7
REMARK    3  A    between atoms: C_11  and  O_12
REMARK    4  A    between atoms: O_12  and  C_13
REMARK    5  A    between atoms: C_15  and  C_16
REMARK                            x       y       z     vdW  Elec       q    Type
REMARK                         _______ _______ _______ _____ _____    ______ ____
ROOT
ATOM      1  O   UNL     1     -10.164  16.255  66.871  0.00  0.00    -0.326 OA
ENDROOT
BRANCH   1   2
ATOM      2  C   UNL     1      -8.958  17.091  66.434  0.00  0.00    +0.270 C 
ATOM      3  C   UNL     1      -9.712  18.561  66.904  0.00  0.00    +0.241 C 
ATOM      4  O   UNL     1     -10.532  18.571  65.656  0.00  0.00    -0.215 OA
ATOM      5  C   UNL     1      -8.518  19.534  66.191  0.00  0.00    +0.220 C 
ATOM      6  O   UNL     1      -8.154  20.337  67.402  0.00  0.00    -0.217 OA
ATOM      7  C   UNL     1      -7.224  18.442  66.110  0.00  0.00    +0.214 C 
ATOM      8  O   UNL     1      -6.180  19.481  66.474  0.00  0.00    -0.218 OA
ATOM      9  C   UNL     1      -7.023  17.672  67.615  0.00  0.00    +0.183 C 
ATOM     10  O   UNL     1      -8.410  17.159  67.846  0.00  0.00    -0.326 OA
BRANCH   9  11
ATOM     11  C   UNL     1      -7.201  18.911  68.657  0.00  0.00    +0.214 C 
ATOM     12  O   UNL     1      -6.309  18.502  69.632  0.00  0.00    -0.218 OA
ENDBRANCH   9  11
ENDBRANCH   1   2
BRANCH   1  14
ATOM     13  C   UNL     1     -11.495  14.580  65.773  0.00  0.00    +0.180 C 
ATOM     14  C   UNL     1      -9.876  15.048  66.030  0.00  0.00    +0.183 C 
ATOM     15  C   UNL     1      -9.998  13.915  67.311  0.00  0.00    +0.238 C 
ATOM     16  O   UNL     1      -8.488  13.788  67.290  0.00  0.00    -0.215 OA
ATOM     17  C   UNL     1     -10.378  12.697  66.284  0.00  0.00    +0.281 C 
ATOM     18  O   UNL     1      -9.255  11.959  66.071  0.00  0.00    -0.190 OA
ATOM     19  O   UNL     1     -10.836  13.381  65.128  0.00  0.00    -0.325 OA
BRANCH  13  21
ATOM     20  O   UNL     1     -12.582  14.982  64.008  0.00  0.00    -0.218 OA
ATOM     21  C   UNL     1     -11.606  15.471  64.402  0.00  0.00    +0.214 C 
ENDBRANCH  13  21
BRANCH  17  22
ATOM     22  C   UNL     1     -11.601  12.010  66.686  0.00  0.00    +0.243 C 
ATOM     23  O   UNL     1     -11.885  11.342  67.764  0.00  0.00    -0.215 OA
ENDBRANCH  17  22
ENDBRANCH   1  14
TORSDOF 5
ENDMDL
MODEL 7
REMARK VINA RESULT:      -5.9      1.475      1.860
REMARK  Name = 
REMARK  5 active torsions:
REMARK  status: ('A' for Active; 'I' for Inactive)
REMARK    1  A    between atoms: C_2  and  C_3
REMARK    2  A    between atoms: C_5  and  C_7
REMARK    3  A    between atoms: C_11  and  O_12
REMARK    4  A    between atoms: O_12  and  C_13
REMARK    5  A    between atoms: C_15  and  C_16
REMARK                            x       y       z     vdW  Elec       q    Type
REMARK                         _______ _______ _______ _____ _____    ______ ____
ROOT
ATOM      1  O   UNL     1      -8.998  15.129  66.102  0.00  0.00    -0.326 OA
ENDROOT
BRANCH   1   2
ATOM      2  C   UNL     1      -8.851  16.226  67.160  0.00  0.00    +0.270 C 
ATOM      3  C   UNL     1      -7.575  16.989  66.301  0.00  0.00    +0.241 C 
ATOM      4  O   UNL     1      -6.596  15.978  66.802  0.00  0.00    -0.215 OA
ATOM      5  C   UNL     1      -7.203  18.054  67.569  0.00  0.00    +0.220 C 
ATOM      6  O   UNL     1      -7.328  19.336  66.807  0.00  0.00    -0.217 OA
ATOM      7  C   UNL     1      -8.660  18.034  68.437  0.00  0.00    +0.214 C 
ATOM      8  O   UNL     1      -8.618  19.518  68.756  0.00  0.00    -0.218 OA
ATOM      9  C   UNL     1      -9.969  18.271  67.374  0.00  0.00    +0.183 C 
ATOM     10  O   UNL     1      -9.695  17.201  66.363  0.00  0.00    -0.326 OA
BRANCH   9  11
ATOM     11  C   UNL     1      -9.412  19.460  66.410  0.00  0.00    +0.214 C 
ATOM     12  O   UNL     1     -10.586  19.765  65.744  0.00  0.00    -0.218 OA
ENDBRANCH   9  11
ENDBRANCH   1   2
BRANCH   1  14
ATOM     13  C   UNL     1     -10.200  13.096  66.551  0.00  0.00    +0.180 C 
ATOM     14  C   UNL     1     -10.426  14.778  66.387  0.00  0.00    +0.183 C 
ATOM     15  C   UNL     1     -10.816  14.331  64.777  0.00  0.00    +0.238 C 
ATOM     16  O   UNL     1     -11.586  15.629  64.646  0.00  0.00    -0.215 OA
ATOM     17  C   UNL     1     -12.033  13.354  65.274  0.00  0.00    +0.281 C 
ATOM     18  O   UNL     1     -13.206  14.022  65.108  0.00  0.00    -0.190 OA
ATOM     19  O   UNL     1     -11.710  13.103  66.633  0.00  0.00    -0.325 OA
BRANCH  13  21
ATOM     20  O   UNL     1      -9.796  12.086  68.360  0.00  0.00    -0.218 OA
ATOM     21  C   UNL     1      -9.940  13.220  68.164  0.00  0.00    +0.214 C 
ENDBRANCH  13  21
BRANCH  17  22
ATOM     22  C   UNL     1     -11.910  12.009  64.721  0.00  0.00    +0.243 C 
ATOM     23  O   UNL     1     -11.676  11.608  63.507  0.00  0.00    -0.215 OA
ENDBRANCH  17  22
ENDBRANCH   1  14
TORSDOF 5
ENDMDL
MODEL 8
REMARK VINA RESULT:      -5.8      1.432      6.206
REMARK  Name = 
REMARK  5 active torsions:
REMARK  status: ('A' for Active; 'I' for Inactive)
REMARK    1  A    between atoms: C_2  and  C_3
REMARK    2  A    between atoms: C_5  and  C_7
REMARK    3  A    between atoms: C_11  and  O_12
REMARK    4  A    between atoms: O_12  and  C_13
REMARK    5  A    between atoms: C_15  and  C_16
REMARK                            x       y       z     vdW  Elec       q    Type
REMARK                         _______ _______ _______ _____ _____    ______ ____
ROOT
ATOM      1  O   UNL     1     -10.134  15.730  67.621  0.00  0.00    -0.326 OA
ENDROOT
BRANCH   1   2
ATOM      2  C   UNL     1      -9.967  14.403  66.875  0.00  0.00    +0.270 C 
ATOM      3  C   UNL     1     -11.472  13.805  67.447  0.00  0.00    +0.241 C 
ATOM      4  O   UNL     1     -10.865  13.465  68.769  0.00  0.00    -0.215 OA
ATOM      5  C   UNL     1     -11.201  12.236  66.861  0.00  0.00    +0.220 C 
ATOM      6  O   UNL     1     -12.444  12.106  66.035  0.00  0.00    -0.217 OA
ATOM      7  C   UNL     1     -10.035  12.539  65.668  0.00  0.00    +0.214 C 
ATOM      8  O   UNL     1     -10.612  11.531  64.691  0.00  0.00    -0.218 OA
ATOM      9  C   UNL     1     -10.541  13.829  64.680  0.00  0.00    +0.183 C 
ATOM     10  O   UNL     1     -10.827  14.870  65.717  0.00  0.00    -0.326 OA
BRANCH   9  11
ATOM     11  C   UNL     1     -12.116  13.484  64.451  0.00  0.00    +0.214 C 
ATOM     12  O   UNL     1     -12.542  14.717  63.989  0.00  0.00    -0.218 OA
ENDBRANCH   9  11
ENDBRANCH   1   2
BRANCH   1  14
ATOM     13  C   UNL     1      -8.213  16.972  68.362  0.00  0.00    +0.180 C 
ATOM     14  C   UNL     1      -9.021  16.471  66.947  0.00  0.00    +0.183 C 
ATOM     15  C   UNL     1      -9.738  18.023  67.089  0.00  0.00    +0.238 C 
ATOM     16  O   UNL     1     -10.055  17.969  65.609  0.00  0.00    -0.215 OA
ATOM     17  C   UNL     1      -8.284  18.773  67.019  0.00  0.00    +0.281 C 
ATOM     18  O   UNL     1      -8.112  19.244  65.755  0.00  0.00    -0.190 OA
ATOM     19  O   UNL     1      -7.373  17.744  67.370  0.00  0.00    -0.325 OA
BRANCH  13  21
ATOM     20  O   UNL     1      -7.057  15.637  69.519  0.00  0.00    -0.218 OA
ATOM     21  C   UNL     1      -7.270  15.632  68.379  0.00  0.00    +0.214 C 
ENDBRANCH  13  21
BRANCH  17  22
ATOM     22  C   UNL     1      -8.091  19.689  68.138  0.00  0.00    +0.243 C 
ATOM     23  O   UNL     1      -7.004  20.147  68.684  0.00  0.00    -0.215 OA
ENDBRANCH  17  22
ENDBRANCH   1  14
TORSDOF 5
ENDMDL
MODEL 9
REMARK VINA RESULT:      -5.7      3.216      7.063
REMARK  Name = 
REMARK  5 active torsions:
REMARK  status: ('A' for Active; 'I' for Inactive)
REMARK    1  A    between atoms: C_2  and  C_3
REMARK    2  A    between atoms: C_5  and  C_7
REMARK    3  A    between atoms: C_11  and  O_12
REMARK    4  A    between atoms: O_12  and  C_13
REMARK    5  A    between atoms: C_15  and  C_16
REMARK                            x       y       z     vdW  Elec       q    Type
REMARK                         _______ _______ _______ _____ _____    ______ ____
ROOT
ATOM      1  O   UNL     1     -11.946  11.901  67.968  0.00  0.00    -0.326 OA
ENDROOT
BRANCH   1   2
ATOM      2  C   UNL     1     -10.871  11.171  68.778  0.00  0.00    +0.270 C 
ATOM      3  C   UNL     1     -12.040  10.331  69.715  0.00  0.00    +0.241 C 
ATOM      4  O   UNL     1     -12.265  11.539  70.565  0.00  0.00    -0.215 OA
ATOM      5  C   UNL     1     -10.892   9.715  70.802  0.00  0.00    +0.220 C 
ATOM      6  O   UNL     1     -11.228   8.263  70.657  0.00  0.00    -0.217 OA
ATOM      7  C   UNL     1      -9.479   9.829  69.873  0.00  0.00    +0.214 C 
ATOM      8  O   UNL     1      -8.915   8.509  70.367  0.00  0.00    -0.218 OA
ATOM      9  C   UNL     1      -9.750   9.166  68.327  0.00  0.00    +0.183 C 
ATOM     10  O   UNL     1     -10.971   9.928  67.915  0.00  0.00    -0.326 OA
BRANCH   9  11
ATOM     11  C   UNL     1     -10.591   7.817  68.679  0.00  0.00    +0.214 C 
ATOM     12  O   UNL     1     -10.860   7.389  67.391  0.00  0.00    -0.218 OA
ENDBRANCH   9  11
ENDBRANCH   1   2
BRANCH   1  14
ATOM     13  C   UNL     1     -11.996  14.179  67.199  0.00  0.00    +0.180 C 
ATOM     14  C   UNL     1     -11.026  12.776  67.172  0.00  0.00    +0.183 C 
ATOM     15  C   UNL     1     -11.822  12.539  65.671  0.00  0.00    +0.238 C 
ATOM     16  O   UNL     1     -10.675  11.643  65.250  0.00  0.00    -0.215 OA
ATOM     17  C   UNL     1     -11.272  13.964  65.081  0.00  0.00    +0.281 C 
ATOM     18  O   UNL     1     -10.208  13.705  64.274  0.00  0.00    -0.190 OA
ATOM     19  O   UNL     1     -10.932  14.689  66.252  0.00  0.00    -0.325 OA
BRANCH  13  21
ATOM     20  O   UNL     1     -11.667  15.819  68.487  0.00  0.00    -0.218 OA
ATOM     21  C   UNL     1     -11.283  14.727  68.569  0.00  0.00    +0.214 C 
ENDBRANCH  13  21
BRANCH  17  22
ATOM     22  C   UNL     1     -12.356  14.792  64.563  0.00  0.00    +0.243 C 
ATOM     23  O   UNL     1     -12.329  15.883  63.856  0.00  0.00    -0.215 OA
ENDBRANCH  17  22
ENDBRANCH   1  14
TORSDOF 5
ENDMDL
