MODEL 1
REMARK VINA RESULT:      -7.6      0.000      0.000
REMARK  Name = 
REMARK  4 active torsions:
REMARK  status: ('A' for Active; 'I' for Inactive)
REMARK    1  A    between atoms: C_2  and  C_4
REMARK    2  A    between atoms: C_7  and  N_8
REMARK    3  A    between atoms: C_10  and  C_11
REMARK    4  A    between atoms: C_19  and  C_20
REMARK                            x       y       z     vdW  Elec       q    Type
REMARK                         _______ _______ _______ _____ _____    ______ ____
ROOT
ATOM      1  N   UNL     1      -9.989  14.751  66.749  0.00  0.00    -0.211 N 
ATOM      2  C   UNL     1     -10.568  14.970  65.544  0.00  0.00    +0.168 A 
ATOM      3  N   UNL     1     -10.453  16.307  65.363  0.00  0.00    -0.206 NA
ATOM      4  C   UNL     1      -9.708  16.828  66.358  0.00  0.00    +0.187 A 
ATOM      5  N   UNL     1      -9.163  15.765  66.998  0.00  0.00    -0.144 NA
ENDROOT
BRANCH   2   6
ATOM      6  C   UNL     1     -10.870  13.952  64.529  0.00  0.00    +0.075 A 
ATOM      7  C   UNL     1     -12.195  13.568  64.371  0.00  0.00    +0.199 A 
ATOM      8  O   UNL     1     -13.192  14.199  65.122  0.00  0.00    -0.286 OA
ATOM      9  C   UNL     1     -12.480  12.275  63.952  0.00  0.00    +0.042 A 
ATOM     10  C   UNL     1     -11.481  11.341  63.716  0.00  0.00    +0.003 A 
ATOM     11  C   UNL     1     -10.200  11.840  63.571  0.00  0.00    +0.000 A 
ATOM     12  C   UNL     1      -9.902  12.999  64.276  0.00  0.00    +0.006 A 
ENDBRANCH   2   6
BRANCH   4  13
ATOM     13  C   UNL     1      -9.059  18.145  66.420  0.00  0.00    +0.076 A 
ATOM     14  C   UNL     1      -9.759  19.107  67.138  0.00  0.00    +0.199 A 
ATOM     15  O   UNL     1     -11.029  18.850  67.660  0.00  0.00    -0.286 OA
ATOM     16  C   UNL     1      -9.167  20.331  67.359  0.00  0.00    +0.042 A 
ATOM     17  C   UNL     1      -7.789  20.406  67.283  0.00  0.00    +0.003 A 
ATOM     18  C   UNL     1      -7.031  19.265  67.068  0.00  0.00    +0.000 A 
ATOM     19  C   UNL     1      -7.682  18.129  66.608  0.00  0.00    +0.006 A 
ENDBRANCH   4  13
BRANCH   1  23
ATOM     20  C   UNL     1     -10.631  10.937  68.249  0.00  0.00    +0.080 A 
ATOM     21  C   UNL     1      -9.359  11.495  68.296  0.00  0.00    +0.008 A 
ATOM     22  C   UNL     1      -9.138  12.842  68.036  0.00  0.00    +0.019 A 
ATOM     23  C   UNL     1     -10.198  13.587  67.534  0.00  0.00    +0.085 A 
ATOM     24  C   UNL     1     -11.452  13.209  68.001  0.00  0.00    +0.019 A 
ATOM     25  C   UNL     1     -11.677  11.850  68.182  0.00  0.00    +0.008 A 
BRANCH  20  27
ATOM     26  O   UNL     1     -10.430   9.279  66.652  0.00  0.00    -0.241 OA
ATOM     27  C   UNL     1     -10.809   9.539  67.835  0.00  0.00    +0.388 C 
ATOM     28  O   UNL     1     -10.533   8.522  68.755  0.00  0.00    -0.241 OA
ENDBRANCH  20  27
ENDBRANCH   1  23
TORSDOF 4
ENDMDL
MODEL 2
REMARK VINA RESULT:      -7.5      2.793      7.390
REMARK  Name = 
REMARK  4 active torsions:
REMARK  status: ('A' for Active; 'I' for Inactive)
REMARK    1  A    between atoms: C_2  and  C_4
REMARK    2  A    between atoms: C_7  and  N_8
REMARK    3  A    between atoms: C_10  and  C_11
REMARK    4  A    between atoms: C_19  and  C_20
REMARK                            x       y       z     vdW  Elec       q    Type
REMARK                         _______ _______ _______ _____ _____    ______ ____
ROOT
ATOM      1  N   UNL     1     -11.199  12.792  68.789  0.00  0.00    -0.211 N 
ATOM      2  C   UNL     1     -11.333  12.036  67.671  0.00  0.00    +0.168 A 
ATOM      3  N   UNL     1     -11.477  10.775  68.144  0.00  0.00    -0.206 NA
ATOM      4  C   UNL     1     -11.569  10.811  69.488  0.00  0.00    +0.187 A 
ATOM      5  N   UNL     1     -11.734  12.119  69.806  0.00  0.00    -0.144 NA
ENDROOT
BRANCH   2   6
ATOM      6  C   UNL     1     -11.647  12.530  66.324  0.00  0.00    +0.075 A 
ATOM      7  C   UNL     1     -10.649  12.460  65.360  0.00  0.00    +0.199 A 
ATOM      8  O   UNL     1      -9.421  11.871  65.678  0.00  0.00    -0.286 OA
ATOM      9  C   UNL     1     -10.623  13.405  64.344  0.00  0.00    +0.042 A 
ATOM     10  C   UNL     1     -11.545  14.441  64.278  0.00  0.00    +0.003 A 
ATOM     11  C   UNL     1     -12.685  14.293  65.045  0.00  0.00    +0.000 A 
ATOM     12  C   UNL     1     -12.553  13.568  66.222  0.00  0.00    +0.006 A 
ENDBRANCH   2   6
BRANCH   4  13
ATOM     13  C   UNL     1     -12.040   9.760  70.400  0.00  0.00    +0.076 A 
ATOM     14  C   UNL     1     -11.039   9.126  71.126  0.00  0.00    +0.199 A 
ATOM     15  O   UNL     1      -9.688   9.408  70.909  0.00  0.00    -0.286 OA
ATOM     16  C   UNL     1     -11.398   8.219  72.098  0.00  0.00    +0.042 A 
ATOM     17  C   UNL     1     -12.671   8.310  72.630  0.00  0.00    +0.003 A 
ATOM     18  C   UNL     1     -13.525   9.332  72.244  0.00  0.00    +0.000 A 
ATOM     19  C   UNL     1     -13.207  10.048  71.098  0.00  0.00    +0.006 A 
ENDBRANCH   4  13
BRANCH   1  23
ATOM     20  C   UNL     1     -10.039  16.708  68.063  0.00  0.00    +0.080 A 
ATOM     21  C   UNL     1     -11.032  16.441  68.997  0.00  0.00    +0.008 A 
ATOM     22  C   UNL     1     -11.287  15.153  69.451  0.00  0.00    +0.019 A 
ATOM     23  C   UNL     1     -10.651  14.101  68.804  0.00  0.00    +0.085 A 
ATOM     24  C   UNL     1      -9.374  14.388  68.336  0.00  0.00    +0.019 A 
ATOM     25  C   UNL     1      -9.161  15.658  67.815  0.00  0.00    +0.008 A 
BRANCH  20  27
ATOM     26  O   UNL     1     -10.291  17.455  65.890  0.00  0.00    -0.241 OA
ATOM     27  C   UNL     1     -10.201  17.811  67.106  0.00  0.00    +0.388 C 
ATOM     28  O   UNL     1     -11.031  18.883  67.446  0.00  0.00    -0.241 OA
ENDBRANCH  20  27
ENDBRANCH   1  23
TORSDOF 4
ENDMDL
MODEL 3
REMARK VINA RESULT:      -7.4      2.733      7.278
REMARK  Name = 
REMARK  4 active torsions:
REMARK  status: ('A' for Active; 'I' for Inactive)
REMARK    1  A    between atoms: C_2  and  C_4
REMARK    2  A    between atoms: C_7  and  N_8
REMARK    3  A    between atoms: C_10  and  C_11
REMARK    4  A    between atoms: C_19  and  C_20
REMARK                            x       y       z     vdW  Elec       q    Type
REMARK                         _______ _______ _______ _____ _____    ______ ____
ROOT
ATOM      1  N   UNL     1     -10.645  14.973  68.132  0.00  0.00    -0.211 N 
ATOM      2  C   UNL     1     -11.767  14.527  68.748  0.00  0.00    +0.168 A 
ATOM      3  N   UNL     1     -12.363  13.745  67.816  0.00  0.00    -0.206 NA
ATOM      4  C   UNL     1     -11.548  13.624  66.749  0.00  0.00    +0.187 A 
ATOM      5  N   UNL     1     -10.354  14.128  67.145  0.00  0.00    -0.144 NA
ENDROOT
BRANCH   2   6
ATOM      6  C   UNL     1     -12.037  14.565  70.190  0.00  0.00    +0.075 A 
ATOM      7  C   UNL     1     -12.192  13.354  70.853  0.00  0.00    +0.199 A 
ATOM      8  O   UNL     1     -12.021  12.155  70.151  0.00  0.00    -0.286 OA
ATOM      9  C   UNL     1     -13.019  13.292  71.966  0.00  0.00    +0.042 A 
ATOM     10  C   UNL     1     -13.726  14.397  72.421  0.00  0.00    +0.003 A 
ATOM     11  C   UNL     1     -13.307  15.626  71.948  0.00  0.00    +0.000 A 
ATOM     12  C   UNL     1     -12.748  15.646  70.676  0.00  0.00    +0.006 A 
ENDBRANCH   2   6
BRANCH   4  13
ATOM     13  C   UNL     1     -11.616  12.647  65.653  0.00  0.00    +0.076 A 
ATOM     14  C   UNL     1     -12.112  13.148  64.455  0.00  0.00    +0.199 A 
ATOM     15  O   UNL     1     -12.602  14.452  64.354  0.00  0.00    -0.286 OA
ATOM     16  C   UNL     1     -12.090  12.340  63.340  0.00  0.00    +0.042 A 
ATOM     17  C   UNL     1     -11.192  11.288  63.320  0.00  0.00    +0.003 A 
ATOM     18  C   UNL     1     -10.295  11.107  64.361  0.00  0.00    +0.000 A 
ATOM     19  C   UNL     1     -10.531  11.785  65.549  0.00  0.00    +0.006 A 
ENDBRANCH   4  13
BRANCH   1  23
ATOM     20  C   UNL     1      -8.221  18.318  68.511  0.00  0.00    +0.080 A 
ATOM     21  C   UNL     1      -9.602  18.464  68.465  0.00  0.00    +0.008 A 
ATOM     22  C   UNL     1     -10.460  17.378  68.582  0.00  0.00    +0.019 A 
ATOM     23  C   UNL     1      -9.902  16.106  68.555  0.00  0.00    +0.085 A 
ATOM     24  C   UNL     1      -8.641  16.008  69.131  0.00  0.00    +0.019 A 
ATOM     25  C   UNL     1      -7.770  17.073  68.935  0.00  0.00    +0.008 A 
BRANCH  20  27
ATOM     26  O   UNL     1      -7.894  19.723  66.705  0.00  0.00    -0.241 OA
ATOM     27  C   UNL     1      -7.356  19.221  67.740  0.00  0.00    +0.388 C 
ATOM     28  O   UNL     1      -6.518  20.105  68.428  0.00  0.00    -0.241 OA
ENDBRANCH  20  27
ENDBRANCH   1  23
TORSDOF 4
ENDMDL
MODEL 4
REMARK VINA RESULT:      -7.4      2.585      6.234
REMARK  Name = 
REMARK  4 active torsions:
REMARK  status: ('A' for Active; 'I' for Inactive)
REMARK    1  A    between atoms: C_2  and  C_4
REMARK    2  A    between atoms: C_7  and  N_8
REMARK    3  A    between atoms: C_10  and  C_11
REMARK    4  A    between atoms: C_19  and  C_20
REMARK                            x       y       z     vdW  Elec       q    Type
REMARK                         _______ _______ _______ _____ _____    ______ ____
ROOT
ATOM      1  N   UNL     1     -10.757  15.439  67.331  0.00  0.00    -0.211 N 
ATOM      2  C   UNL     1     -10.980  14.169  66.911  0.00  0.00    +0.168 A 
ATOM      3  N   UNL     1     -11.562  13.569  67.976  0.00  0.00    -0.206 NA
ATOM      4  C   UNL     1     -11.800  14.490  68.931  0.00  0.00    +0.187 A 
ATOM      5  N   UNL     1     -11.591  15.690  68.337  0.00  0.00    -0.144 NA
ENDROOT
BRANCH   2   6
ATOM      6  C   UNL     1     -10.961  13.702  65.519  0.00  0.00    +0.075 A 
ATOM      7  C   UNL     1     -12.155  13.732  64.809  0.00  0.00    +0.199 A 
ATOM      8  O   UNL     1     -13.303  14.259  65.409  0.00  0.00    -0.286 OA
ATOM      9  C   UNL     1     -12.371  12.793  63.809  0.00  0.00    +0.042 A 
ATOM     10  C   UNL     1     -11.444  11.803  63.515  0.00  0.00    +0.003 A 
ATOM     11  C   UNL     1     -10.166  11.999  64.004  0.00  0.00    +0.000 A 
ATOM     12  C   UNL     1     -10.058  12.708  65.193  0.00  0.00    +0.006 A 
ENDBRANCH   2   6
BRANCH   4  13
ATOM     13  C   UNL     1     -12.679  14.384  70.104  0.00  0.00    +0.076 A 
ATOM     14  C   UNL     1     -12.579  13.186  70.801  0.00  0.00    +0.199 A 
ATOM     15  O   UNL     1     -11.779  12.137  70.343  0.00  0.00    -0.286 OA
ATOM     16  C   UNL     1     -13.268  13.049  71.985  0.00  0.00    +0.042 A 
ATOM     17  C   UNL     1     -13.636  14.201  72.658  0.00  0.00    +0.003 A 
ATOM     18  C   UNL     1     -13.251  15.446  72.185  0.00  0.00    +0.000 A 
ATOM     19  C   UNL     1     -12.787  15.532  70.880  0.00  0.00    +0.006 A 
ENDBRANCH   4  13
BRANCH   1  23
ATOM     20  C   UNL     1      -7.885  18.279  66.385  0.00  0.00    +0.080 A 
ATOM     21  C   UNL     1      -7.568  16.927  66.330  0.00  0.00    +0.008 A 
ATOM     22  C   UNL     1      -8.543  15.940  66.399  0.00  0.00    +0.019 A 
ATOM     23  C   UNL     1      -9.838  16.330  66.719  0.00  0.00    +0.085 A 
ATOM     24  C   UNL     1     -10.207  17.582  66.240  0.00  0.00    +0.019 A 
ATOM     25  C   UNL     1      -9.236  18.576  66.252  0.00  0.00    +0.008 A 
BRANCH  20  27
ATOM     26  O   UNL     1      -7.493  20.247  67.531  0.00  0.00    -0.241 OA
ATOM     27  C   UNL     1      -6.949  19.234  66.993  0.00  0.00    +0.388 C 
ATOM     28  O   UNL     1      -5.845  18.741  67.697  0.00  0.00    -0.241 OA
ENDBRANCH  20  27
ENDBRANCH   1  23
TORSDOF 4
ENDMDL
MODEL 5
REMARK VINA RESULT:      -7.4      2.621      4.499
REMARK  Name = 
REMARK  4 active torsions:
REMARK  status: ('A' for Active; 'I' for Inactive)
REMARK    1  A    between atoms: C_2  and  C_4
REMARK    2  A    between atoms: C_7  and  N_8
REMARK    3  A    between atoms: C_10  and  C_11
REMARK    4  A    between atoms: C_19  and  C_20
REMARK                            x       y       z     vdW  Elec       q    Type
REMARK                         _______ _______ _______ _____ _____    ______ ____
ROOT
ATOM      1  N   UNL     1     -11.207  14.663  67.847  0.00  0.00    -0.211 N 
ATOM      2  C   UNL     1     -11.379  14.687  69.192  0.00  0.00    +0.168 A 
ATOM      3  N   UNL     1     -10.698  15.789  69.589  0.00  0.00    -0.206 NA
ATOM      4  C   UNL     1     -10.267  16.461  68.503  0.00  0.00    +0.187 A 
ATOM      5  N   UNL     1     -10.906  15.897  67.449  0.00  0.00    -0.144 NA
ENDROOT
BRANCH   2   6
ATOM      6  C   UNL     1     -12.386  13.934  69.951  0.00  0.00    +0.075 A 
ATOM      7  C   UNL     1     -13.244  14.650  70.775  0.00  0.00    +0.199 A 
ATOM      8  O   UNL     1     -13.169  16.047  70.805  0.00  0.00    -0.286 OA
ATOM      9  C   UNL     1     -13.743  14.046  71.921  0.00  0.00    +0.042 A 
ATOM     10  C   UNL     1     -13.385  12.756  72.288  0.00  0.00    +0.003 A 
ATOM     11  C   UNL     1     -12.804  11.980  71.303  0.00  0.00    +0.000 A 
ATOM     12  C   UNL     1     -12.058  12.650  70.342  0.00  0.00    +0.006 A 
ENDBRANCH   2   6
BRANCH   4  13
ATOM     13  C   UNL     1      -9.773  17.842  68.420  0.00  0.00    +0.076 A 
ATOM     14  C   UNL     1      -8.389  17.968  68.418  0.00  0.00    +0.199 A 
ATOM     15  O   UNL     1      -7.554  16.862  68.591  0.00  0.00    -0.286 OA
ATOM     16  C   UNL     1      -7.837  19.213  68.213  0.00  0.00    +0.042 A 
ATOM     17  C   UNL     1      -8.609  20.167  67.575  0.00  0.00    +0.003 A 
ATOM     18  C   UNL     1      -9.869  19.846  67.092  0.00  0.00    +0.000 A 
ATOM     19  C   UNL     1     -10.461  18.675  67.545  0.00  0.00    +0.006 A 
ENDBRANCH   4  13
BRANCH   1  23
ATOM     20  C   UNL     1     -11.169  11.681  64.964  0.00  0.00    +0.080 A 
ATOM     21  C   UNL     1     -10.514  11.484  66.173  0.00  0.00    +0.008 A 
ATOM     22  C   UNL     1     -10.696  12.337  67.255  0.00  0.00    +0.019 A 
ATOM     23  C   UNL     1     -11.405  13.513  67.040  0.00  0.00    +0.085 A 
ATOM     24  C   UNL     1     -12.429  13.415  66.105  0.00  0.00    +0.019 A 
ATOM     25  C   UNL     1     -12.196  12.617  64.991  0.00  0.00    +0.008 A 
BRANCH  20  27
ATOM     26  O   UNL     1      -9.953  12.237  63.079  0.00  0.00    -0.241 OA
ATOM     27  C   UNL     1     -10.525  11.290  63.702  0.00  0.00    +0.388 C 
ATOM     28  O   UNL     1      -9.835  10.075  63.645  0.00  0.00    -0.241 OA
ENDBRANCH  20  27
ENDBRANCH   1  23
TORSDOF 4
ENDMDL
MODEL 6
REMARK VINA RESULT:      -7.2      2.877      3.689
REMARK  Name = 
REMARK  4 active torsions:
REMARK  status: ('A' for Active; 'I' for Inactive)
REMARK    1  A    between atoms: C_2  and  C_4
REMARK    2  A    between atoms: C_7  and  N_8
REMARK    3  A    between atoms: C_10  and  C_11
REMARK    4  A    between atoms: C_19  and  C_20
REMARK                            x       y       z     vdW  Elec       q    Type
REMARK                         _______ _______ _______ _____ _____    ______ ____
ROOT
ATOM      1  N   UNL     1     -10.368  15.831  68.169  0.00  0.00    -0.211 N 
ATOM      2  C   UNL     1     -10.735  15.460  66.917  0.00  0.00    +0.168 A 
ATOM      3  N   UNL     1     -10.242  16.444  66.127  0.00  0.00    -0.206 NA
ATOM      4  C   UNL     1      -9.493  17.280  66.872  0.00  0.00    +0.187 A 
ATOM      5  N   UNL     1      -9.329  16.656  68.064  0.00  0.00    -0.144 NA
ENDROOT
BRANCH   2   6
ATOM      6  C   UNL     1     -11.193  14.126  66.508  0.00  0.00    +0.075 A 
ATOM      7  C   UNL     1     -10.235  13.134  66.344  0.00  0.00    +0.199 A 
ATOM      8  O   UNL     1      -8.895  13.413  66.635  0.00  0.00    -0.286 OA
ATOM      9  C   UNL     1     -10.457  12.126  65.416  0.00  0.00    +0.042 A 
ATOM     10  C   UNL     1     -11.594  12.093  64.621  0.00  0.00    +0.003 A 
ATOM     11  C   UNL     1     -12.647  12.891  65.029  0.00  0.00    +0.000 A 
ATOM     12  C   UNL     1     -12.317  14.058  65.706  0.00  0.00    +0.006 A 
ENDBRANCH   2   6
BRANCH   4  13
ATOM     13  C   UNL     1      -8.521  18.285  66.420  0.00  0.00    +0.076 A 
ATOM     14  C   UNL     1      -8.565  19.491  67.109  0.00  0.00    +0.199 A 
ATOM     15  O   UNL     1      -9.537  19.744  68.079  0.00  0.00    -0.286 OA
ATOM     16  C   UNL     1      -7.607  20.442  66.841  0.00  0.00    +0.042 A 
ATOM     17  C   UNL     1      -6.415  20.021  66.280  0.00  0.00    +0.003 A 
ATOM     18  C   UNL     1      -6.173  18.673  66.068  0.00  0.00    +0.000 A 
ATOM     19  C   UNL     1      -7.253  17.802  66.120  0.00  0.00    +0.006 A 
ENDBRANCH   4  13
BRANCH   1  23
ATOM     20  C   UNL     1     -12.888  14.581  71.218  0.00  0.00    +0.080 A 
ATOM     21  C   UNL     1     -12.287  13.643  70.387  0.00  0.00    +0.008 A 
ATOM     22  C   UNL     1     -11.259  13.984  69.517  0.00  0.00    +0.019 A 
ATOM     23  C   UNL     1     -10.969  15.333  69.355  0.00  0.00    +0.085 A 
ATOM     24  C   UNL     1     -11.147  16.111  70.493  0.00  0.00    +0.019 A 
ATOM     25  C   UNL     1     -12.228  15.801  71.309  0.00  0.00    +0.008 A 
BRANCH  20  27
ATOM     26  O   UNL     1     -14.552  13.613  72.497  0.00  0.00    -0.241 OA
ATOM     27  C   UNL     1     -14.307  14.451  71.575  0.00  0.00    +0.388 C 
ATOM     28  O   UNL     1     -15.096  15.604  71.632  0.00  0.00    -0.241 OA
ENDBRANCH  20  27
ENDBRANCH   1  23
TORSDOF 4
ENDMDL
MODEL 7
REMARK VINA RESULT:      -7.0      3.056      5.901
REMARK  Name = 
REMARK  4 active torsions:
REMARK  status: ('A' for Active; 'I' for Inactive)
REMARK    1  A    between atoms: C_2  and  C_4
REMARK    2  A    between atoms: C_7  and  N_8
REMARK    3  A    between atoms: C_10  and  C_11
REMARK    4  A    between atoms: C_19  and  C_20
REMARK                            x       y       z     vdW  Elec       q    Type
REMARK                         _______ _______ _______ _____ _____    ______ ____
ROOT
ATOM      1  N   UNL     1     -10.656  15.127  67.945  0.00  0.00    -0.211 N 
ATOM      2  C   UNL     1     -10.722  16.481  67.935  0.00  0.00    +0.168 A 
ATOM      3  N   UNL     1     -11.568  16.775  68.951  0.00  0.00    -0.206 NA
ATOM      4  C   UNL     1     -11.870  15.645  69.619  0.00  0.00    +0.187 A 
ATOM      5  N   UNL     1     -11.006  14.708  69.159  0.00  0.00    -0.144 NA
ENDROOT
BRANCH   2   6
ATOM      6  C   UNL     1      -9.790  17.388  67.253  0.00  0.00    +0.075 A 
ATOM      7  C   UNL     1      -8.518  17.535  67.791  0.00  0.00    +0.199 A 
ATOM      8  O   UNL     1      -8.148  16.777  68.907  0.00  0.00    -0.286 OA
ATOM      9  C   UNL     1      -7.851  18.742  67.630  0.00  0.00    +0.042 A 
ATOM     10  C   UNL     1      -8.427  19.821  66.974  0.00  0.00    +0.003 A 
ATOM     11  C   UNL     1      -9.531  19.540  66.190  0.00  0.00    +0.000 A 
ATOM     12  C   UNL     1     -10.329  18.479  66.599  0.00  0.00    +0.006 A 
ENDBRANCH   2   6
BRANCH   4  13
ATOM     13  C   UNL     1     -12.478  15.505  70.950  0.00  0.00    +0.076 A 
ATOM     14  C   UNL     1     -12.784  14.200  71.317  0.00  0.00    +0.199 A 
ATOM     15  O   UNL     1     -12.618  13.133  70.432  0.00  0.00    -0.286 OA
ATOM     16  C   UNL     1     -13.235  13.961  72.596  0.00  0.00    +0.042 A 
ATOM     17  C   UNL     1     -12.936  14.891  73.574  0.00  0.00    +0.003 A 
ATOM     18  C   UNL     1     -12.141  15.989  73.282  0.00  0.00    +0.000 A 
ATOM     19  C   UNL     1     -11.932  16.305  71.947  0.00  0.00    +0.006 A 
ENDBRANCH   4  13
BRANCH   1  23
ATOM     20  C   UNL     1     -10.015  12.292  64.984  0.00  0.00    +0.080 A 
ATOM     21  C   UNL     1     -10.647  13.490  64.672  0.00  0.00    +0.008 A 
ATOM     22  C   UNL     1     -10.669  14.561  65.557  0.00  0.00    +0.019 A 
ATOM     23  C   UNL     1     -10.208  14.343  66.850  0.00  0.00    +0.085 A 
ATOM     24  C   UNL     1      -9.162  13.433  66.952  0.00  0.00    +0.019 A 
ATOM     25  C   UNL     1      -9.200  12.328  66.110  0.00  0.00    +0.008 A 
BRANCH  20  27
ATOM     26  O   UNL     1     -10.818  11.035  63.219  0.00  0.00    -0.241 OA
ATOM     27  C   UNL     1     -10.534  11.023  64.457  0.00  0.00    +0.388 C 
ATOM     28  O   UNL     1      -9.961   9.825  64.896  0.00  0.00    -0.241 OA
ENDBRANCH  20  27
ENDBRANCH   1  23
TORSDOF 4
ENDMDL
MODEL 8
REMARK VINA RESULT:      -7.0      1.532      2.057
REMARK  Name = 
REMARK  4 active torsions:
REMARK  status: ('A' for Active; 'I' for Inactive)
REMARK    1  A    between atoms: C_2  and  C_4
REMARK    2  A    between atoms: C_7  and  N_8
REMARK    3  A    between atoms: C_10  and  C_11
REMARK    4  A    between atoms: C_19  and  C_20
REMARK                            x       y       z     vdW  Elec       q    Type
REMARK                         _______ _______ _______ _____ _____    ______ ____
ROOT
ATOM      1  N   UNL     1     -10.175  13.954  67.203  0.00  0.00    -0.211 N 
ATOM      2  C   UNL     1     -10.681  14.466  66.054  0.00  0.00    +0.168 A 
ATOM      3  N   UNL     1     -10.573  15.806  66.217  0.00  0.00    -0.206 NA
ATOM      4  C   UNL     1      -9.897  16.063  67.354  0.00  0.00    +0.187 A 
ATOM      5  N   UNL     1      -9.380  14.874  67.746  0.00  0.00    -0.144 NA
ENDROOT
BRANCH   2   6
ATOM      6  C   UNL     1     -10.905  13.731  64.803  0.00  0.00    +0.075 A 
ATOM      7  C   UNL     1     -12.218  13.458  64.438  0.00  0.00    +0.199 A 
ATOM      8  O   UNL     1     -13.268  13.942  65.225  0.00  0.00    -0.286 OA
ATOM      9  C   UNL     1     -12.491  12.316  63.698  0.00  0.00    +0.042 A 
ATOM     10  C   UNL     1     -11.497  11.417  63.337  0.00  0.00    +0.003 A 
ATOM     11  C   UNL     1     -10.196  11.874  63.433  0.00  0.00    +0.000 A 
ATOM     12  C   UNL     1      -9.941  12.819  64.418  0.00  0.00    +0.006 A 
ENDBRANCH   2   6
BRANCH   4  13
ATOM     13  C   UNL     1      -9.271  17.322  67.781  0.00  0.00    +0.076 A 
ATOM     14  C   UNL     1      -8.292  17.807  66.921  0.00  0.00    +0.199 A 
ATOM     15  O   UNL     1      -7.878  17.083  65.801  0.00  0.00    -0.286 OA
ATOM     16  C   UNL     1      -7.744  19.045  67.172  0.00  0.00    +0.042 A 
ATOM     17  C   UNL     1      -8.472  19.931  67.946  0.00  0.00    +0.003 A 
ATOM     18  C   UNL     1      -9.745  19.602  68.385  0.00  0.00    +0.000 A 
ATOM     19  C   UNL     1     -10.133  18.271  68.318  0.00  0.00    +0.006 A 
ENDBRANCH   4  13
BRANCH   1  23
ATOM     20  C   UNL     1     -10.833  10.468  69.352  0.00  0.00    +0.080 A 
ATOM     21  C   UNL     1     -11.899  11.119  68.744  0.00  0.00    +0.008 A 
ATOM     22  C   UNL     1     -11.707  12.140  67.821  0.00  0.00    +0.019 A 
ATOM     23  C   UNL     1     -10.418  12.633  67.661  0.00  0.00    +0.085 A 
ATOM     24  C   UNL     1      -9.407  11.690  67.812  0.00  0.00    +0.019 A 
ATOM     25  C   UNL     1      -9.586  10.723  68.793  0.00  0.00    +0.008 A 
BRANCH  20  27
ATOM     26  O   UNL     1     -12.126   9.539  71.027  0.00  0.00    -0.241 OA
ATOM     27  C   UNL     1     -10.965   9.953  70.722  0.00  0.00    +0.388 C 
ATOM     28  O   UNL     1      -9.929   9.180  71.255  0.00  0.00    -0.241 OA
ENDBRANCH  20  27
ENDBRANCH   1  23
TORSDOF 4
ENDMDL
MODEL 9
REMARK VINA RESULT:      -6.9      3.090      7.478
REMARK  Name = 
REMARK  4 active torsions:
REMARK  status: ('A' for Active; 'I' for Inactive)
REMARK    1  A    between atoms: C_2  and  C_4
REMARK    2  A    between atoms: C_7  and  N_8
REMARK    3  A    between atoms: C_10  and  C_11
REMARK    4  A    between atoms: C_19  and  C_20
REMARK                            x       y       z     vdW  Elec       q    Type
REMARK                         _______ _______ _______ _____ _____    ______ ____
ROOT
ATOM      1  N   UNL     1      -9.402  15.732  68.431  0.00  0.00    -0.211 N 
ATOM      2  C   UNL     1     -10.470  16.385  67.911  0.00  0.00    +0.168 A 
ATOM      3  N   UNL     1     -11.488  15.501  68.039  0.00  0.00    -0.206 NA
ATOM      4  C   UNL     1     -11.062  14.430  68.738  0.00  0.00    +0.187 A 
ATOM      5  N   UNL     1      -9.857  14.785  69.247  0.00  0.00    -0.144 NA
ENDROOT
BRANCH   2   6
ATOM      6  C   UNL     1     -10.564  17.828  67.655  0.00  0.00    +0.075 A 
ATOM      7  C   UNL     1     -10.496  18.258  66.336  0.00  0.00    +0.199 A 
ATOM      8  O   UNL     1     -10.409  17.315  65.305  0.00  0.00    -0.286 OA
ATOM      9  C   UNL     1      -9.963  19.509  66.059  0.00  0.00    +0.042 A 
ATOM     10  C   UNL     1      -9.464  20.335  67.056  0.00  0.00    +0.003 A 
ATOM     11  C   UNL     1      -9.836  20.022  68.350  0.00  0.00    +0.000 A 
ATOM     12  C   UNL     1     -10.067  18.680  68.623  0.00  0.00    +0.006 A 
ENDBRANCH   2   6
BRANCH   4  13
ATOM     13  C   UNL     1     -11.865  13.385  69.387  0.00  0.00    +0.076 A 
ATOM     14  C   UNL     1     -11.394  12.090  69.205  0.00  0.00    +0.199 A 
ATOM     15  O   UNL     1     -10.302  11.818  68.377  0.00  0.00    -0.286 OA
ATOM     16  C   UNL     1     -12.006  11.060  69.883  0.00  0.00    +0.042 A 
ATOM     17  C   UNL     1     -12.719  11.372  71.027  0.00  0.00    +0.003 A 
ATOM     18  C   UNL     1     -12.746  12.671  71.509  0.00  0.00    +0.000 A 
ATOM     19  C   UNL     1     -12.331  13.688  70.661  0.00  0.00    +0.006 A 
ENDBRANCH   4  13
BRANCH   1  23
ATOM     20  C   UNL     1      -5.776  17.609  67.696  0.00  0.00    +0.080 A 
ATOM     21  C   UNL     1      -6.065  17.133  68.970  0.00  0.00    +0.008 A 
ATOM     22  C   UNL     1      -7.144  16.293  69.212  0.00  0.00    +0.019 A 
ATOM     23  C   UNL     1      -8.051  16.089  68.180  0.00  0.00    +0.085 A 
ATOM     24  C   UNL     1      -7.496  16.089  66.905  0.00  0.00    +0.019 A 
ATOM     25  C   UNL     1      -6.469  16.992  66.661  0.00  0.00    +0.008 A 
BRANCH  20  27
ATOM     26  O   UNL     1      -5.915  19.912  67.833  0.00  0.00    -0.241 OA
ATOM     27  C   UNL     1      -5.166  18.935  67.524  0.00  0.00    +0.388 C 
ATOM     28  O   UNL     1      -3.825  19.112  67.881  0.00  0.00    -0.241 OA
ENDBRANCH  20  27
ENDBRANCH   1  23
TORSDOF 4
ENDMDL
