MODEL 1
REMARK VINA RESULT:      -6.9      0.000      0.000
REMARK  Name = 
REMARK  4 active torsions:
REMARK  status: ('A' for Active; 'I' for Inactive)
REMARK    1  A    between atoms: S_2  and  C_3
REMARK    2  A    between atoms: N_9  and  C_10
REMARK    3  A    between atoms: C_10  and  C_11
REMARK    4  A    between atoms: C_11  and  C_12
REMARK                            x       y       z     vdW  Elec       q    Type
REMARK                         _______ _______ _______ _____ _____    ______ ____
ROOT
ATOM      1  C   UNL     1     -11.304  13.414  66.138  0.00  0.00    +0.027 A 
ATOM      2  C   UNL     1     -10.798  14.187  67.160  0.00  0.00    +0.021 A 
ATOM      3  C   UNL     1     -11.059  13.769  68.460  0.00  0.00    +0.058 A 
ATOM      4  N   UNL     1     -10.855  14.714  69.504  0.00  0.00    -0.286 N 
ATOM      5  C   UNL     1     -11.532  14.683  70.743  0.00  0.00    +0.058 A 
ATOM      6  C   UNL     1     -12.493  13.761  71.090  0.00  0.00    +0.043 A 
ATOM      7  S   UNL     1     -12.349  12.160  70.289  0.00  0.00    -0.084 S 
ATOM      8  C   UNL     1     -13.592  14.142  71.812  0.00  0.00    +0.008 A 
ATOM      9  C   UNL     1     -13.573  15.349  72.499  0.00  0.00    +0.001 A 
ATOM     10  C   UNL     1     -12.445  16.147  72.438  0.00  0.00    +0.001 A 
ATOM     11  C   UNL     1     -11.398  15.762  71.608  0.00  0.00    +0.015 A 
ATOM     12  C   UNL     1     -11.493  12.491  68.744  0.00  0.00    +0.043 A 
ATOM     13  C   UNL     1     -11.661  11.625  67.711  0.00  0.00    +0.008 A 
ATOM     14  C   UNL     1     -11.419  12.057  66.412  0.00  0.00    +0.007 A 
ENDROOT
BRANCH   1  16
ATOM     15  C   UNL     1     -12.057  12.760  63.450  0.00  0.00    +0.074 C 
ATOM     16  S   UNL     1     -11.899  14.105  64.600  0.00  0.00    -0.113 S 
ENDBRANCH   1  16
BRANCH   4  17
ATOM     17  C   UNL     1      -9.666  15.566  69.449  0.00  0.00    +0.097 C 
BRANCH  17  18
ATOM     18  C   UNL     1     -10.074  16.747  68.593  0.00  0.00    +0.038 C 
BRANCH  18  19
ATOM     19  C   UNL     1      -8.609  17.297  67.994  0.00  0.00    +0.059 C 
ATOM     20  N   UNL     1      -9.052  18.823  68.049  0.00  0.00    -0.273 NA
ATOM     21  C   UNL     1      -9.940  19.056  69.052  0.00  0.00    +0.090 C 
ATOM     22  C   UNL     1      -8.979  19.424  66.830  0.00  0.00    +0.072 C 
ATOM     23  C   UNL     1     -10.273  19.156  66.062  0.00  0.00    +0.017 C 
ATOM     24  C   UNL     1     -10.494  17.673  66.357  0.00  0.00    +0.003 C 
ATOM     25  C   UNL     1      -9.120  17.079  66.416  0.00  0.00    +0.016 C 
ENDBRANCH  18  19
ENDBRANCH  17  18
ENDBRANCH   4  17
TORSDOF 4
ENDMDL
MODEL 2
REMARK VINA RESULT:      -6.8      2.727      7.153
REMARK  Name = 
REMARK  4 active torsions:
REMARK  status: ('A' for Active; 'I' for Inactive)
REMARK    1  A    between atoms: S_2  and  C_3
REMARK    2  A    between atoms: N_9  and  C_10
REMARK    3  A    between atoms: C_10  and  C_11
REMARK    4  A    between atoms: C_11  and  C_12
REMARK                            x       y       z     vdW  Elec       q    Type
REMARK                         _______ _______ _______ _____ _____    ______ ____
ROOT
ATOM      1  C   UNL     1     -12.385  14.578  70.960  0.00  0.00    +0.027 A 
ATOM      2  C   UNL     1     -12.271  13.511  70.096  0.00  0.00    +0.021 A 
ATOM      3  C   UNL     1     -11.519  13.705  68.944  0.00  0.00    +0.058 A 
ATOM      4  N   UNL     1     -11.674  12.758  67.895  0.00  0.00    -0.286 N 
ATOM      5  C   UNL     1     -11.445  13.042  66.530  0.00  0.00    +0.058 A 
ATOM      6  C   UNL     1     -11.074  14.272  66.036  0.00  0.00    +0.043 A 
ATOM      7  S   UNL     1     -10.146  15.309  67.171  0.00  0.00    -0.084 S 
ATOM      8  C   UNL     1     -11.588  14.728  64.853  0.00  0.00    +0.008 A 
ATOM      9  C   UNL     1     -12.188  13.832  63.978  0.00  0.00    +0.001 A 
ATOM     10  C   UNL     1     -12.259  12.494  64.320  0.00  0.00    +0.001 A 
ATOM     11  C   UNL     1     -11.814  12.101  65.577  0.00  0.00    +0.015 A 
ATOM     12  C   UNL     1     -10.647  14.765  68.809  0.00  0.00    +0.043 A 
ATOM     13  C   UNL     1     -10.528  15.636  69.846  0.00  0.00    +0.008 A 
ATOM     14  C   UNL     1     -11.300  15.446  70.987  0.00  0.00    +0.007 A 
ENDROOT
BRANCH   1  16
ATOM     15  C   UNL     1     -13.399  15.953  73.263  0.00  0.00    +0.074 C 
ATOM     16  S   UNL     1     -13.869  14.917  71.898  0.00  0.00    -0.113 S 
ENDBRANCH   1  16
BRANCH   4  17
ATOM     17  C   UNL     1     -11.753  11.338  68.244  0.00  0.00    +0.097 C 
BRANCH  17  18
ATOM     18  C   UNL     1     -10.312  10.885  68.359  0.00  0.00    +0.038 C 
BRANCH  18  19
ATOM     19  C   UNL     1     -10.458   9.230  68.572  0.00  0.00    +0.059 C 
ATOM     20  N   UNL     1      -8.910   9.038  68.881  0.00  0.00    -0.273 NA
ATOM     21  C   UNL     1      -8.372  10.139  69.472  0.00  0.00    +0.090 C 
ATOM     22  C   UNL     1      -8.317   8.170  68.018  0.00  0.00    +0.072 C 
ATOM     23  C   UNL     1      -7.894   8.926  66.758  0.00  0.00    +0.017 C 
ATOM     24  C   UNL     1      -9.124   9.797  66.505  0.00  0.00    +0.003 C 
ATOM     25  C   UNL     1     -10.289   8.957  66.931  0.00  0.00    +0.016 C 
ENDBRANCH  18  19
ENDBRANCH  17  18
ENDBRANCH   4  17
TORSDOF 4
ENDMDL
MODEL 3
REMARK VINA RESULT:      -6.6      1.898      2.831
REMARK  Name = 
REMARK  4 active torsions:
REMARK  status: ('A' for Active; 'I' for Inactive)
REMARK    1  A    between atoms: S_2  and  C_3
REMARK    2  A    between atoms: N_9  and  C_10
REMARK    3  A    between atoms: C_10  and  C_11
REMARK    4  A    between atoms: C_11  and  C_12
REMARK                            x       y       z     vdW  Elec       q    Type
REMARK                         _______ _______ _______ _____ _____    ______ ____
ROOT
ATOM      1  C   UNL     1     -11.539  13.219  66.061  0.00  0.00    +0.027 A 
ATOM      2  C   UNL     1     -11.128  14.115  67.024  0.00  0.00    +0.021 A 
ATOM      3  C   UNL     1     -11.224  13.710  68.350  0.00  0.00    +0.058 A 
ATOM      4  N   UNL     1     -11.141  14.719  69.349  0.00  0.00    -0.286 N 
ATOM      5  C   UNL     1     -11.722  14.613  70.632  0.00  0.00    +0.058 A 
ATOM      6  C   UNL     1     -12.467  13.542  71.070  0.00  0.00    +0.043 A 
ATOM      7  S   UNL     1     -12.070  11.965  70.309  0.00  0.00    -0.084 S 
ATOM      8  C   UNL     1     -13.572  13.739  71.853  0.00  0.00    +0.008 A 
ATOM      9  C   UNL     1     -13.742  14.956  72.502  0.00  0.00    +0.001 A 
ATOM     10  C   UNL     1     -12.792  15.948  72.341  0.00  0.00    +0.001 A 
ATOM     11  C   UNL     1     -11.744  15.733  71.454  0.00  0.00    +0.015 A 
ATOM     12  C   UNL     1     -11.389  12.386  68.700  0.00  0.00    +0.043 A 
ATOM     13  C   UNL     1     -11.452  11.461  67.706  0.00  0.00    +0.008 A 
ATOM     14  C   UNL     1     -11.376  11.877  66.382  0.00  0.00    +0.007 A 
ENDROOT
BRANCH   1  16
ATOM     15  C   UNL     1     -12.376  12.304  63.476  0.00  0.00    +0.074 C 
ATOM     16  S   UNL     1     -12.348  13.721  64.547  0.00  0.00    -0.113 S 
ENDBRANCH   1  16
BRANCH   4  17
ATOM     17  C   UNL     1     -10.142  15.777  69.189  0.00  0.00    +0.097 C 
BRANCH  17  18
ATOM     18  C   UNL     1      -8.812  15.053  69.148  0.00  0.00    +0.038 C 
BRANCH  18  19
ATOM     19  C   UNL     1      -7.978  15.872  67.949  0.00  0.00    +0.059 C 
ATOM     20  N   UNL     1      -7.003  14.650  67.660  0.00  0.00    -0.273 NA
ATOM     21  C   UNL     1      -7.605  13.455  67.903  0.00  0.00    +0.090 C 
ATOM     22  C   UNL     1      -5.694  14.984  67.826  0.00  0.00    +0.072 C 
ATOM     23  C   UNL     1      -5.323  14.833  69.301  0.00  0.00    +0.017 C 
ATOM     24  C   UNL     1      -6.538  15.460  69.982  0.00  0.00    +0.003 C 
ATOM     25  C   UNL     1      -6.959  16.576  69.074  0.00  0.00    +0.016 C 
ENDBRANCH  18  19
ENDBRANCH  17  18
ENDBRANCH   4  17
TORSDOF 4
ENDMDL
MODEL 4
REMARK VINA RESULT:      -6.6      2.758      5.618
REMARK  Name = 
REMARK  4 active torsions:
REMARK  status: ('A' for Active; 'I' for Inactive)
REMARK    1  A    between atoms: S_2  and  C_3
REMARK    2  A    between atoms: N_9  and  C_10
REMARK    3  A    between atoms: C_10  and  C_11
REMARK    4  A    between atoms: C_11  and  C_12
REMARK                            x       y       z     vdW  Elec       q    Type
REMARK                         _______ _______ _______ _____ _____    ______ ____
ROOT
ATOM      1  C   UNL     1      -6.599  15.719  67.301  0.00  0.00    +0.027 A 
ATOM      2  C   UNL     1      -7.519  14.703  67.441  0.00  0.00    +0.021 A 
ATOM      3  C   UNL     1      -8.849  15.069  67.612  0.00  0.00    +0.058 A 
ATOM      4  N   UNL     1      -9.743  14.077  68.099  0.00  0.00    -0.286 N 
ATOM      5  C   UNL     1     -10.927  14.360  68.816  0.00  0.00    +0.058 A 
ATOM      6  C   UNL     1     -11.351  15.621  69.164  0.00  0.00    +0.043 A 
ATOM      7  S   UNL     1     -10.821  16.941  68.067  0.00  0.00    -0.084 S 
ATOM      8  C   UNL     1     -11.933  15.848  70.382  0.00  0.00    +0.008 A 
ATOM      9  C   UNL     1     -12.423  14.774  71.115  0.00  0.00    +0.001 A 
ATOM     10  C   UNL     1     -12.311  13.495  70.601  0.00  0.00    +0.001 A 
ATOM     11  C   UNL     1     -11.619  13.311  69.409  0.00  0.00    +0.015 A 
ATOM     12  C   UNL     1      -9.301  16.340  67.321  0.00  0.00    +0.043 A 
ATOM     13  C   UNL     1      -8.407  17.248  66.849  0.00  0.00    +0.008 A 
ATOM     14  C   UNL     1      -7.074  16.879  66.700  0.00  0.00    +0.007 A 
ENDROOT
BRANCH   1  16
ATOM     15  C   UNL     1      -4.950  16.445  69.529  0.00  0.00    +0.074 C 
ATOM     16  S   UNL     1      -4.938  15.625  67.954  0.00  0.00    -0.113 S 
ENDBRANCH   1  16
BRANCH   4  17
ATOM     17  C   UNL     1      -9.632  12.718  67.566  0.00  0.00    +0.097 C 
BRANCH  17  18
ATOM     18  C   UNL     1     -10.047  12.834  66.114  0.00  0.00    +0.038 C 
BRANCH  18  19
ATOM     19  C   UNL     1     -11.401  11.851  66.033  0.00  0.00    +0.059 C 
ATOM     20  N   UNL     1     -11.174  11.504  64.498  0.00  0.00    -0.273 NA
ATOM     21  C   UNL     1      -9.855  11.520  64.166  0.00  0.00    +0.090 C 
ATOM     22  C   UNL     1     -12.241  11.851  63.729  0.00  0.00    +0.072 C 
ATOM     23  C   UNL     1     -12.118  13.323  63.336  0.00  0.00    +0.017 C 
ATOM     24  C   UNL     1     -11.680  13.950  64.658  0.00  0.00    +0.003 C 
ATOM     25  C   UNL     1     -12.391  13.162  65.716  0.00  0.00    +0.016 C 
ENDBRANCH  18  19
ENDBRANCH  17  18
ENDBRANCH   4  17
TORSDOF 4
ENDMDL
MODEL 5
REMARK VINA RESULT:      -6.5      2.521      5.294
REMARK  Name = 
REMARK  4 active torsions:
REMARK  status: ('A' for Active; 'I' for Inactive)
REMARK    1  A    between atoms: S_2  and  C_3
REMARK    2  A    between atoms: N_9  and  C_10
REMARK    3  A    between atoms: C_10  and  C_11
REMARK    4  A    between atoms: C_11  and  C_12
REMARK                            x       y       z     vdW  Elec       q    Type
REMARK                         _______ _______ _______ _____ _____    ______ ____
ROOT
ATOM      1  C   UNL     1     -12.686  14.429  71.582  0.00  0.00    +0.027 A 
ATOM      2  C   UNL     1     -12.223  13.925  70.386  0.00  0.00    +0.021 A 
ATOM      3  C   UNL     1     -12.151  12.543  70.265  0.00  0.00    +0.058 A 
ATOM      4  N   UNL     1     -11.366  12.020  69.200  0.00  0.00    -0.286 N 
ATOM      5  C   UNL     1     -10.752  10.748  69.220  0.00  0.00    +0.058 A 
ATOM      6  C   UNL     1     -10.803   9.867  70.276  0.00  0.00    +0.043 A 
ATOM      7  S   UNL     1     -12.263   9.996  71.315  0.00  0.00    -0.084 S 
ATOM      8  C   UNL     1      -9.705   9.125  70.615  0.00  0.00    +0.008 A 
ATOM      9  C   UNL     1      -8.669   8.981  69.701  0.00  0.00    +0.001 A 
ATOM     10  C   UNL     1      -8.764   9.595  68.466  0.00  0.00    +0.001 A 
ATOM     11  C   UNL     1      -9.852  10.422  68.212  0.00  0.00    +0.015 A 
ATOM     12  C   UNL     1     -12.812  11.697  71.131  0.00  0.00    +0.043 A 
ATOM     13  C   UNL     1     -13.557  12.249  72.125  0.00  0.00    +0.008 A 
ATOM     14  C   UNL     1     -13.607  13.633  72.252  0.00  0.00    +0.007 A 
ENDROOT
BRANCH   1  16
ATOM     15  C   UNL     1     -12.438  15.879  74.042  0.00  0.00    +0.074 C 
ATOM     16  S   UNL     1     -12.063  15.940  72.307  0.00  0.00    -0.113 S 
ENDBRANCH   1  16
BRANCH   4  17
ATOM     17  C   UNL     1     -11.456  12.663  67.888  0.00  0.00    +0.097 C 
BRANCH  17  18
ATOM     18  C   UNL     1     -10.450  13.794  67.941  0.00  0.00    +0.038 C 
BRANCH  18  19
ATOM     19  C   UNL     1     -10.050  14.011  66.328  0.00  0.00    +0.059 C 
ATOM     20  N   UNL     1      -8.694  14.768  66.669  0.00  0.00    -0.273 NA
ATOM     21  C   UNL     1      -8.158  14.342  67.845  0.00  0.00    +0.090 C 
ATOM     22  C   UNL     1      -8.649  16.015  66.125  0.00  0.00    +0.072 C 
ATOM     23  C   UNL     1      -9.345  16.997  67.066  0.00  0.00    +0.017 C 
ATOM     24  C   UNL     1     -10.585  16.200  67.467  0.00  0.00    +0.003 C 
ATOM     25  C   UNL     1     -10.955  15.416  66.245  0.00  0.00    +0.016 C 
ENDBRANCH  18  19
ENDBRANCH  17  18
ENDBRANCH   4  17
TORSDOF 4
ENDMDL
MODEL 6
REMARK VINA RESULT:      -6.4      3.151      5.976
REMARK  Name = 
REMARK  4 active torsions:
REMARK  status: ('A' for Active; 'I' for Inactive)
REMARK    1  A    between atoms: S_2  and  C_3
REMARK    2  A    between atoms: N_9  and  C_10
REMARK    3  A    between atoms: C_10  and  C_11
REMARK    4  A    between atoms: C_11  and  C_12
REMARK                            x       y       z     vdW  Elec       q    Type
REMARK                         _______ _______ _______ _____ _____    ______ ____
ROOT
ATOM      1  C   UNL     1     -12.232  14.518  71.139  0.00  0.00    +0.027 A 
ATOM      2  C   UNL     1     -11.526  14.396  69.962  0.00  0.00    +0.021 A 
ATOM      3  C   UNL     1     -11.235  13.109  69.527  0.00  0.00    +0.058 A 
ATOM      4  N   UNL     1     -10.231  12.967  68.530  0.00  0.00    -0.286 N 
ATOM      5  C   UNL     1      -9.447  11.806  68.355  0.00  0.00    +0.058 A 
ATOM      6  C   UNL     1      -9.527  10.678  69.140  0.00  0.00    +0.043 A 
ATOM      7  S   UNL     1     -11.129  10.379  69.895  0.00  0.00    -0.084 S 
ATOM      8  C   UNL     1      -8.396   9.990  69.486  0.00  0.00    +0.008 A 
ATOM      9  C   UNL     1      -7.224  10.199  68.770  0.00  0.00    +0.001 A 
ATOM     10  C   UNL     1      -7.220  11.102  67.723  0.00  0.00    +0.001 A 
ATOM     11  C   UNL     1      -8.367  11.850  67.480  0.00  0.00    +0.015 A 
ATOM     12  C   UNL     1     -11.888  12.002  70.028  0.00  0.00    +0.043 A 
ATOM     13  C   UNL     1     -12.847  12.194  70.973  0.00  0.00    +0.008 A 
ATOM     14  C   UNL     1     -13.117  13.484  71.417  0.00  0.00    +0.007 A 
ENDROOT
BRANCH   1  16
ATOM     15  C   UNL     1     -12.384  15.218  73.915  0.00  0.00    +0.074 C 
ATOM     16  S   UNL     1     -11.955  15.842  72.308  0.00  0.00    -0.113 S 
ENDBRANCH   1  16
BRANCH   4  17
ATOM     17  C   UNL     1     -10.215  13.919  67.418  0.00  0.00    +0.097 C 
BRANCH  17  18
ATOM     18  C   UNL     1     -11.246  13.393  66.441  0.00  0.00    +0.038 C 
BRANCH  18  19
ATOM     19  C   UNL     1     -10.809  14.133  65.004  0.00  0.00    +0.059 C 
ATOM     20  N   UNL     1     -12.258  13.970  64.369  0.00  0.00    -0.273 NA
ATOM     21  C   UNL     1     -13.231  13.994  65.319  0.00  0.00    +0.090 C 
ATOM     22  C   UNL     1     -12.234  13.268  63.204  0.00  0.00    +0.072 C 
ATOM     23  C   UNL     1     -12.287  11.774  63.518  0.00  0.00    +0.017 C 
ATOM     24  C   UNL     1     -11.303  11.678  64.684  0.00  0.00    +0.003 C 
ATOM     25  C   UNL     1     -10.240  12.689  64.379  0.00  0.00    +0.016 C 
ENDBRANCH  18  19
ENDBRANCH  17  18
ENDBRANCH   4  17
TORSDOF 4
ENDMDL
MODEL 7
REMARK VINA RESULT:      -6.4      2.460      5.318
REMARK  Name = 
REMARK  4 active torsions:
REMARK  status: ('A' for Active; 'I' for Inactive)
REMARK    1  A    between atoms: S_2  and  C_3
REMARK    2  A    between atoms: N_9  and  C_10
REMARK    3  A    between atoms: C_10  and  C_11
REMARK    4  A    between atoms: C_11  and  C_12
REMARK                            x       y       z     vdW  Elec       q    Type
REMARK                         _______ _______ _______ _____ _____    ______ ____
ROOT
ATOM      1  C   UNL     1      -7.705  15.814  68.660  0.00  0.00    +0.027 A 
ATOM      2  C   UNL     1      -8.330  14.626  68.348  0.00  0.00    +0.021 A 
ATOM      3  C   UNL     1      -9.696  14.544  68.591  0.00  0.00    +0.058 A 
ATOM      4  N   UNL     1     -10.281  13.248  68.609  0.00  0.00    -0.286 N 
ATOM      5  C   UNL     1     -11.451  12.917  69.327  0.00  0.00    +0.058 A 
ATOM      6  C   UNL     1     -12.157  13.789  70.124  0.00  0.00    +0.043 A 
ATOM      7  S   UNL     1     -12.043  15.520  69.659  0.00  0.00    -0.084 S 
ATOM      8  C   UNL     1     -12.701  13.364  71.306  0.00  0.00    +0.008 A 
ATOM      9  C   UNL     1     -12.860  12.003  71.535  0.00  0.00    +0.001 A 
ATOM     10  C   UNL     1     -12.462  11.101  70.565  0.00  0.00    +0.001 A 
ATOM     11  C   UNL     1     -11.821  11.581  69.429  0.00  0.00    +0.015 A 
ATOM     12  C   UNL     1     -10.469  15.666  68.804  0.00  0.00    +0.043 A 
ATOM     13  C   UNL     1      -9.863  16.882  68.766  0.00  0.00    +0.008 A 
ATOM     14  C   UNL     1      -8.492  16.953  68.543  0.00  0.00    +0.007 A 
ENDROOT
BRANCH   1  16
ATOM     15  C   UNL     1      -5.678  17.612  69.595  0.00  0.00    +0.074 C 
ATOM     16  S   UNL     1      -6.037  15.898  69.295  0.00  0.00    -0.113 S 
ENDBRANCH   1  16
BRANCH   4  17
ATOM     17  C   UNL     1      -9.865  12.283  67.590  0.00  0.00    +0.097 C 
BRANCH  17  18
ATOM     18  C   UNL     1     -10.962  12.324  66.545  0.00  0.00    +0.038 C 
BRANCH  18  19
ATOM     19  C   UNL     1     -10.318  13.328  65.369  0.00  0.00    +0.059 C 
ATOM     20  N   UNL     1     -11.746  13.815  64.869  0.00  0.00    -0.273 NA
ATOM     21  C   UNL     1     -12.662  13.813  65.874  0.00  0.00    +0.090 C 
ATOM     22  C   UNL     1     -11.945  13.556  63.548  0.00  0.00    +0.072 C 
ATOM     23  C   UNL     1     -12.461  12.126  63.390  0.00  0.00    +0.017 C 
ATOM     24  C   UNL     1     -11.554  11.372  64.361  0.00  0.00    +0.003 C 
ATOM     25  C   UNL     1     -10.229  12.066  64.275  0.00  0.00    +0.016 C 
ENDBRANCH  18  19
ENDBRANCH  17  18
ENDBRANCH   4  17
TORSDOF 4
ENDMDL
MODEL 8
REMARK VINA RESULT:      -6.3      3.992      8.311
REMARK  Name = 
REMARK  4 active torsions:
REMARK  status: ('A' for Active; 'I' for Inactive)
REMARK    1  A    between atoms: S_2  and  C_3
REMARK    2  A    between atoms: N_9  and  C_10
REMARK    3  A    between atoms: C_10  and  C_11
REMARK    4  A    between atoms: C_11  and  C_12
REMARK                            x       y       z     vdW  Elec       q    Type
REMARK                         _______ _______ _______ _____ _____    ______ ____
ROOT
ATOM      1  C   UNL     1     -12.169  10.859  70.577  0.00  0.00    +0.027 A 
ATOM      2  C   UNL     1     -11.290  10.579  69.553  0.00  0.00    +0.021 A 
ATOM      3  C   UNL     1     -11.151  11.536  68.555  0.00  0.00    +0.058 A 
ATOM      4  N   UNL     1     -10.535  11.130  67.340  0.00  0.00    -0.286 N 
ATOM      5  C   UNL     1     -10.773  11.739  66.088  0.00  0.00    +0.058 A 
ATOM      6  C   UNL     1     -11.649  12.778  65.875  0.00  0.00    +0.043 A 
ATOM      7  S   UNL     1     -11.919  13.859  67.284  0.00  0.00    -0.084 S 
ATOM      8  C   UNL     1     -12.415  12.820  64.741  0.00  0.00    +0.008 A 
ATOM      9  C   UNL     1     -12.063  12.033  63.651  0.00  0.00    +0.001 A 
ATOM     10  C   UNL     1     -10.949  11.220  63.733  0.00  0.00    +0.001 A 
ATOM     11  C   UNL     1     -10.267  11.138  64.942  0.00  0.00    +0.015 A 
ATOM     12  C   UNL     1     -11.585  12.835  68.722  0.00  0.00    +0.043 A 
ATOM     13  C   UNL     1     -12.158  13.174  69.907  0.00  0.00    +0.008 A 
ATOM     14  C   UNL     1     -12.311  12.205  70.892  0.00  0.00    +0.007 A 
ENDROOT
BRANCH   1  16
ATOM     15  C   UNL     1     -12.046   8.438  72.106  0.00  0.00    +0.074 C 
ATOM     16  S   UNL     1     -13.165   9.607  71.374  0.00  0.00    -0.113 S 
ENDBRANCH   1  16
BRANCH   4  17
ATOM     17  C   UNL     1      -9.355  10.265  67.413  0.00  0.00    +0.097 C 
BRANCH  17  18
ATOM     18  C   UNL     1      -9.854   8.893  67.010  0.00  0.00    +0.038 C 
BRANCH  18  19
ATOM     19  C   UNL     1      -8.967   7.870  67.996  0.00  0.00    +0.059 C 
ATOM     20  N   UNL     1      -8.637   6.861  66.813  0.00  0.00    -0.273 NA
ATOM     21  C   UNL     1      -8.568   7.495  65.612  0.00  0.00    +0.090 C 
ATOM     22  C   UNL     1      -9.071   5.598  67.077  0.00  0.00    +0.072 C 
ATOM     23  C   UNL     1     -10.538   5.478  66.667  0.00  0.00    +0.017 C 
ATOM     24  C   UNL     1     -11.108   6.790  67.205  0.00  0.00    +0.003 C 
ATOM     25  C   UNL     1     -10.349   7.054  68.469  0.00  0.00    +0.016 C 
ENDBRANCH  18  19
ENDBRANCH  17  18
ENDBRANCH   4  17
TORSDOF 4
ENDMDL
MODEL 9
REMARK VINA RESULT:      -6.3      2.108      4.936
REMARK  Name = 
REMARK  4 active torsions:
REMARK  status: ('A' for Active; 'I' for Inactive)
REMARK    1  A    between atoms: S_2  and  C_3
REMARK    2  A    between atoms: N_9  and  C_10
REMARK    3  A    between atoms: C_10  and  C_11
REMARK    4  A    between atoms: C_11  and  C_12
REMARK                            x       y       z     vdW  Elec       q    Type
REMARK                         _______ _______ _______ _____ _____    ______ ____
ROOT
ATOM      1  C   UNL     1     -12.407  14.735  71.334  0.00  0.00    +0.027 A 
ATOM      2  C   UNL     1     -11.902  14.731  70.052  0.00  0.00    +0.021 A 
ATOM      3  C   UNL     1     -11.593  13.495  69.495  0.00  0.00    +0.058 A 
ATOM      4  N   UNL     1     -10.764  13.488  68.340  0.00  0.00    -0.286 N 
ATOM      5  C   UNL     1      -9.936  12.406  67.966  0.00  0.00    +0.058 A 
ATOM      6  C   UNL     1      -9.800  11.238  68.681  0.00  0.00    +0.043 A 
ATOM      7  S   UNL     1     -11.225  10.769  69.668  0.00  0.00    -0.084 S 
ATOM      8  C   UNL     1      -8.578  10.631  68.792  0.00  0.00    +0.008 A 
ATOM      9  C   UNL     1      -7.563  10.973  67.908  0.00  0.00    +0.001 A 
ATOM     10  C   UNL     1      -7.803  11.924  66.934  0.00  0.00    +0.001 A 
ATOM     11  C   UNL     1      -9.027  12.583  66.930  0.00  0.00    +0.015 A 
ATOM     12  C   UNL     1     -12.069  12.315  70.026  0.00  0.00    +0.043 A 
ATOM     13  C   UNL     1     -12.866  12.379  71.125  0.00  0.00    +0.008 A 
ATOM     14  C   UNL     1     -13.153  13.618  71.688  0.00  0.00    +0.007 A 
ENDROOT
BRANCH   1  16
ATOM     15  C   UNL     1     -12.465  15.386  74.125  0.00  0.00    +0.074 C 
ATOM     16  S   UNL     1     -12.035  16.018  72.522  0.00  0.00    -0.113 S 
ENDBRANCH   1  16
BRANCH   4  17
ATOM     17  C   UNL     1     -11.006  14.492  67.302  0.00  0.00    +0.097 C 
BRANCH  17  18
ATOM     18  C   UNL     1      -9.917  15.526  67.500  0.00  0.00    +0.038 C 
BRANCH  18  19
ATOM     19  C   UNL     1     -10.297  16.690  66.356  0.00  0.00    +0.059 C 
ATOM     20  N   UNL     1      -8.788  17.167  66.203  0.00  0.00    -0.273 NA
ATOM     21  C   UNL     1      -7.911  16.152  66.431  0.00  0.00    +0.090 C 
ATOM     22  C   UNL     1      -8.636  18.491  66.480  0.00  0.00    +0.072 C 
ATOM     23  C   UNL     1      -8.460  18.670  67.988  0.00  0.00    +0.017 C 
ATOM     24  C   UNL     1      -9.529  17.722  68.529  0.00  0.00    +0.003 C 
ATOM     25  C   UNL     1     -10.658  17.808  67.547  0.00  0.00    +0.016 C 
ENDBRANCH  18  19
ENDBRANCH  17  18
ENDBRANCH   4  17
TORSDOF 4
ENDMDL
