MODEL 1
REMARK VINA RESULT:      -8.2      0.000      0.000
REMARK  Name = 
REMARK  7 active torsions:
REMARK  status: ('A' for Active; 'I' for Inactive)
REMARK    1  A    between atoms: C_2  and  C_4
REMARK    2  A    between atoms: C_8  and  C_9
REMARK    3  A    between atoms: C_12  and  S_13
REMARK    4  A    between atoms: S_13  and  C_14
REMARK    5  A    between atoms: C_17  and  C_18
REMARK    6  A    between atoms: N_20  and  C_21
REMARK    7  A    between atoms: C_25  and  C_26
REMARK                            x       y       z     vdW  Elec       q    Type
REMARK                         _______ _______ _______ _____ _____    ______ ____
ROOT
ATOM      1  C   UNL     1      -9.896  17.341  66.803  0.00  0.00    +0.071 C 
ATOM      2  C   UNL     1      -8.368  17.329  66.347  0.00  0.00    +0.039 C 
ATOM      3  C   UNL     1      -8.240  18.485  67.527  0.00  0.00    +0.152 C 
ATOM      4  N   UNL     1      -8.939  19.524  66.564  0.00  0.00    -0.209 NA
ATOM      5  C   UNL     1     -10.086  18.745  66.096  0.00  0.00    +0.100 C 
ENDROOT
BRANCH   3   6
ATOM      6  C   UNL     1      -6.709  18.821  67.159  0.00  0.00    +0.261 C 
ATOM      7  N   UNL     1      -5.972  19.793  67.760  0.00  0.00    -0.178 NA
ATOM      8  O   UNL     1      -6.130  17.707  66.952  0.00  0.00    -0.271 OA
BRANCH   7   9
ATOM      9  C   UNL     1      -4.737  19.557  68.484  0.00  0.00    +0.074 A 
ATOM     10  C   UNL     1      -4.690  19.753  69.862  0.00  0.00    +0.023 A 
ATOM     11  C   UNL     1      -3.667  20.484  70.457  0.00  0.00    +0.081 A 
ATOM     12  C   UNL     1      -2.720  21.144  69.690  0.00  0.00    +0.007 A 
ATOM     13  C   UNL     1      -2.774  20.999  68.326  0.00  0.00    +0.002 A 
ATOM     14  C   UNL     1      -3.621  20.035  67.801  0.00  0.00    +0.017 A 
BRANCH  11  15
ATOM     15  C   UNL     1      -3.754  20.907  71.865  0.00  0.00    +0.388 C 
ATOM     16  O   UNL     1      -4.320  22.106  72.246  0.00  0.00    -0.241 OA
ATOM     17  O   UNL     1      -3.077  20.262  72.713  0.00  0.00    -0.241 OA
ENDBRANCH  11  15
ENDBRANCH   7   9
ENDBRANCH   3   6
BRANCH   1  18
ATOM     18  S   UNL     1     -10.573  16.156  65.467  0.00  0.00    -0.116 S 
BRANCH  18  23
ATOM     19  C   UNL     1     -10.580  11.936  68.711  0.00  0.00    +0.126 C 
ATOM     20  C   UNL     1     -11.598  13.109  68.080  0.00  0.00    +0.096 C 
ATOM     21  N   UNL     1     -11.226  12.481  66.714  0.00  0.00    -0.254 N 
ATOM     22  C   UNL     1     -11.590  13.628  65.954  0.00  0.00    +0.136 C 
ATOM     23  C   UNL     1     -10.993  14.706  66.409  0.00  0.00    +0.024 C 
ATOM     24  C   UNL     1     -10.484  14.382  67.882  0.00  0.00    +0.049 C 
ATOM     25  C   UNL     1      -9.217  13.517  67.353  0.00  0.00    +0.007 C 
ATOM     26  C   UNL     1     -10.589  11.351  67.244  0.00  0.00    +0.233 C 
ATOM     27  O   UNL     1      -9.996  10.441  66.675  0.00  0.00    -0.274 OA
BRANCH  19  29
ATOM     28  C   UNL     1     -11.067   9.872  69.882  0.00  0.00    +0.036 C 
ATOM     29  C   UNL     1     -11.962  10.994  69.083  0.00  0.00    +0.162 C 
ATOM     30  O   UNL     1     -12.229  11.780  70.344  0.00  0.00    -0.223 OA
ENDBRANCH  19  29
BRANCH  22  31
ATOM     31  C   UNL     1     -12.375  13.491  64.726  0.00  0.00    +0.401 C 
ATOM     32  O   UNL     1     -13.227  12.390  64.645  0.00  0.00    -0.239 OA
ATOM     33  O   UNL     1     -12.676  14.449  63.950  0.00  0.00    -0.239 OA
ENDBRANCH  22  31
ENDBRANCH  18  23
ENDBRANCH   1  18
TORSDOF 7
ENDMDL
MODEL 2
REMARK VINA RESULT:      -8.2      2.811      9.700
REMARK  Name = 
REMARK  7 active torsions:
REMARK  status: ('A' for Active; 'I' for Inactive)
REMARK    1  A    between atoms: C_2  and  C_4
REMARK    2  A    between atoms: C_8  and  C_9
REMARK    3  A    between atoms: C_12  and  S_13
REMARK    4  A    between atoms: S_13  and  C_14
REMARK    5  A    between atoms: C_17  and  C_18
REMARK    6  A    between atoms: N_20  and  C_21
REMARK    7  A    between atoms: C_25  and  C_26
REMARK                            x       y       z     vdW  Elec       q    Type
REMARK                         _______ _______ _______ _____ _____    ______ ____
ROOT
ATOM      1  C   UNL     1     -10.581  16.069  67.652  0.00  0.00    +0.071 C 
ATOM      2  C   UNL     1      -9.918  14.628  67.486  0.00  0.00    +0.039 C 
ATOM      3  C   UNL     1     -11.390  14.276  66.813  0.00  0.00    +0.152 C 
ATOM      4  N   UNL     1     -12.031  14.259  68.256  0.00  0.00    -0.209 NA
ATOM      5  C   UNL     1     -11.497  15.503  68.814  0.00  0.00    +0.100 C 
ENDROOT
BRANCH   3   6
ATOM      6  C   UNL     1     -11.059  12.705  66.687  0.00  0.00    +0.261 C 
ATOM      7  N   UNL     1     -10.454  11.970  67.658  0.00  0.00    -0.178 NA
ATOM      8  O   UNL     1     -12.047  12.169  66.092  0.00  0.00    -0.271 OA
BRANCH   7   9
ATOM      9  C   UNL     1     -11.047  10.809  68.297  0.00  0.00    +0.074 A 
ATOM     10  C   UNL     1     -12.069  10.974  69.227  0.00  0.00    +0.023 A 
ATOM     11  C   UNL     1     -12.042  10.327  70.459  0.00  0.00    +0.081 A 
ATOM     12  C   UNL     1     -10.939   9.586  70.853  0.00  0.00    +0.007 A 
ATOM     13  C   UNL     1      -9.901   9.446  69.967  0.00  0.00    +0.002 A 
ATOM     14  C   UNL     1     -10.095   9.858  68.657  0.00  0.00    +0.017 A 
BRANCH  11  15
ATOM     15  C   UNL     1     -12.979  10.697  71.534  0.00  0.00    +0.388 C 
ATOM     16  O   UNL     1     -13.211  12.006  71.897  0.00  0.00    -0.241 OA
ATOM     17  O   UNL     1     -13.391   9.776  72.293  0.00  0.00    -0.241 OA
ENDBRANCH  11  15
ENDBRANCH   7   9
ENDBRANCH   3   6
BRANCH   1  18
ATOM     18  S   UNL     1      -9.174  16.886  68.651  0.00  0.00    -0.116 S 
BRANCH  18  23
ATOM     19  C   UNL     1      -5.701  19.587  65.656  0.00  0.00    +0.126 C 
ATOM     20  C   UNL     1      -7.192  18.826  65.574  0.00  0.00    +0.096 C 
ATOM     21  N   UNL     1      -7.618  19.880  66.627  0.00  0.00    -0.254 N 
ATOM     22  C   UNL     1      -8.735  19.134  67.096  0.00  0.00    +0.136 C 
ATOM     23  C   UNL     1      -8.380  17.915  67.436  0.00  0.00    +0.024 C 
ATOM     24  C   UNL     1      -6.969  17.624  66.759  0.00  0.00    +0.049 C 
ATOM     25  C   UNL     1      -6.159  18.507  67.854  0.00  0.00    +0.007 C 
ATOM     26  C   UNL     1      -6.467  20.672  66.509  0.00  0.00    +0.233 C 
ATOM     27  O   UNL     1      -6.132  21.671  67.136  0.00  0.00    -0.274 OA
BRANCH  19  29
ATOM     28  C   UNL     1      -4.565  20.990  64.041  0.00  0.00    +0.036 C 
ATOM     29  C   UNL     1      -6.103  20.442  64.228  0.00  0.00    +0.162 C 
ATOM     30  O   UNL     1      -5.850  19.231  63.363  0.00  0.00    -0.223 OA
ENDBRANCH  19  29
BRANCH  22  31
ATOM     31  C   UNL     1     -10.026  19.785  67.320  0.00  0.00    +0.401 C 
ATOM     32  O   UNL     1     -10.972  19.673  66.301  0.00  0.00    -0.239 OA
ATOM     33  O   UNL     1     -10.511  20.055  68.461  0.00  0.00    -0.239 OA
ENDBRANCH  22  31
ENDBRANCH  18  23
ENDBRANCH   1  18
TORSDOF 7
ENDMDL
MODEL 3
REMARK VINA RESULT:      -8.1      2.569      8.719
REMARK  Name = 
REMARK  7 active torsions:
REMARK  status: ('A' for Active; 'I' for Inactive)
REMARK    1  A    between atoms: C_2  and  C_4
REMARK    2  A    between atoms: C_8  and  C_9
REMARK    3  A    between atoms: C_12  and  S_13
REMARK    4  A    between atoms: S_13  and  C_14
REMARK    5  A    between atoms: C_17  and  C_18
REMARK    6  A    between atoms: N_20  and  C_21
REMARK    7  A    between atoms: C_25  and  C_26
REMARK                            x       y       z     vdW  Elec       q    Type
REMARK                         _______ _______ _______ _____ _____    ______ ____
ROOT
ATOM      1  C   UNL     1      -9.547  14.499  65.858  0.00  0.00    +0.071 C 
ATOM      2  C   UNL     1     -10.488  13.895  66.995  0.00  0.00    +0.039 C 
ATOM      3  C   UNL     1      -9.665  12.506  66.624  0.00  0.00    +0.152 C 
ATOM      4  N   UNL     1     -10.510  12.378  65.295  0.00  0.00    -0.209 NA
ATOM      5  C   UNL     1     -10.400  13.737  64.762  0.00  0.00    +0.100 C 
ENDROOT
BRANCH   3   6
ATOM      6  C   UNL     1     -10.591  11.595  67.576  0.00  0.00    +0.261 C 
ATOM      7  N   UNL     1     -10.801  11.836  68.898  0.00  0.00    -0.178 NA
ATOM      8  O   UNL     1     -11.604  11.257  66.885  0.00  0.00    -0.271 OA
BRANCH   7   9
ATOM      9  C   UNL     1     -12.103  12.081  69.490  0.00  0.00    +0.074 A 
ATOM     10  C   UNL     1     -12.383  13.316  70.068  0.00  0.00    +0.023 A 
ATOM     11  C   UNL     1     -12.959  13.414  71.330  0.00  0.00    +0.081 A 
ATOM     12  C   UNL     1     -13.169  12.287  72.110  0.00  0.00    +0.007 A 
ATOM     13  C   UNL     1     -12.860  11.061  71.575  0.00  0.00    +0.002 A 
ATOM     14  C   UNL     1     -12.567  10.990  70.221  0.00  0.00    +0.017 A 
BRANCH  11  15
ATOM     15  C   UNL     1     -13.017  14.701  72.043  0.00  0.00    +0.388 C 
ATOM     16  O   UNL     1     -12.919  14.795  73.415  0.00  0.00    -0.241 OA
ATOM     17  O   UNL     1     -13.405  15.713  71.394  0.00  0.00    -0.241 OA
ENDBRANCH  11  15
ENDBRANCH   7   9
ENDBRANCH   3   6
BRANCH   1  18
ATOM     18  S   UNL     1     -10.320  16.243  65.785  0.00  0.00    -0.116 S 
BRANCH  18  23
ATOM     19  C   UNL     1      -6.159  18.636  68.084  0.00  0.00    +0.126 C 
ATOM     20  C   UNL     1      -7.806  18.821  67.834  0.00  0.00    +0.096 C 
ATOM     21  N   UNL     1      -7.922  17.503  68.639  0.00  0.00    -0.254 N 
ATOM     22  C   UNL     1      -9.217  17.177  68.146  0.00  0.00    +0.136 C 
ATOM     23  C   UNL     1      -9.240  17.193  66.832  0.00  0.00    +0.024 C 
ATOM     24  C   UNL     1      -7.964  18.011  66.345  0.00  0.00    +0.049 C 
ATOM     25  C   UNL     1      -6.950  16.777  66.628  0.00  0.00    +0.007 C 
ATOM     26  C   UNL     1      -6.589  17.481  69.071  0.00  0.00    +0.233 C 
ATOM     27  O   UNL     1      -5.987  16.636  69.724  0.00  0.00    -0.274 OA
BRANCH  19  29
ATOM     28  C   UNL     1      -4.642  19.760  69.603  0.00  0.00    +0.036 C 
ATOM     29  C   UNL     1      -6.269  19.761  69.372  0.00  0.00    +0.162 C 
ATOM     30  O   UNL     1      -6.204  20.937  68.427  0.00  0.00    -0.223 OA
ENDBRANCH  19  29
BRANCH  22  31
ATOM     31  C   UNL     1     -10.265  16.708  69.053  0.00  0.00    +0.401 C 
ATOM     32  O   UNL     1     -11.584  16.907  68.647  0.00  0.00    -0.239 OA
ATOM     33  O   UNL     1     -10.113  15.794  69.921  0.00  0.00    -0.239 OA
ENDBRANCH  22  31
ENDBRANCH  18  23
ENDBRANCH   1  18
TORSDOF 7
ENDMDL
MODEL 4
REMARK VINA RESULT:      -8.1      3.109      9.931
REMARK  Name = 
REMARK  7 active torsions:
REMARK  status: ('A' for Active; 'I' for Inactive)
REMARK    1  A    between atoms: C_2  and  C_4
REMARK    2  A    between atoms: C_8  and  C_9
REMARK    3  A    between atoms: C_12  and  S_13
REMARK    4  A    between atoms: S_13  and  C_14
REMARK    5  A    between atoms: C_17  and  C_18
REMARK    6  A    between atoms: N_20  and  C_21
REMARK    7  A    between atoms: C_25  and  C_26
REMARK                            x       y       z     vdW  Elec       q    Type
REMARK                         _______ _______ _______ _____ _____    ______ ____
ROOT
ATOM      1  C   UNL     1     -10.797  13.247  68.262  0.00  0.00    +0.071 C 
ATOM      2  C   UNL     1     -11.693  12.587  69.404  0.00  0.00    +0.039 C 
ATOM      3  C   UNL     1     -10.857  11.227  68.961  0.00  0.00    +0.152 C 
ATOM      4  N   UNL     1     -11.739  11.129  67.654  0.00  0.00    -0.209 NA
ATOM      5  C   UNL     1     -11.668  12.507  67.165  0.00  0.00    +0.100 C 
ENDROOT
BRANCH   3   6
ATOM      6  C   UNL     1     -11.738  10.267  69.908  0.00  0.00    +0.261 C 
ATOM      7  N   UNL     1     -11.349   9.031  70.319  0.00  0.00    -0.178 NA
ATOM      8  O   UNL     1     -12.288  11.016  70.777  0.00  0.00    -0.271 OA
BRANCH   7   9
ATOM      9  C   UNL     1     -11.188   8.642  71.709  0.00  0.00    +0.074 A 
ATOM     10  C   UNL     1      -9.932   8.698  72.306  0.00  0.00    +0.023 A 
ATOM     11  C   UNL     1      -9.430   7.632  73.044  0.00  0.00    +0.081 A 
ATOM     12  C   UNL     1     -10.112   6.427  73.116  0.00  0.00    +0.007 A 
ATOM     13  C   UNL     1     -11.334   6.336  72.498  0.00  0.00    +0.002 A 
ATOM     14  C   UNL     1     -11.922   7.502  72.029  0.00  0.00    +0.017 A 
BRANCH  11  15
ATOM     15  C   UNL     1      -8.015   7.587  73.453  0.00  0.00    +0.388 C 
ATOM     16  O   UNL     1      -7.302   8.721  73.780  0.00  0.00    -0.241 OA
ATOM     17  O   UNL     1      -7.386   6.510  73.266  0.00  0.00    -0.241 OA
ENDBRANCH  11  15
ENDBRANCH   7   9
ENDBRANCH   3   6
BRANCH   1  18
ATOM     18  S   UNL     1     -11.603  14.978  68.271  0.00  0.00    -0.116 S 
BRANCH  18  23
ATOM     19  C   UNL     1      -7.988  18.799  67.460  0.00  0.00    +0.126 C 
ATOM     20  C   UNL     1      -8.265  17.171  67.171  0.00  0.00    +0.096 C 
ATOM     21  N   UNL     1      -9.479  17.680  66.354  0.00  0.00    -0.254 N 
ATOM     22  C   UNL     1     -10.180  16.442  66.401  0.00  0.00    +0.136 C 
ATOM     23  C   UNL     1     -10.304  16.016  67.638  0.00  0.00    +0.024 C 
ATOM     24  C   UNL     1      -9.235  16.800  68.520  0.00  0.00    +0.049 C 
ATOM     25  C   UNL     1     -10.127  18.155  68.561  0.00  0.00    +0.007 C 
ATOM     26  C   UNL     1      -9.109  19.032  66.373  0.00  0.00    +0.233 C 
ATOM     27  O   UNL     1      -9.697  20.015  65.937  0.00  0.00    -0.274 OA
BRANCH  19  29
ATOM     28  C   UNL     1      -6.353  20.326  66.529  0.00  0.00    +0.036 C 
ATOM     29  C   UNL     1      -6.806  18.777  66.219  0.00  0.00    +0.162 C 
ATOM     30  O   UNL     1      -5.759  18.212  67.148  0.00  0.00    -0.223 OA
ENDBRANCH  19  29
BRANCH  22  31
ATOM     31  C   UNL     1     -10.812  15.896  65.200  0.00  0.00    +0.401 C 
ATOM     32  O   UNL     1     -11.286  16.816  64.265  0.00  0.00    -0.239 OA
ATOM     33  O   UNL     1     -10.596  14.735  64.734  0.00  0.00    -0.239 OA
ENDBRANCH  22  31
ENDBRANCH  18  23
ENDBRANCH   1  18
TORSDOF 7
ENDMDL
MODEL 5
REMARK VINA RESULT:      -8.0      2.938      9.436
REMARK  Name = 
REMARK  7 active torsions:
REMARK  status: ('A' for Active; 'I' for Inactive)
REMARK    1  A    between atoms: C_2  and  C_4
REMARK    2  A    between atoms: C_8  and  C_9
REMARK    3  A    between atoms: C_12  and  S_13
REMARK    4  A    between atoms: S_13  and  C_14
REMARK    5  A    between atoms: C_17  and  C_18
REMARK    6  A    between atoms: N_20  and  C_21
REMARK    7  A    between atoms: C_25  and  C_26
REMARK                            x       y       z     vdW  Elec       q    Type
REMARK                         _______ _______ _______ _____ _____    ______ ____
ROOT
ATOM      1  C   UNL     1      -8.805  15.116  66.852  0.00  0.00    +0.071 C 
ATOM      2  C   UNL     1      -9.500  14.169  67.931  0.00  0.00    +0.039 C 
ATOM      3  C   UNL     1      -9.624  13.152  66.630  0.00  0.00    +0.152 C 
ATOM      4  N   UNL     1     -10.798  14.044  66.063  0.00  0.00    -0.209 NA
ATOM      5  C   UNL     1     -10.219  15.382  66.190  0.00  0.00    +0.100 C 
ENDROOT
BRANCH   3   6
ATOM      6  C   UNL     1     -10.514  12.081  67.437  0.00  0.00    +0.261 C 
ATOM      7  N   UNL     1     -10.742  12.129  68.777  0.00  0.00    -0.178 NA
ATOM      8  O   UNL     1     -11.508  11.797  66.695  0.00  0.00    -0.271 OA
BRANCH   7   9
ATOM      9  C   UNL     1     -12.058  12.234  69.382  0.00  0.00    +0.074 A 
ATOM     10  C   UNL     1     -12.436  13.410  70.023  0.00  0.00    +0.023 A 
ATOM     11  C   UNL     1     -13.012  13.395  71.289  0.00  0.00    +0.081 A 
ATOM     12  C   UNL     1     -13.125  12.216  72.009  0.00  0.00    +0.007 A 
ATOM     13  C   UNL     1     -12.718  11.049  71.411  0.00  0.00    +0.002 A 
ATOM     14  C   UNL     1     -12.427  11.073  70.055  0.00  0.00    +0.017 A 
BRANCH  11  15
ATOM     15  C   UNL     1     -13.173  14.635  72.068  0.00  0.00    +0.388 C 
ATOM     16  O   UNL     1     -13.120  14.657  73.445  0.00  0.00    -0.241 OA
ATOM     17  O   UNL     1     -13.607  15.654  71.463  0.00  0.00    -0.241 OA
ENDBRANCH  11  15
ENDBRANCH   7   9
ENDBRANCH   3   6
BRANCH   1  18
ATOM     18  S   UNL     1      -8.611  16.663  67.952  0.00  0.00    -0.116 S 
BRANCH  18  23
ATOM     19  C   UNL     1      -5.136  19.862  65.498  0.00  0.00    +0.126 C 
ATOM     20  C   UNL     1      -6.484  18.912  65.198  0.00  0.00    +0.096 C 
ATOM     21  N   UNL     1      -7.194  19.878  66.179  0.00  0.00    -0.254 N 
ATOM     22  C   UNL     1      -8.257  18.981  66.480  0.00  0.00    +0.136 C 
ATOM     23  C   UNL     1      -7.795  17.813  66.867  0.00  0.00    +0.024 C 
ATOM     24  C   UNL     1      -6.275  17.727  66.402  0.00  0.00    +0.049 C 
ATOM     25  C   UNL     1      -5.757  18.686  67.604  0.00  0.00    +0.007 C 
ATOM     26  C   UNL     1      -6.156  20.819  66.232  0.00  0.00    +0.233 C 
ATOM     27  O   UNL     1      -6.052  21.840  66.901  0.00  0.00    -0.274 OA
BRANCH  19  29
ATOM     28  C   UNL     1      -3.987  21.455  64.079  0.00  0.00    +0.036 C 
ATOM     29  C   UNL     1      -5.439  20.686  64.027  0.00  0.00    +0.162 C 
ATOM     30  O   UNL     1      -4.883  19.546  63.208  0.00  0.00    -0.223 OA
ENDBRANCH  19  29
BRANCH  22  31
ATOM     31  C   UNL     1      -9.643  19.450  66.513  0.00  0.00    +0.401 C 
ATOM     32  O   UNL     1     -10.524  18.875  65.598  0.00  0.00    -0.239 OA
ATOM     33  O   UNL     1     -10.202  19.979  67.523  0.00  0.00    -0.239 OA
ENDBRANCH  22  31
ENDBRANCH  18  23
ENDBRANCH   1  18
TORSDOF 7
ENDMDL
MODEL 6
REMARK VINA RESULT:      -8.0      3.189      9.971
REMARK  Name = 
REMARK  7 active torsions:
REMARK  status: ('A' for Active; 'I' for Inactive)
REMARK    1  A    between atoms: C_2  and  C_4
REMARK    2  A    between atoms: C_8  and  C_9
REMARK    3  A    between atoms: C_12  and  S_13
REMARK    4  A    between atoms: S_13  and  C_14
REMARK    5  A    between atoms: C_17  and  C_18
REMARK    6  A    between atoms: N_20  and  C_21
REMARK    7  A    between atoms: C_25  and  C_26
REMARK                            x       y       z     vdW  Elec       q    Type
REMARK                         _______ _______ _______ _____ _____    ______ ____
ROOT
ATOM      1  C   UNL     1     -10.462  12.969  67.236  0.00  0.00    +0.071 C 
ATOM      2  C   UNL     1      -9.857  12.274  68.537  0.00  0.00    +0.039 C 
ATOM      3  C   UNL     1      -9.528  11.058  67.462  0.00  0.00    +0.152 C 
ATOM      4  N   UNL     1     -11.056  10.659  67.467  0.00  0.00    -0.209 NA
ATOM      5  C   UNL     1     -11.687  11.967  67.282  0.00  0.00    +0.100 C 
ENDROOT
BRANCH   3   6
ATOM      6  C   UNL     1      -9.022  10.053  68.613  0.00  0.00    +0.261 C 
ATOM      7  N   UNL     1      -9.598   9.941  69.840  0.00  0.00    -0.178 NA
ATOM      8  O   UNL     1      -8.689   8.970  68.033  0.00  0.00    -0.271 OA
BRANCH   7   9
ATOM      9  C   UNL     1     -10.173   8.716  70.367  0.00  0.00    +0.074 A 
ATOM     10  C   UNL     1     -11.555   8.584  70.468  0.00  0.00    +0.023 A 
ATOM     11  C   UNL     1     -12.158   8.127  71.635  0.00  0.00    +0.081 A 
ATOM     12  C   UNL     1     -11.414   7.897  72.782  0.00  0.00    +0.007 A 
ATOM     13  C   UNL     1     -10.053   8.063  72.716  0.00  0.00    +0.002 A 
ATOM     14  C   UNL     1      -9.471   8.232  71.469  0.00  0.00    +0.017 A 
BRANCH  11  15
ATOM     15  C   UNL     1     -13.614   8.231  71.831  0.00  0.00    +0.388 C 
ATOM     16  O   UNL     1     -14.182   9.126  72.713  0.00  0.00    -0.241 OA
ATOM     17  O   UNL     1     -14.336   7.313  71.353  0.00  0.00    -0.241 OA
ENDBRANCH  11  15
ENDBRANCH   7   9
ENDBRANCH   3   6
BRANCH   1  18
ATOM     18  S   UNL     1     -11.206  14.507  68.087  0.00  0.00    -0.116 S 
BRANCH  18  23
ATOM     19  C   UNL     1      -8.289  18.932  67.591  0.00  0.00    +0.126 C 
ATOM     20  C   UNL     1      -8.353  17.337  67.078  0.00  0.00    +0.096 C 
ATOM     21  N   UNL     1      -9.706  17.755  66.447  0.00  0.00    -0.254 N 
ATOM     22  C   UNL     1     -10.210  16.427  66.358  0.00  0.00    +0.136 C 
ATOM     23  C   UNL     1     -10.143  15.817  67.521  0.00  0.00    +0.024 C 
ATOM     24  C   UNL     1      -9.116  16.630  68.425  0.00  0.00    +0.049 C 
ATOM     25  C   UNL     1     -10.188  17.807  68.746  0.00  0.00    +0.007 C 
ATOM     26  C   UNL     1      -9.537  19.133  66.646  0.00  0.00    +0.233 C 
ATOM     27  O   UNL     1     -10.304  20.061  66.415  0.00  0.00    -0.274 OA
BRANCH  19  29
ATOM     28  C   UNL     1      -6.859  20.751  66.874  0.00  0.00    +0.036 C 
ATOM     29  C   UNL     1      -7.250  19.273  66.273  0.00  0.00    +0.162 C 
ATOM     30  O   UNL     1      -6.076  18.610  66.952  0.00  0.00    -0.223 OA
ENDBRANCH  19  29
BRANCH  22  31
ATOM     31  C   UNL     1     -10.874  15.961  65.141  0.00  0.00    +0.401 C 
ATOM     32  O   UNL     1     -11.312  16.940  64.250  0.00  0.00    -0.239 OA
ATOM     33  O   UNL     1     -10.714  14.813  64.625  0.00  0.00    -0.239 OA
ENDBRANCH  22  31
ENDBRANCH  18  23
ENDBRANCH   1  18
TORSDOF 7
ENDMDL
MODEL 7
REMARK VINA RESULT:      -8.0      2.463      3.971
REMARK  Name = 
REMARK  7 active torsions:
REMARK  status: ('A' for Active; 'I' for Inactive)
REMARK    1  A    between atoms: C_2  and  C_4
REMARK    2  A    between atoms: C_8  and  C_9
REMARK    3  A    between atoms: C_12  and  S_13
REMARK    4  A    between atoms: S_13  and  C_14
REMARK    5  A    between atoms: C_17  and  C_18
REMARK    6  A    between atoms: N_20  and  C_21
REMARK    7  A    between atoms: C_25  and  C_26
REMARK                            x       y       z     vdW  Elec       q    Type
REMARK                         _______ _______ _______ _____ _____    ______ ____
ROOT
ATOM      1  C   UNL     1     -10.017  17.510  66.962  0.00  0.00    +0.071 C 
ATOM      2  C   UNL     1      -8.448  17.583  66.685  0.00  0.00    +0.039 C 
ATOM      3  C   UNL     1      -8.525  18.766  67.842  0.00  0.00    +0.152 C 
ATOM      4  N   UNL     1      -9.165  19.743  66.779  0.00  0.00    -0.209 NA
ATOM      5  C   UNL     1     -10.204  18.888  66.202  0.00  0.00    +0.100 C 
ENDROOT
BRANCH   3   6
ATOM      6  C   UNL     1      -6.984  19.186  67.646  0.00  0.00    +0.261 C 
ATOM      7  N   UNL     1      -6.306  19.086  66.471  0.00  0.00    -0.178 NA
ATOM      8  O   UNL     1      -6.805  20.248  68.324  0.00  0.00    -0.271 OA
BRANCH   7   9
ATOM      9  C   UNL     1      -5.697  20.207  65.777  0.00  0.00    +0.074 A 
ATOM     10  C   UNL     1      -6.307  20.739  64.646  0.00  0.00    +0.023 A 
ATOM     11  C   UNL     1      -5.589  20.985  63.480  0.00  0.00    +0.081 A 
ATOM     12  C   UNL     1      -4.262  20.601  63.364  0.00  0.00    +0.007 A 
ATOM     13  C   UNL     1      -3.652  20.035  64.455  0.00  0.00    +0.002 A 
ATOM     14  C   UNL     1      -4.314  20.078  65.673  0.00  0.00    +0.017 A 
BRANCH  11  15
ATOM     15  C   UNL     1      -6.274  21.300  62.215  0.00  0.00    +0.388 C 
ATOM     16  O   UNL     1      -7.222  22.296  62.113  0.00  0.00    -0.241 OA
ATOM     17  O   UNL     1      -6.158  20.475  61.266  0.00  0.00    -0.241 OA
ENDBRANCH  11  15
ENDBRANCH   7   9
ENDBRANCH   3   6
BRANCH   1  18
ATOM     18  S   UNL     1     -10.463  16.263  65.587  0.00  0.00    -0.116 S 
BRANCH  18  23
ATOM     19  C   UNL     1     -10.559  11.996  68.768  0.00  0.00    +0.126 C 
ATOM     20  C   UNL     1     -11.549  13.206  68.164  0.00  0.00    +0.096 C 
ATOM     21  N   UNL     1     -11.206  12.589  66.785  0.00  0.00    -0.254 N 
ATOM     22  C   UNL     1     -11.545  13.756  66.045  0.00  0.00    +0.136 C 
ATOM     23  C   UNL     1     -10.915  14.811  66.511  0.00  0.00    +0.024 C 
ATOM     24  C   UNL     1     -10.403  14.450  67.975  0.00  0.00    +0.049 C 
ATOM     25  C   UNL     1      -9.164  13.560  67.421  0.00  0.00    +0.007 C 
ATOM     26  C   UNL     1     -10.596  11.433  67.293  0.00  0.00    +0.233 C 
ATOM     27  O   UNL     1     -10.033  10.517  66.705  0.00  0.00    -0.274 OA
BRANCH  19  29
ATOM     28  C   UNL     1     -11.093   9.936  69.927  0.00  0.00    +0.036 C 
ATOM     29  C   UNL     1     -11.963  11.086  69.138  0.00  0.00    +0.162 C 
ATOM     30  O   UNL     1     -12.205  11.870  70.406  0.00  0.00    -0.223 OA
ENDBRANCH  19  29
BRANCH  22  31
ATOM     31  C   UNL     1     -12.344  13.659  64.823  0.00  0.00    +0.401 C 
ATOM     32  O   UNL     1     -13.115  12.508  64.666  0.00  0.00    -0.239 OA
ATOM     33  O   UNL     1     -12.730  14.650  64.131  0.00  0.00    -0.239 OA
ENDBRANCH  22  31
ENDBRANCH  18  23
ENDBRANCH   1  18
TORSDOF 7
ENDMDL
MODEL 8
REMARK VINA RESULT:      -8.0      3.503      9.154
REMARK  Name = 
REMARK  7 active torsions:
REMARK  status: ('A' for Active; 'I' for Inactive)
REMARK    1  A    between atoms: C_2  and  C_4
REMARK    2  A    between atoms: C_8  and  C_9
REMARK    3  A    between atoms: C_12  and  S_13
REMARK    4  A    between atoms: S_13  and  C_14
REMARK    5  A    between atoms: C_17  and  C_18
REMARK    6  A    between atoms: N_20  and  C_21
REMARK    7  A    between atoms: C_25  and  C_26
REMARK                            x       y       z     vdW  Elec       q    Type
REMARK                         _______ _______ _______ _____ _____    ______ ____
ROOT
ATOM      1  C   UNL     1      -9.306  11.247  65.664  0.00  0.00    +0.071 C 
ATOM      2  C   UNL     1     -10.321  10.701  66.766  0.00  0.00    +0.039 C 
ATOM      3  C   UNL     1      -9.074   9.654  67.072  0.00  0.00    +0.152 C 
ATOM      4  N   UNL     1      -9.441   8.857  65.759  0.00  0.00    -0.209 NA
ATOM      5  C   UNL     1      -9.568   9.950  64.794  0.00  0.00    +0.100 C 
ENDROOT
BRANCH   3   6
ATOM      6  C   UNL     1      -9.938   8.787  68.119  0.00  0.00    +0.261 C 
ATOM      7  N   UNL     1     -10.260   9.200  69.374  0.00  0.00    -0.178 NA
ATOM      8  O   UNL     1     -10.856   8.215  67.449  0.00  0.00    -0.271 OA
BRANCH   7   9
ATOM      9  C   UNL     1     -11.618   9.359  69.862  0.00  0.00    +0.074 A 
ATOM     10  C   UNL     1     -12.144  10.633  70.052  0.00  0.00    +0.023 A 
ATOM     11  C   UNL     1     -12.801  10.981  71.228  0.00  0.00    +0.081 A 
ATOM     12  C   UNL     1     -12.854  10.106  72.302  0.00  0.00    +0.007 A 
ATOM     13  C   UNL     1     -12.304   8.859  72.151  0.00  0.00    +0.002 A 
ATOM     14  C   UNL     1     -11.925   8.457  70.879  0.00  0.00    +0.017 A 
BRANCH  11  15
ATOM     15  C   UNL     1     -13.126  12.385  71.532  0.00  0.00    +0.388 C 
ATOM     16  O   UNL     1     -12.410  13.442  71.011  0.00  0.00    -0.241 OA
ATOM     17  O   UNL     1     -13.927  12.607  72.482  0.00  0.00    -0.241 OA
ENDBRANCH  11  15
ENDBRANCH   7   9
ENDBRANCH   3   6
BRANCH   1  18
ATOM     18  S   UNL     1     -10.482  12.499  64.830  0.00  0.00    -0.116 S 
BRANCH  18  23
ATOM     19  C   UNL     1      -8.681  16.445  67.915  0.00  0.00    +0.126 C 
ATOM     20  C   UNL     1      -8.690  15.924  66.322  0.00  0.00    +0.096 C 
ATOM     21  N   UNL     1     -10.227  16.082  66.439  0.00  0.00    -0.254 N 
ATOM     22  C   UNL     1     -10.518  15.220  65.345  0.00  0.00    +0.136 C 
ATOM     23  C   UNL     1      -9.925  14.055  65.490  0.00  0.00    +0.024 C 
ATOM     24  C   UNL     1      -8.770  14.242  66.569  0.00  0.00    +0.049 C 
ATOM     25  C   UNL     1      -9.807  14.226  67.817  0.00  0.00    +0.007 C 
ATOM     26  C   UNL     1     -10.209  16.757  67.667  0.00  0.00    +0.233 C 
ATOM     27  O   UNL     1     -11.138  17.133  68.373  0.00  0.00    -0.274 OA
BRANCH  19  29
ATOM     28  C   UNL     1      -8.009  18.563  68.883  0.00  0.00    +0.036 C 
ATOM     29  C   UNL     1      -8.281  18.015  67.357  0.00  0.00    +0.162 C 
ATOM     30  O   UNL     1      -6.833  17.639  67.160  0.00  0.00    -0.223 OA
ENDBRANCH  19  29
BRANCH  22  31
ATOM     31  C   UNL     1     -11.513  15.598  64.341  0.00  0.00    +0.401 C 
ATOM     32  O   UNL     1     -12.599  14.739  64.178  0.00  0.00    -0.239 OA
ATOM     33  O   UNL     1     -11.711  16.782  63.931  0.00  0.00    -0.239 OA
ENDBRANCH  22  31
ENDBRANCH  18  23
ENDBRANCH   1  18
TORSDOF 7
ENDMDL
MODEL 9
REMARK VINA RESULT:      -7.9      3.505      9.303
REMARK  Name = 
REMARK  7 active torsions:
REMARK  status: ('A' for Active; 'I' for Inactive)
REMARK    1  A    between atoms: C_2  and  C_4
REMARK    2  A    between atoms: C_8  and  C_9
REMARK    3  A    between atoms: C_12  and  S_13
REMARK    4  A    between atoms: S_13  and  C_14
REMARK    5  A    between atoms: C_17  and  C_18
REMARK    6  A    between atoms: N_20  and  C_21
REMARK    7  A    between atoms: C_25  and  C_26
REMARK                            x       y       z     vdW  Elec       q    Type
REMARK                         _______ _______ _______ _____ _____    ______ ____
ROOT
ATOM      1  C   UNL     1     -10.388  13.037  66.028  0.00  0.00    +0.071 C 
ATOM      2  C   UNL     1     -10.098  12.260  67.391  0.00  0.00    +0.039 C 
ATOM      3  C   UNL     1      -9.019  11.444  66.434  0.00  0.00    +0.152 C 
ATOM      4  N   UNL     1     -10.221  10.660  65.774  0.00  0.00    -0.209 NA
ATOM      5  C   UNL     1     -11.140  11.759  65.471  0.00  0.00    +0.100 C 
ENDROOT
BRANCH   3   6
ATOM      6  C   UNL     1      -8.658  10.383  67.590  0.00  0.00    +0.261 C 
ATOM      7  N   UNL     1      -9.129  10.448  68.864  0.00  0.00    -0.178 NA
ATOM      8  O   UNL     1      -8.641   9.236  67.042  0.00  0.00    -0.271 OA
BRANCH   7   9
ATOM      9  C   UNL     1      -9.923   9.412  69.499  0.00  0.00    +0.074 A 
ATOM     10  C   UNL     1     -11.215   9.692  69.932  0.00  0.00    +0.023 A 
ATOM     11  C   UNL     1     -11.649   9.336  71.205  0.00  0.00    +0.081 A 
ATOM     12  C   UNL     1     -10.774   8.791  72.132  0.00  0.00    +0.007 A 
ATOM     13  C   UNL     1      -9.482   8.546  71.739  0.00  0.00    +0.002 A 
ATOM     14  C   UNL     1      -9.177   8.643  70.389  0.00  0.00    +0.017 A 
BRANCH  11  15
ATOM     15  C   UNL     1     -12.914   9.855  71.751  0.00  0.00    +0.388 C 
ATOM     16  O   UNL     1     -13.161  11.203  71.900  0.00  0.00    -0.241 OA
ATOM     17  O   UNL     1     -13.688   9.033  72.316  0.00  0.00    -0.241 OA
ENDBRANCH  11  15
ENDBRANCH   7   9
ENDBRANCH   3   6
BRANCH   1  18
ATOM     18  S   UNL     1     -11.855  14.094  66.642  0.00  0.00    -0.116 S 
BRANCH  18  23
ATOM     19  C   UNL     1      -8.669  18.350  66.897  0.00  0.00    +0.126 C 
ATOM     20  C   UNL     1     -10.266  17.891  67.112  0.00  0.00    +0.096 C 
ATOM     21  N   UNL     1      -9.694  16.977  68.225  0.00  0.00    -0.254 N 
ATOM     22  C   UNL     1     -10.814  16.098  68.243  0.00  0.00    +0.136 C 
ATOM     23  C   UNL     1     -11.078  15.645  67.038  0.00  0.00    +0.024 C 
ATOM     24  C   UNL     1     -10.351  16.606  65.999  0.00  0.00    +0.049 C 
ATOM     25  C   UNL     1      -8.892  15.949  66.271  0.00  0.00    +0.007 C 
ATOM     26  C   UNL     1      -8.411  17.540  68.228  0.00  0.00    +0.233 C 
ATOM     27  O   UNL     1      -7.412  17.221  68.864  0.00  0.00    -0.274 OA
BRANCH  19  29
ATOM     28  C   UNL     1      -7.584  20.467  67.355  0.00  0.00    +0.036 C 
ATOM     29  C   UNL     1      -8.987  19.753  67.826  0.00  0.00    +0.162 C 
ATOM     30  O   UNL     1      -9.769  20.390  66.702  0.00  0.00    -0.223 OA
ENDBRANCH  19  29
BRANCH  22  31
ATOM     31  C   UNL     1     -11.402  15.664  69.511  0.00  0.00    +0.401 C 
ATOM     32  O   UNL     1     -10.514  15.335  70.535  0.00  0.00    -0.239 OA
ATOM     33  O   UNL     1     -12.573  15.957  69.902  0.00  0.00    -0.239 OA
ENDBRANCH  22  31
ENDBRANCH  18  23
ENDBRANCH   1  18
TORSDOF 7
ENDMDL
