MODEL 1
REMARK VINA RESULT:      -6.3      0.000      0.000
REMARK  Name = 
REMARK  3 active torsions:
REMARK  status: ('A' for Active; 'I' for Inactive)
REMARK    1  A    between atoms: C_5  and  N_6
REMARK    2  A    between atoms: C_9  and  S_10
REMARK    3  A    between atoms: S_10  and  C_11
REMARK                            x       y       z     vdW  Elec       q    Type
REMARK                         _______ _______ _______ _____ _____    ______ ____
ROOT
ATOM      1  S   UNL     1     -10.044  14.946  65.596  0.00  0.00    -0.041 S 
ENDROOT
BRANCH   1   2
ATOM      2  C   UNL     1     -10.610  16.058  66.887  0.00  0.00    +0.135 A 
ATOM      3  C   UNL     1     -10.535  17.436  66.750  0.00  0.00    +0.143 A 
ATOM      4  C   UNL     1     -10.171  18.194  67.856  0.00  0.00    +0.185 A 
ATOM      5  N   UNL     1      -9.923  19.437  67.410  0.00  0.00    -0.203 NA
ATOM      6  C   UNL     1     -10.280  19.462  66.105  0.00  0.00    +0.200 A 
ATOM      7  N   UNL     1     -10.453  17.634  69.058  0.00  0.00    -0.203 NA
ATOM      8  C   UNL     1     -11.018  16.405  69.136  0.00  0.00    +0.201 A 
ATOM      9  N   UNL     1     -10.472  18.199  65.654  0.00  0.00    -0.219 NA
ATOM     10  N   UNL     1     -11.053  15.568  68.071  0.00  0.00    -0.216 NA
ENDBRANCH   1   2
BRANCH   1  13
ATOM     11  C   UNL     1      -8.309  12.764  67.326  0.00  0.00    +0.133 C 
ATOM     12  N   UNL     1      -9.626  12.432  66.790  0.00  0.00    -0.297 N 
ATOM     13  C   UNL     1     -10.394  13.272  66.078  0.00  0.00    +0.184 A 
ATOM     14  C   UNL     1     -11.649  12.697  65.979  0.00  0.00    +0.400 A 
ATOM     15  N   UNL     1     -11.510  11.464  66.482  0.00  0.00    -0.158 NA
ATOM     16  C   UNL     1     -10.255  11.240  66.897  0.00  0.00    +0.185 A 
BRANCH  14  17
ATOM     17  N   UNL     1     -12.702  13.176  65.134  0.00  0.00    +0.103 N 
ATOM     18  O   UNL     1     -13.046  12.388  64.050  0.00  0.00    -0.575 OA
ATOM     19  O   UNL     1     -13.514  14.044  65.468  0.00  0.00    +0.043 OA
ENDBRANCH  14  17
ENDBRANCH   1  13
TORSDOF 3
ENDMDL
MODEL 2
REMARK VINA RESULT:      -6.2      2.451      5.755
REMARK  Name = 
REMARK  3 active torsions:
REMARK  status: ('A' for Active; 'I' for Inactive)
REMARK    1  A    between atoms: C_5  and  N_6
REMARK    2  A    between atoms: C_9  and  S_10
REMARK    3  A    between atoms: S_10  and  C_11
REMARK                            x       y       z     vdW  Elec       q    Type
REMARK                         _______ _______ _______ _____ _____    ______ ____
ROOT
ATOM      1  S   UNL     1     -11.621  14.452  66.932  0.00  0.00    -0.041 S 
ENDROOT
BRANCH   1   2
ATOM      2  C   UNL     1     -11.833  13.205  65.657  0.00  0.00    +0.135 A 
ATOM      3  C   UNL     1     -11.304  11.931  65.785  0.00  0.00    +0.143 A 
ATOM      4  C   UNL     1     -10.749  11.327  64.663  0.00  0.00    +0.185 A 
ATOM      5  N   UNL     1     -10.089  10.239  65.094  0.00  0.00    -0.203 NA
ATOM      6  C   UNL     1     -10.372  10.108  66.412  0.00  0.00    +0.200 A 
ATOM      7  N   UNL     1     -11.242  11.754  63.474  0.00  0.00    -0.203 NA
ATOM      8  C   UNL     1     -12.184  12.727  63.422  0.00  0.00    +0.201 A 
ATOM      9  N   UNL     1     -10.953  11.240  66.874  0.00  0.00    -0.219 NA
ATOM     10  N   UNL     1     -12.456  13.513  64.492  0.00  0.00    -0.216 NA
ENDBRANCH   1   2
BRANCH   1  13
ATOM     11  C   UNL     1      -8.675  13.587  68.088  0.00  0.00    +0.133 C 
ATOM     12  N   UNL     1      -8.846  14.781  67.266  0.00  0.00    -0.297 N 
ATOM     13  C   UNL     1     -10.017  15.195  66.755  0.00  0.00    +0.184 A 
ATOM     14  C   UNL     1      -9.736  16.191  65.837  0.00  0.00    +0.400 A 
ATOM     15  N   UNL     1      -8.428  16.441  65.981  0.00  0.00    -0.158 NA
ATOM     16  C   UNL     1      -7.878  15.659  66.921  0.00  0.00    +0.185 A 
BRANCH  14  17
ATOM     17  N   UNL     1     -10.716  17.031  65.217  0.00  0.00    +0.103 N 
ATOM     18  O   UNL     1     -10.697  18.373  65.552  0.00  0.00    -0.575 OA
ATOM     19  O   UNL     1     -11.346  16.722  64.201  0.00  0.00    +0.043 OA
ENDBRANCH  14  17
ENDBRANCH   1  13
TORSDOF 3
ENDMDL
MODEL 3
REMARK VINA RESULT:      -6.1      1.959      2.335
REMARK  Name = 
REMARK  3 active torsions:
REMARK  status: ('A' for Active; 'I' for Inactive)
REMARK    1  A    between atoms: C_5  and  N_6
REMARK    2  A    between atoms: C_9  and  S_10
REMARK    3  A    between atoms: S_10  and  C_11
REMARK                            x       y       z     vdW  Elec       q    Type
REMARK                         _______ _______ _______ _____ _____    ______ ____
ROOT
ATOM      1  S   UNL     1     -11.648  15.436  68.131  0.00  0.00    -0.041 S 
ENDROOT
BRANCH   1   2
ATOM      2  C   UNL     1     -10.102  16.224  67.665  0.00  0.00    +0.135 A 
ATOM      3  C   UNL     1     -10.037  17.569  67.336  0.00  0.00    +0.143 A 
ATOM      4  C   UNL     1      -9.215  17.956  66.286  0.00  0.00    +0.185 A 
ATOM      5  N   UNL     1      -9.520  19.233  66.003  0.00  0.00    -0.203 NA
ATOM      6  C   UNL     1     -10.386  19.647  66.958  0.00  0.00    +0.200 A 
ATOM      7  N   UNL     1      -8.164  17.133  66.042  0.00  0.00    -0.203 NA
ATOM      8  C   UNL     1      -7.982  16.005  66.769  0.00  0.00    +0.201 A 
ATOM      9  N   UNL     1     -10.848  18.582  67.656  0.00  0.00    -0.219 NA
ATOM     10  N   UNL     1      -8.966  15.492  67.547  0.00  0.00    -0.216 NA
ENDBRANCH   1   2
BRANCH   1  13
ATOM     11  C   UNL     1     -11.701  12.495  69.584  0.00  0.00    +0.133 C 
ATOM     12  N   UNL     1     -11.698  12.621  68.130  0.00  0.00    -0.297 N 
ATOM     13  C   UNL     1     -11.681  13.789  67.465  0.00  0.00    +0.184 A 
ATOM     14  C   UNL     1     -11.946  13.509  66.137  0.00  0.00    +0.400 A 
ATOM     15  N   UNL     1     -11.929  12.172  66.050  0.00  0.00    -0.158 NA
ATOM     16  C   UNL     1     -11.681  11.605  67.239  0.00  0.00    +0.185 A 
BRANCH  14  17
ATOM     17  N   UNL     1     -11.823  14.449  65.063  0.00  0.00    +0.103 N 
ATOM     18  O   UNL     1     -10.541  14.800  64.679  0.00  0.00    -0.575 OA
ATOM     19  O   UNL     1     -12.731  14.714  64.271  0.00  0.00    +0.043 OA
ENDBRANCH  14  17
ENDBRANCH   1  13
TORSDOF 3
ENDMDL
MODEL 4
REMARK VINA RESULT:      -6.0      3.145      4.065
REMARK  Name = 
REMARK  3 active torsions:
REMARK  status: ('A' for Active; 'I' for Inactive)
REMARK    1  A    between atoms: C_5  and  N_6
REMARK    2  A    between atoms: C_9  and  S_10
REMARK    3  A    between atoms: S_10  and  C_11
REMARK                            x       y       z     vdW  Elec       q    Type
REMARK                         _______ _______ _______ _____ _____    ______ ____
ROOT
ATOM      1  S   UNL     1     -10.131  13.236  66.767  0.00  0.00    -0.041 S 
ENDROOT
BRANCH   1   2
ATOM      2  C   UNL     1     -11.316  12.729  68.019  0.00  0.00    +0.135 A 
ATOM      3  C   UNL     1     -11.813  13.620  68.958  0.00  0.00    +0.143 A 
ATOM      4  C   UNL     1     -11.989  13.178  70.263  0.00  0.00    +0.185 A 
ATOM      5  N   UNL     1     -12.225  14.268  71.013  0.00  0.00    -0.203 NA
ATOM      6  C   UNL     1     -12.344  15.311  70.158  0.00  0.00    +0.200 A 
ATOM      7  N   UNL     1     -12.194  11.845  70.399  0.00  0.00    -0.203 NA
ATOM      8  C   UNL     1     -12.188  11.028  69.318  0.00  0.00    +0.201 A 
ATOM      9  N   UNL     1     -11.905  14.953  68.928  0.00  0.00    -0.219 NA
ATOM     10  N   UNL     1     -11.692  11.431  68.123  0.00  0.00    -0.216 NA
ENDBRANCH   1   2
BRANCH   1  13
ATOM     11  C   UNL     1      -8.910  10.706  65.074  0.00  0.00    +0.133 C 
ATOM     12  N   UNL     1     -10.040  11.479  64.570  0.00  0.00    -0.297 N 
ATOM     13  C   UNL     1     -10.596  12.523  65.208  0.00  0.00    +0.184 A 
ATOM     14  C   UNL     1     -11.780  12.819  64.557  0.00  0.00    +0.400 A 
ATOM     15  N   UNL     1     -11.778  12.052  63.459  0.00  0.00    -0.158 NA
ATOM     16  C   UNL     1     -10.675  11.292  63.391  0.00  0.00    +0.185 A 
BRANCH  14  17
ATOM     17  N   UNL     1     -12.575  13.985  64.798  0.00  0.00    +0.103 N 
ATOM     18  O   UNL     1     -12.486  15.010  63.873  0.00  0.00    -0.575 OA
ATOM     19  O   UNL     1     -13.541  14.015  65.567  0.00  0.00    +0.043 OA
ENDBRANCH  14  17
ENDBRANCH   1  13
TORSDOF 3
ENDMDL
MODEL 5
REMARK VINA RESULT:      -5.9      2.024      2.779
REMARK  Name = 
REMARK  3 active torsions:
REMARK  status: ('A' for Active; 'I' for Inactive)
REMARK    1  A    between atoms: C_5  and  N_6
REMARK    2  A    between atoms: C_9  and  S_10
REMARK    3  A    between atoms: S_10  and  C_11
REMARK                            x       y       z     vdW  Elec       q    Type
REMARK                         _______ _______ _______ _____ _____    ______ ____
ROOT
ATOM      1  S   UNL     1      -9.113  15.933  65.866  0.00  0.00    -0.041 S 
ENDROOT
BRANCH   1   2
ATOM      2  C   UNL     1      -9.290  17.647  66.374  0.00  0.00    +0.135 A 
ATOM      3  C   UNL     1      -8.389  18.251  67.237  0.00  0.00    +0.143 A 
ATOM      4  C   UNL     1      -8.878  19.118  68.206  0.00  0.00    +0.185 A 
ATOM      5  N   UNL     1      -7.866  19.359  69.057  0.00  0.00    -0.203 NA
ATOM      6  C   UNL     1      -6.763  18.781  68.526  0.00  0.00    +0.200 A 
ATOM      7  N   UNL     1     -10.052  19.723  67.900  0.00  0.00    -0.203 NA
ATOM      8  C   UNL     1     -10.692  19.449  66.738  0.00  0.00    +0.201 A 
ATOM      9  N   UNL     1      -7.118  17.946  67.520  0.00  0.00    -0.219 NA
ATOM     10  N   UNL     1     -10.367  18.372  65.982  0.00  0.00    -0.216 NA
ENDBRANCH   1   2
BRANCH   1  13
ATOM     11  C   UNL     1      -9.691  14.626  68.819  0.00  0.00    +0.133 C 
ATOM     12  N   UNL     1     -10.651  14.487  67.728  0.00  0.00    -0.297 N 
ATOM     13  C   UNL     1     -10.485  14.998  66.497  0.00  0.00    +0.184 A 
ATOM     14  C   UNL     1     -11.698  14.885  65.840  0.00  0.00    +0.400 A 
ATOM     15  N   UNL     1     -12.470  14.152  66.652  0.00  0.00    -0.158 NA
ATOM     16  C   UNL     1     -11.820  13.811  67.774  0.00  0.00    +0.185 A 
BRANCH  14  17
ATOM     17  N   UNL     1     -11.895  15.129  64.442  0.00  0.00    +0.103 N 
ATOM     18  O   UNL     1     -12.474  14.114  63.702  0.00  0.00    -0.575 OA
ATOM     19  O   UNL     1     -11.886  16.253  63.930  0.00  0.00    +0.043 OA
ENDBRANCH  14  17
ENDBRANCH   1  13
TORSDOF 3
ENDMDL
MODEL 6
REMARK VINA RESULT:      -5.9      2.661      4.002
REMARK  Name = 
REMARK  3 active torsions:
REMARK  status: ('A' for Active; 'I' for Inactive)
REMARK    1  A    between atoms: C_5  and  N_6
REMARK    2  A    between atoms: C_9  and  S_10
REMARK    3  A    between atoms: S_10  and  C_11
REMARK                            x       y       z     vdW  Elec       q    Type
REMARK                         _______ _______ _______ _____ _____    ______ ____
ROOT
ATOM      1  S   UNL     1     -11.818  12.032  68.751  0.00  0.00    -0.041 S 
ENDROOT
BRANCH   1   2
ATOM      2  C   UNL     1     -11.546  13.640  69.503  0.00  0.00    +0.135 A 
ATOM      3  C   UNL     1     -12.327  14.098  70.552  0.00  0.00    +0.143 A 
ATOM      4  C   UNL     1     -12.698  15.437  70.569  0.00  0.00    +0.185 A 
ATOM      5  N   UNL     1     -13.641  15.567  71.517  0.00  0.00    -0.203 NA
ATOM      6  C   UNL     1     -13.718  14.376  72.157  0.00  0.00    +0.200 A 
ATOM      7  N   UNL     1     -11.858  16.277  69.916  0.00  0.00    -0.203 NA
ATOM      8  C   UNL     1     -10.762  15.803  69.275  0.00  0.00    +0.201 A 
ATOM      9  N   UNL     1     -13.059  13.428  71.449  0.00  0.00    -0.219 NA
ATOM     10  N   UNL     1     -10.612  14.485  69.000  0.00  0.00    -0.216 NA
ENDBRANCH   1   2
BRANCH   1  13
ATOM     11  C   UNL     1      -8.853  10.670  68.410  0.00  0.00    +0.133 C 
ATOM     12  N   UNL     1      -9.535  11.291  67.279  0.00  0.00    -0.297 N 
ATOM     13  C   UNL     1     -10.749  11.863  67.342  0.00  0.00    +0.184 A 
ATOM     14  C   UNL     1     -11.160  12.097  66.041  0.00  0.00    +0.400 A 
ATOM     15  N   UNL     1     -10.094  11.817  65.281  0.00  0.00    -0.158 NA
ATOM     16  C   UNL     1      -9.052  11.414  66.023  0.00  0.00    +0.185 A 
BRANCH  14  17
ATOM     17  N   UNL     1     -12.307  12.872  65.674  0.00  0.00    +0.103 N 
ATOM     18  O   UNL     1     -12.298  14.212  66.019  0.00  0.00    -0.575 OA
ATOM     19  O   UNL     1     -13.131  12.525  64.823  0.00  0.00    +0.043 OA
ENDBRANCH  14  17
ENDBRANCH   1  13
TORSDOF 3
ENDMDL
MODEL 7
REMARK VINA RESULT:      -5.9      2.289      4.202
REMARK  Name = 
REMARK  3 active torsions:
REMARK  status: ('A' for Active; 'I' for Inactive)
REMARK    1  A    between atoms: C_5  and  N_6
REMARK    2  A    between atoms: C_9  and  S_10
REMARK    3  A    between atoms: S_10  and  C_11
REMARK                            x       y       z     vdW  Elec       q    Type
REMARK                         _______ _______ _______ _____ _____    ______ ____
ROOT
ATOM      1  S   UNL     1     -10.481  12.434  66.357  0.00  0.00    -0.041 S 
ENDROOT
BRANCH   1   2
ATOM      2  C   UNL     1     -11.507  12.256  67.821  0.00  0.00    +0.135 A 
ATOM      3  C   UNL     1     -11.821  13.337  68.630  0.00  0.00    +0.143 A 
ATOM      4  C   UNL     1     -11.838  13.153  70.007  0.00  0.00    +0.185 A 
ATOM      5  N   UNL     1     -11.908  14.375  70.561  0.00  0.00    -0.203 NA
ATOM      6  C   UNL     1     -12.088  15.253  69.547  0.00  0.00    +0.200 A 
ATOM      7  N   UNL     1     -12.094  11.886  70.417  0.00  0.00    -0.203 NA
ATOM      8  C   UNL     1     -12.281  10.890  69.518  0.00  0.00    +0.201 A 
ATOM      9  N   UNL     1     -11.844  14.646  68.361  0.00  0.00    -0.219 NA
ATOM     10  N   UNL     1     -11.935  11.031  68.215  0.00  0.00    -0.216 NA
ENDBRANCH   1   2
BRANCH   1  13
ATOM     11  C   UNL     1      -8.160  14.637  67.078  0.00  0.00    +0.133 C 
ATOM     12  N   UNL     1      -9.340  15.006  66.301  0.00  0.00    -0.297 N 
ATOM     13  C   UNL     1     -10.327  14.160  65.965  0.00  0.00    +0.184 A 
ATOM     14  C   UNL     1     -11.116  14.802  65.027  0.00  0.00    +0.400 A 
ATOM     15  N   UNL     1     -10.662  16.061  64.989  0.00  0.00    -0.158 NA
ATOM     16  C   UNL     1      -9.635  16.239  65.834  0.00  0.00    +0.185 A 
BRANCH  14  17
ATOM     17  N   UNL     1     -12.383  14.323  64.560  0.00  0.00    +0.103 N 
ATOM     18  O   UNL     1     -12.412  13.742  63.305  0.00  0.00    -0.575 OA
ATOM     19  O   UNL     1     -13.351  14.105  65.294  0.00  0.00    +0.043 OA
ENDBRANCH  14  17
ENDBRANCH   1  13
TORSDOF 3
ENDMDL
MODEL 8
REMARK VINA RESULT:      -5.9      2.278      3.416
REMARK  Name = 
REMARK  3 active torsions:
REMARK  status: ('A' for Active; 'I' for Inactive)
REMARK    1  A    between atoms: C_5  and  N_6
REMARK    2  A    between atoms: C_9  and  S_10
REMARK    3  A    between atoms: S_10  and  C_11
REMARK                            x       y       z     vdW  Elec       q    Type
REMARK                         _______ _______ _______ _____ _____    ______ ____
ROOT
ATOM      1  S   UNL     1     -11.149  11.926  67.280  0.00  0.00    -0.041 S 
ENDROOT
BRANCH   1   2
ATOM      2  C   UNL     1     -10.551  13.530  67.826  0.00  0.00    +0.135 A 
ATOM      3  C   UNL     1     -11.199  14.254  68.815  0.00  0.00    +0.143 A 
ATOM      4  C   UNL     1     -11.304  15.631  68.667  0.00  0.00    +0.185 A 
ATOM      5  N   UNL     1     -12.177  16.056  69.597  0.00  0.00    -0.203 NA
ATOM      6  C   UNL     1     -12.463  14.989  70.379  0.00  0.00    +0.200 A 
ATOM      7  N   UNL     1     -10.337  16.207  67.911  0.00  0.00    -0.203 NA
ATOM      8  C   UNL     1      -9.372  15.455  67.329  0.00  0.00    +0.201 A 
ATOM      9  N   UNL     1     -12.020  13.852  69.790  0.00  0.00    -0.219 NA
ATOM     10  N   UNL     1      -9.486  14.109  67.218  0.00  0.00    -0.216 NA
ENDBRANCH   1   2
BRANCH   1  13
ATOM     11  C   UNL     1      -9.833   9.700  65.262  0.00  0.00    +0.133 C 
ATOM     12  N   UNL     1     -10.493  10.895  64.745  0.00  0.00    -0.297 N 
ATOM     13  C   UNL     1     -11.057  11.846  65.508  0.00  0.00    +0.184 A 
ATOM     14  C   UNL     1     -11.793  12.663  64.669  0.00  0.00    +0.400 A 
ATOM     15  N   UNL     1     -11.483  12.263  63.429  0.00  0.00    -0.158 NA
ATOM     16  C   UNL     1     -10.611  11.244  63.444  0.00  0.00    +0.185 A 
BRANCH  14  17
ATOM     17  N   UNL     1     -12.385  13.909  65.054  0.00  0.00    +0.103 N 
ATOM     18  O   UNL     1     -11.742  15.064  64.648  0.00  0.00    -0.575 OA
ATOM     19  O   UNL     1     -13.555  14.029  65.432  0.00  0.00    +0.043 OA
ENDBRANCH  14  17
ENDBRANCH   1  13
TORSDOF 3
ENDMDL
MODEL 9
REMARK VINA RESULT:      -5.8      2.479      5.736
REMARK  Name = 
REMARK  3 active torsions:
REMARK  status: ('A' for Active; 'I' for Inactive)
REMARK    1  A    between atoms: C_5  and  N_6
REMARK    2  A    between atoms: C_9  and  S_10
REMARK    3  A    between atoms: S_10  and  C_11
REMARK                            x       y       z     vdW  Elec       q    Type
REMARK                         _______ _______ _______ _____ _____    ______ ____
ROOT
ATOM      1  S   UNL     1      -8.813  15.823  66.387  0.00  0.00    -0.041 S 
ENDROOT
BRANCH   1   2
ATOM      2  C   UNL     1     -10.451  15.382  65.795  0.00  0.00    +0.135 A 
ATOM      3  C   UNL     1     -11.100  14.236  66.226  0.00  0.00    +0.143 A 
ATOM      4  C   UNL     1     -11.828  13.498  65.302  0.00  0.00    +0.185 A 
ATOM      5  N   UNL     1     -12.134  12.329  65.891  0.00  0.00    -0.203 NA
ATOM      6  C   UNL     1     -11.738  12.429  67.182  0.00  0.00    +0.200 A 
ATOM      7  N   UNL     1     -12.300  14.202  64.244  0.00  0.00    -0.203 NA
ATOM      8  C   UNL     1     -12.031  15.524  64.114  0.00  0.00    +0.201 A 
ATOM      9  N   UNL     1     -10.939  13.511  67.338  0.00  0.00    -0.219 NA
ATOM     10  N   UNL     1     -11.061  16.128  64.841  0.00  0.00    -0.216 NA
ENDBRANCH   1   2
BRANCH   1  13
ATOM     11  C   UNL     1      -7.394  18.758  66.023  0.00  0.00    +0.133 C 
ATOM     12  N   UNL     1      -8.305  18.490  67.131  0.00  0.00    -0.297 N 
ATOM     13  C   UNL     1      -8.926  17.317  67.342  0.00  0.00    +0.184 A 
ATOM     14  C   UNL     1      -9.887  17.530  68.314  0.00  0.00    +0.400 A 
ATOM     15  N   UNL     1      -9.667  18.774  68.758  0.00  0.00    -0.158 NA
ATOM     16  C   UNL     1      -8.639  19.351  68.118  0.00  0.00    +0.185 A 
BRANCH  14  17
ATOM     17  N   UNL     1     -10.631  16.496  68.967  0.00  0.00    +0.103 N 
ATOM     18  O   UNL     1      -9.945  15.699  69.866  0.00  0.00    -0.575 OA
ATOM     19  O   UNL     1     -11.864  16.467  69.029  0.00  0.00    +0.043 OA
ENDBRANCH  14  17
ENDBRANCH   1  13
TORSDOF 3
ENDMDL
