MODEL 1
REMARK VINA RESULT:      -4.7      0.000      0.000
REMARK  Name = 
REMARK  3 active torsions:
REMARK  status: ('A' for Active; 'I' for Inactive)
REMARK    1  A    between atoms: C_5  and  N_6
REMARK    2  A    between atoms: N_9  and  C_10
REMARK    3  A    between atoms: C_10  and  C_11
REMARK                            x       y       z     vdW  Elec       q    Type
REMARK                         _______ _______ _______ _____ _____    ______ ____
ROOT
ATOM      1  C   UNL     1     -11.670  12.527  67.785  0.00  0.00    +0.072 C 
ATOM      2  C   UNL     1     -10.977  13.251  66.848  0.00  0.00    +0.125 A 
ATOM      3  N   UNL     1     -10.471  14.512  66.890  0.00  0.00    -0.255 N 
ATOM      4  C   UNL     1     -10.536  15.070  65.658  0.00  0.00    +0.378 A 
ATOM      5  C   UNL     1     -10.597  13.988  64.791  0.00  0.00    +0.195 A 
ATOM      6  N   UNL     1     -11.025  12.942  65.527  0.00  0.00    -0.223 NA
ENDROOT
BRANCH   4   7
ATOM      7  N   UNL     1     -10.627  16.459  65.332  0.00  0.00    +0.101 N 
ATOM      8  O   UNL     1      -9.504  17.224  65.592  0.00  0.00    -0.575 OA
ATOM      9  O   UNL     1     -11.268  16.758  64.302  0.00  0.00    +0.043 OA
ENDBRANCH   4   7
BRANCH   3  10
ATOM     10  C   UNL     1     -10.201  15.154  68.123  0.00  0.00    +0.146 C 
BRANCH  10  11
ATOM     11  C   UNL     1     -11.634  15.890  68.596  0.00  0.00    +0.175 C 
ATOM     12  O   UNL     1     -11.007  17.306  68.622  0.00  0.00    -0.221 OA
ATOM     13  C   UNL     1     -11.245  15.654  70.215  0.00  0.00    +0.038 C 
ENDBRANCH  10  11
ENDBRANCH   3  10
TORSDOF 3
ENDMDL
MODEL 2
REMARK VINA RESULT:      -4.7      1.856      2.274
REMARK  Name = 
REMARK  3 active torsions:
REMARK  status: ('A' for Active; 'I' for Inactive)
REMARK    1  A    between atoms: C_5  and  N_6
REMARK    2  A    between atoms: N_9  and  C_10
REMARK    3  A    between atoms: C_10  and  C_11
REMARK                            x       y       z     vdW  Elec       q    Type
REMARK                         _______ _______ _______ _____ _____    ______ ____
ROOT
ATOM      1  C   UNL     1      -9.875  13.495  68.288  0.00  0.00    +0.072 C 
ATOM      2  C   UNL     1      -9.922  13.876  66.971  0.00  0.00    +0.125 A 
ATOM      3  N   UNL     1     -10.389  15.011  66.387  0.00  0.00    -0.255 N 
ATOM      4  C   UNL     1     -10.908  14.717  65.171  0.00  0.00    +0.378 A 
ATOM      5  C   UNL     1     -10.295  13.524  64.814  0.00  0.00    +0.195 A 
ATOM      6  N   UNL     1      -9.853  12.971  65.962  0.00  0.00    -0.223 NA
ENDROOT
BRANCH   4   7
ATOM      7  N   UNL     1     -11.931  15.423  64.464  0.00  0.00    +0.101 N 
ATOM      8  O   UNL     1     -11.560  16.624  63.888  0.00  0.00    -0.575 OA
ATOM      9  O   UNL     1     -12.750  14.734  63.818  0.00  0.00    +0.043 OA
ENDBRANCH   4   7
BRANCH   3  10
ATOM     10  C   UNL     1     -10.524  16.215  67.122  0.00  0.00    +0.146 C 
BRANCH  10  11
ATOM     11  C   UNL     1      -9.285  17.224  66.607  0.00  0.00    +0.175 C 
ATOM     12  O   UNL     1      -8.836  17.563  68.049  0.00  0.00    -0.221 OA
ATOM     13  C   UNL     1     -10.333  18.538  66.590  0.00  0.00    +0.038 C 
ENDBRANCH  10  11
ENDBRANCH   3  10
TORSDOF 3
ENDMDL
MODEL 3
REMARK VINA RESULT:      -4.7      1.791      3.693
REMARK  Name = 
REMARK  3 active torsions:
REMARK  status: ('A' for Active; 'I' for Inactive)
REMARK    1  A    between atoms: C_5  and  N_6
REMARK    2  A    between atoms: N_9  and  C_10
REMARK    3  A    between atoms: C_10  and  C_11
REMARK                            x       y       z     vdW  Elec       q    Type
REMARK                         _______ _______ _______ _____ _____    ______ ____
ROOT
ATOM      1  C   UNL     1     -10.743  12.230  68.240  0.00  0.00    +0.072 C 
ATOM      2  C   UNL     1     -11.138  13.405  67.650  0.00  0.00    +0.125 A 
ATOM      3  N   UNL     1     -11.013  13.845  66.371  0.00  0.00    -0.255 N 
ATOM      4  C   UNL     1     -10.846  15.189  66.366  0.00  0.00    +0.378 A 
ATOM      5  C   UNL     1     -11.379  15.608  67.577  0.00  0.00    +0.195 A 
ATOM      6  N   UNL     1     -11.387  14.522  68.378  0.00  0.00    -0.223 NA
ENDROOT
BRANCH   4   7
ATOM      7  N   UNL     1     -10.177  15.983  65.382  0.00  0.00    +0.101 N 
ATOM      8  O   UNL     1     -10.987  16.671  64.497  0.00  0.00    -0.575 OA
ATOM      9  O   UNL     1      -9.135  16.570  65.743  0.00  0.00    +0.043 OA
ENDBRANCH   4   7
BRANCH   3  10
ATOM     10  C   UNL     1     -10.821  12.941  65.297  0.00  0.00    +0.146 C 
BRANCH  10  11
ATOM     11  C   UNL     1     -11.995  13.310  64.154  0.00  0.00    +0.175 C 
ATOM     12  O   UNL     1     -13.129  12.636  64.965  0.00  0.00    -0.221 OA
ATOM     13  C   UNL     1     -11.681  11.874  63.338  0.00  0.00    +0.038 C 
ENDBRANCH  10  11
ENDBRANCH   3  10
TORSDOF 3
ENDMDL
MODEL 4
REMARK VINA RESULT:      -4.6      2.389      3.420
REMARK  Name = 
REMARK  3 active torsions:
REMARK  status: ('A' for Active; 'I' for Inactive)
REMARK    1  A    between atoms: C_5  and  N_6
REMARK    2  A    between atoms: N_9  and  C_10
REMARK    3  A    between atoms: C_10  and  C_11
REMARK                            x       y       z     vdW  Elec       q    Type
REMARK                         _______ _______ _______ _____ _____    ______ ____
ROOT
ATOM      1  C   UNL     1      -8.947  16.214  66.194  0.00  0.00    +0.072 C 
ATOM      2  C   UNL     1     -10.197  15.838  65.768  0.00  0.00    +0.125 A 
ATOM      3  N   UNL     1     -10.879  14.674  65.926  0.00  0.00    -0.255 N 
ATOM      4  C   UNL     1     -11.654  14.449  64.838  0.00  0.00    +0.378 A 
ATOM      5  C   UNL     1     -11.828  15.705  64.272  0.00  0.00    +0.195 A 
ATOM      6  N   UNL     1     -10.823  16.471  64.744  0.00  0.00    -0.223 NA
ENDROOT
BRANCH   4   7
ATOM      7  N   UNL     1     -12.101  13.190  64.329  0.00  0.00    +0.101 N 
ATOM      8  O   UNL     1     -13.233  12.658  64.920  0.00  0.00    -0.575 OA
ATOM      9  O   UNL     1     -11.985  13.003  63.099  0.00  0.00    +0.043 OA
ENDBRANCH   4   7
BRANCH   3  10
ATOM     10  C   UNL     1     -10.559  13.769  66.967  0.00  0.00    +0.146 C 
BRANCH  10  11
ATOM     11  C   UNL     1     -11.838  13.828  68.054  0.00  0.00    +0.175 C 
ATOM     12  O   UNL     1     -10.926  14.196  69.250  0.00  0.00    -0.221 OA
ATOM     13  C   UNL     1     -11.661  12.188  68.383  0.00  0.00    +0.038 C 
ENDBRANCH  10  11
ENDBRANCH   3  10
TORSDOF 3
ENDMDL
MODEL 5
REMARK VINA RESULT:      -4.5      2.135      3.308
REMARK  Name = 
REMARK  3 active torsions:
REMARK  status: ('A' for Active; 'I' for Inactive)
REMARK    1  A    between atoms: C_5  and  N_6
REMARK    2  A    between atoms: N_9  and  C_10
REMARK    3  A    between atoms: C_10  and  C_11
REMARK                            x       y       z     vdW  Elec       q    Type
REMARK                         _______ _______ _______ _____ _____    ______ ____
ROOT
ATOM      1  C   UNL     1     -12.193  14.349  64.421  0.00  0.00    +0.072 C 
ATOM      2  C   UNL     1     -11.251  14.813  65.304  0.00  0.00    +0.125 A 
ATOM      3  N   UNL     1     -11.234  14.828  66.663  0.00  0.00    -0.255 N 
ATOM      4  C   UNL     1     -10.575  15.929  67.098  0.00  0.00    +0.378 A 
ATOM      5  C   UNL     1      -9.766  16.291  66.029  0.00  0.00    +0.195 A 
ATOM      6  N   UNL     1     -10.311  15.719  64.936  0.00  0.00    -0.223 NA
ENDROOT
BRANCH   4   7
ATOM      7  N   UNL     1     -10.751  16.621  68.337  0.00  0.00    +0.101 N 
ATOM      8  O   UNL     1     -10.026  16.143  69.413  0.00  0.00    -0.575 OA
ATOM      9  O   UNL     1     -10.893  17.861  68.277  0.00  0.00    +0.043 OA
ENDBRANCH   4   7
BRANCH   3  10
ATOM     10  C   UNL     1     -12.041  13.943  67.419  0.00  0.00    +0.146 C 
BRANCH  10  11
ATOM     11  C   UNL     1     -11.029  12.707  67.937  0.00  0.00    +0.175 C 
ATOM     12  O   UNL     1     -11.998  11.593  67.472  0.00  0.00    -0.221 OA
ATOM     13  C   UNL     1     -11.741  12.734  69.460  0.00  0.00    +0.038 C 
ENDBRANCH  10  11
ENDBRANCH   3  10
TORSDOF 3
ENDMDL
MODEL 6
REMARK VINA RESULT:      -4.4      2.569      3.469
REMARK  Name = 
REMARK  3 active torsions:
REMARK  status: ('A' for Active; 'I' for Inactive)
REMARK    1  A    between atoms: C_5  and  N_6
REMARK    2  A    between atoms: N_9  and  C_10
REMARK    3  A    between atoms: C_10  and  C_11
REMARK                            x       y       z     vdW  Elec       q    Type
REMARK                         _______ _______ _______ _____ _____    ______ ____
ROOT
ATOM      1  C   UNL     1      -9.846  15.780  68.315  0.00  0.00    +0.072 C 
ATOM      2  C   UNL     1     -10.565  15.742  67.146  0.00  0.00    +0.125 A 
ATOM      3  N   UNL     1     -11.414  14.803  66.652  0.00  0.00    -0.255 N 
ATOM      4  C   UNL     1     -11.324  14.772  65.302  0.00  0.00    +0.378 A 
ATOM      5  C   UNL     1     -10.818  16.020  64.961  0.00  0.00    +0.195 A 
ATOM      6  N   UNL     1     -10.226  16.500  66.073  0.00  0.00    -0.223 NA
ENDROOT
BRANCH   4   7
ATOM      7  N   UNL     1     -11.589  13.668  64.433  0.00  0.00    +0.101 N 
ATOM      8  O   UNL     1     -12.585  13.855  63.492  0.00  0.00    -0.575 OA
ATOM      9  O   UNL     1     -10.606  12.989  64.065  0.00  0.00    +0.043 OA
ENDBRANCH   4   7
BRANCH   3  10
ATOM     10  C   UNL     1     -12.047  13.863  67.503  0.00  0.00    +0.146 C 
BRANCH  10  11
ATOM     11  C   UNL     1     -10.979  12.577  67.663  0.00  0.00    +0.175 C 
ATOM     12  O   UNL     1     -11.982  11.550  67.083  0.00  0.00    -0.221 OA
ATOM     13  C   UNL     1     -11.532  12.284  69.223  0.00  0.00    +0.038 C 
ENDBRANCH  10  11
ENDBRANCH   3  10
TORSDOF 3
ENDMDL
MODEL 7
REMARK VINA RESULT:      -4.4      2.102      2.620
REMARK  Name = 
REMARK  3 active torsions:
REMARK  status: ('A' for Active; 'I' for Inactive)
REMARK    1  A    between atoms: C_5  and  N_6
REMARK    2  A    between atoms: N_9  and  C_10
REMARK    3  A    between atoms: C_10  and  C_11
REMARK                            x       y       z     vdW  Elec       q    Type
REMARK                         _______ _______ _______ _____ _____    ______ ____
ROOT
ATOM      1  C   UNL     1     -12.230  11.145  69.610  0.00  0.00    +0.072 C 
ATOM      2  C   UNL     1     -11.719  11.729  68.478  0.00  0.00    +0.125 A 
ATOM      3  N   UNL     1     -11.759  13.016  68.044  0.00  0.00    -0.255 N 
ATOM      4  C   UNL     1     -11.817  13.039  66.692  0.00  0.00    +0.378 A 
ATOM      5  C   UNL     1     -11.299  11.811  66.303  0.00  0.00    +0.195 A 
ATOM      6  N   UNL     1     -11.410  11.002  67.376  0.00  0.00    -0.223 NA
ENDROOT
BRANCH   4   7
ATOM      7  N   UNL     1     -12.382  14.054  65.858  0.00  0.00    +0.101 N 
ATOM      8  O   UNL     1     -11.495  14.972  65.325  0.00  0.00    -0.575 OA
ATOM      9  O   UNL     1     -13.332  13.717  65.120  0.00  0.00    +0.043 OA
ENDBRANCH   4   7
BRANCH   3  10
ATOM     10  C   UNL     1     -11.982  14.089  68.942  0.00  0.00    +0.146 C 
BRANCH  10  11
ATOM     11  C   UNL     1     -10.504  14.864  69.129  0.00  0.00    +0.175 C 
ATOM     12  O   UNL     1     -10.792  15.260  70.598  0.00  0.00    -0.221 OA
ATOM     13  C   UNL     1     -11.167  16.307  68.576  0.00  0.00    +0.038 C 
ENDBRANCH  10  11
ENDBRANCH   3  10
TORSDOF 3
ENDMDL
MODEL 8
REMARK VINA RESULT:      -4.4      2.189      3.935
REMARK  Name = 
REMARK  3 active torsions:
REMARK  status: ('A' for Active; 'I' for Inactive)
REMARK    1  A    between atoms: C_5  and  N_6
REMARK    2  A    between atoms: N_9  and  C_10
REMARK    3  A    between atoms: C_10  and  C_11
REMARK                            x       y       z     vdW  Elec       q    Type
REMARK                         _______ _______ _______ _____ _____    ______ ____
ROOT
ATOM      1  C   UNL     1     -11.463  11.152  68.832  0.00  0.00    +0.072 C 
ATOM      2  C   UNL     1     -11.844  12.470  68.849  0.00  0.00    +0.125 A 
ATOM      3  N   UNL     1     -11.722  13.445  67.911  0.00  0.00    -0.255 N 
ATOM      4  C   UNL     1     -11.535  14.641  68.518  0.00  0.00    +0.378 A 
ATOM      5  C   UNL     1     -12.052  14.465  69.794  0.00  0.00    +0.195 A 
ATOM      6  N   UNL     1     -12.070  13.134  70.011  0.00  0.00    -0.223 NA
ENDROOT
BRANCH   4   7
ATOM      7  N   UNL     1     -10.861  15.789  67.997  0.00  0.00    +0.101 N 
ATOM      8  O   UNL     1     -11.280  17.016  68.479  0.00  0.00    -0.575 OA
ATOM      9  O   UNL     1      -9.636  15.675  67.776  0.00  0.00    +0.043 OA
ENDBRANCH   4   7
BRANCH   3  10
ATOM     10  C   UNL     1     -11.552  13.130  66.540  0.00  0.00    +0.146 C 
BRANCH  10  11
ATOM     11  C   UNL     1     -12.829  13.856  65.726  0.00  0.00    +0.175 C 
ATOM     12  O   UNL     1     -13.085  12.618  64.832  0.00  0.00    -0.221 OA
ATOM     13  C   UNL     1     -11.768  14.497  64.590  0.00  0.00    +0.038 C 
ENDBRANCH  10  11
ENDBRANCH   3  10
TORSDOF 3
ENDMDL
MODEL 9
REMARK VINA RESULT:      -4.4      3.088      4.005
REMARK  Name = 
REMARK  3 active torsions:
REMARK  status: ('A' for Active; 'I' for Inactive)
REMARK    1  A    between atoms: C_5  and  N_6
REMARK    2  A    between atoms: N_9  and  C_10
REMARK    3  A    between atoms: C_10  and  C_11
REMARK                            x       y       z     vdW  Elec       q    Type
REMARK                         _______ _______ _______ _____ _____    ______ ____
ROOT
ATOM      1  C   UNL     1      -9.816   9.491  65.935  0.00  0.00    +0.072 C 
ATOM      2  C   UNL     1      -9.935  10.554  65.076  0.00  0.00    +0.125 A 
ATOM      3  N   UNL     1     -10.773  11.624  65.092  0.00  0.00    -0.255 N 
ATOM      4  C   UNL     1     -11.070  11.989  63.822  0.00  0.00    +0.378 A 
ATOM      5  C   UNL     1     -10.024  11.481  63.063  0.00  0.00    +0.195 A 
ATOM      6  N   UNL     1      -9.466  10.501  63.804  0.00  0.00    -0.223 NA
ENDROOT
BRANCH   4   7
ATOM      7  N   UNL     1     -12.246  12.655  63.357  0.00  0.00    +0.101 N 
ATOM      8  O   UNL     1     -13.434  11.959  63.484  0.00  0.00    -0.575 OA
ATOM      9  O   UNL     1     -12.309  13.889  63.546  0.00  0.00    +0.043 OA
ENDBRANCH   4   7
BRANCH   3  10
ATOM     10  C   UNL     1     -11.404  12.046  66.288  0.00  0.00    +0.146 C 
BRANCH  10  11
ATOM     11  C   UNL     1     -10.591  13.428  66.787  0.00  0.00    +0.175 C 
ATOM     12  O   UNL     1     -10.475  12.943  68.253  0.00  0.00    -0.221 OA
ATOM     13  C   UNL     1     -12.051  14.191  67.122  0.00  0.00    +0.038 C 
ENDBRANCH  10  11
ENDBRANCH   3  10
TORSDOF 3
ENDMDL
