MODEL 1
REMARK VINA RESULT:      -7.8      0.000      0.000
REMARK  Name = 
REMARK  4 active torsions:
REMARK  status: ('A' for Active; 'I' for Inactive)
REMARK    1  A    between atoms: C_2  and  C_3
REMARK    2  A    between atoms: C_3  and  C_4
REMARK    3  A    between atoms: C_26  and  C_27
REMARK    4  A    between atoms: C_27  and  C_29
REMARK                            x       y       z     vdW  Elec       q    Type
REMARK                         _______ _______ _______ _____ _____    ______ ____
ROOT
ATOM      1  C   UNL     1     -12.029  15.591  69.866  0.00  0.00    +0.235 C 
ATOM      2  O   UNL     1     -12.381  15.079  68.485  0.00  0.00    -0.326 OA
ATOM      3  C   UNL     1     -11.320  14.879  67.802  0.00  0.00    +0.173 C 
ATOM      4  C   UNL     1     -10.715  13.864  68.940  0.00  0.00    +0.149 C 
ATOM      5  C   UNL     1      -9.139  14.138  68.493  0.00  0.00    +0.033 C 
ATOM      6  C   UNL     1      -9.275  15.741  68.653  0.00  0.00    +0.005 C 
ATOM      7  C   UNL     1      -7.990  16.195  67.664  0.00  0.00    +0.004 C 
ATOM      8  C   UNL     1      -8.313  17.758  68.155  0.00  0.00    +0.038 C 
ATOM      9  C   UNL     1      -9.434  18.189  66.939  0.00  0.00    +0.153 C 
ATOM     10  C   UNL     1     -10.626  17.149  67.342  0.00  0.00    +0.036 C 
ATOM     11  O   UNL     1      -8.890  17.325  65.830  0.00  0.00    -0.223 OA
ATOM     12  C   UNL     1      -7.026  18.429  67.471  0.00  0.00    +0.036 C 
ATOM     13  C   UNL     1      -5.975  18.106  68.496  0.00  0.00    -0.038 C 
ATOM     14  C   UNL     1      -4.953  18.920  68.702  0.00  0.00    +0.034 C 
ATOM     15  C   UNL     1      -5.083  20.332  68.381  0.00  0.00    +0.195 C 
ATOM     16  C   UNL     1      -6.332  20.766  67.768  0.00  0.00    +0.038 C 
ATOM     17  O   UNL     1      -4.406  21.152  69.076  0.00  0.00    -0.287 OA
ATOM     18  C   UNL     1      -5.659  16.640  68.530  0.00  0.00    +0.022 C 
ATOM     19  C   UNL     1      -6.572  17.792  66.252  0.00  0.00    +0.009 C 
ATOM     20  C   UNL     1      -7.256  19.873  67.456  0.00  0.00    -0.020 C 
ATOM     21  C   UNL     1      -6.946  15.956  68.858  0.00  0.00    +0.004 C 
ATOM     22  C   UNL     1     -10.298  15.781  67.405  0.00  0.00    +0.034 C 
ATOM     23  C   UNL     1      -9.626  15.097  66.239  0.00  0.00    +0.003 C 
ATOM     24  O   UNL     1     -10.690  14.898  70.017  0.00  0.00    -0.330 OA
ENDROOT
BRANCH   3  25
ATOM     25  C   UNL     1     -11.658  13.775  66.819  0.00  0.00    +0.210 C 
ATOM     26  O   UNL     1     -11.852  12.622  67.224  0.00  0.00    -0.291 OA
BRANCH  25  27
ATOM     27  C   UNL     1     -12.625  13.999  65.690  0.00  0.00    +0.248 C 
ATOM     28  O   UNL     1     -12.964  12.868  65.009  0.00  0.00    -0.212 OA
ENDBRANCH  25  27
ENDBRANCH   3  25
BRANCH   1  29
ATOM     29  C   UNL     1     -12.816  14.303  70.591  0.00  0.00    +0.061 C 
BRANCH  29  31
ATOM     30  C   UNL     1     -14.437  14.801  71.675  0.00  0.00    +0.000 C 
ATOM     31  C   UNL     1     -13.775  15.100  71.469  0.00  0.00    +0.005 C 
ENDBRANCH  29  31
ENDBRANCH   1  29
TORSDOF 4
ENDMDL
MODEL 2
REMARK VINA RESULT:      -7.7      1.862      2.277
REMARK  Name = 
REMARK  4 active torsions:
REMARK  status: ('A' for Active; 'I' for Inactive)
REMARK    1  A    between atoms: C_2  and  C_3
REMARK    2  A    between atoms: C_3  and  C_4
REMARK    3  A    between atoms: C_26  and  C_27
REMARK    4  A    between atoms: C_27  and  C_29
REMARK                            x       y       z     vdW  Elec       q    Type
REMARK                         _______ _______ _______ _____ _____    ______ ____
ROOT
ATOM      1  C   UNL     1     -11.621  12.657  68.915  0.00  0.00    +0.235 C 
ATOM      2  O   UNL     1     -12.095  12.650  67.476  0.00  0.00    -0.326 OA
ATOM      3  C   UNL     1     -11.158  13.042  66.699  0.00  0.00    +0.173 C 
ATOM      4  C   UNL     1     -10.142  11.878  67.250  0.00  0.00    +0.149 C 
ATOM      5  C   UNL     1      -8.778  12.739  66.851  0.00  0.00    +0.033 C 
ATOM      6  C   UNL     1      -9.243  14.041  67.688  0.00  0.00    +0.005 C 
ATOM      7  C   UNL     1      -8.297  15.189  66.897  0.00  0.00    +0.004 C 
ATOM      8  C   UNL     1      -8.870  16.275  68.029  0.00  0.00    +0.038 C 
ATOM      9  C   UNL     1     -10.263  16.811  67.196  0.00  0.00    +0.153 C 
ATOM     10  C   UNL     1     -11.094  15.406  67.202  0.00  0.00    +0.036 C 
ATOM     11  O   UNL     1      -9.750  16.642  65.789  0.00  0.00    -0.223 OA
ATOM     12  C   UNL     1      -7.917  17.493  67.605  0.00  0.00    +0.036 C 
ATOM     13  C   UNL     1      -6.650  17.106  68.318  0.00  0.00    -0.038 C 
ATOM     14  C   UNL     1      -5.821  18.027  68.777  0.00  0.00    +0.034 C 
ATOM     15  C   UNL     1      -6.324  19.353  69.098  0.00  0.00    +0.195 C 
ATOM     16  C   UNL     1      -7.729  19.620  68.820  0.00  0.00    +0.038 C 
ATOM     17  O   UNL     1      -5.735  19.990  70.026  0.00  0.00    -0.287 OA
ATOM     18  C   UNL     1      -6.010  15.898  67.701  0.00  0.00    +0.022 C 
ATOM     19  C   UNL     1      -7.561  17.541  66.203  0.00  0.00    +0.009 C 
ATOM     20  C   UNL     1      -8.467  18.700  68.224  0.00  0.00    -0.020 C 
ATOM     21  C   UNL     1      -7.025  14.807  67.798  0.00  0.00    +0.004 C 
ATOM     22  C   UNL     1     -10.458  14.276  66.653  0.00  0.00    +0.034 C 
ATOM     23  C   UNL     1      -9.874  14.323  65.261  0.00  0.00    +0.003 C 
ATOM     24  O   UNL     1     -10.156  12.370  68.660  0.00  0.00    -0.330 OA
ENDROOT
BRANCH   3  25
ATOM     25  C   UNL     1     -11.412  12.364  65.366  0.00  0.00    +0.210 C 
ATOM     26  O   UNL     1     -11.088  11.182  65.201  0.00  0.00    -0.291 OA
BRANCH  25  27
ATOM     27  C   UNL     1     -12.700  12.562  64.618  0.00  0.00    +0.248 C 
ATOM     28  O   UNL     1     -12.551  13.112  63.380  0.00  0.00    -0.212 OA
ENDBRANCH  25  27
ENDBRANCH   3  25
BRANCH   1  29
ATOM     29  C   UNL     1     -11.949  11.023  69.076  0.00  0.00    +0.061 C 
BRANCH  29  31
ATOM     30  C   UNL     1     -12.482  10.392  70.911  0.00  0.00    +0.000 C 
ATOM     31  C   UNL     1     -12.158  10.991  70.586  0.00  0.00    +0.005 C 
ENDBRANCH  29  31
ENDBRANCH   1  29
TORSDOF 4
ENDMDL
MODEL 3
REMARK VINA RESULT:      -7.6      2.872      6.705
REMARK  Name = 
REMARK  4 active torsions:
REMARK  status: ('A' for Active; 'I' for Inactive)
REMARK    1  A    between atoms: C_2  and  C_3
REMARK    2  A    between atoms: C_3  and  C_4
REMARK    3  A    between atoms: C_26  and  C_27
REMARK    4  A    between atoms: C_27  and  C_29
REMARK                            x       y       z     vdW  Elec       q    Type
REMARK                         _______ _______ _______ _____ _____    ______ ____
ROOT
ATOM      1  C   UNL     1     -10.587  17.139  67.531  0.00  0.00    +0.235 C 
ATOM      2  O   UNL     1     -11.609  16.688  68.554  0.00  0.00    -0.326 OA
ATOM      3  C   UNL     1     -11.361  15.492  68.931  0.00  0.00    +0.173 C 
ATOM      4  C   UNL     1      -9.840  15.895  69.392  0.00  0.00    +0.149 C 
ATOM      5  C   UNL     1      -9.265  14.348  69.207  0.00  0.00    +0.033 C 
ATOM      6  C   UNL     1      -9.777  14.240  67.678  0.00  0.00    +0.005 C 
ATOM      7  C   UNL     1      -9.827  12.561  67.556  0.00  0.00    +0.004 C 
ATOM      8  C   UNL     1     -10.208  12.804  65.948  0.00  0.00    +0.038 C 
ATOM      9  C   UNL     1     -11.910  12.869  66.089  0.00  0.00    +0.153 C 
ATOM     10  C   UNL     1     -12.018  14.240  66.970  0.00  0.00    +0.036 C 
ATOM     11  O   UNL     1     -12.063  11.951  67.274  0.00  0.00    -0.223 OA
ATOM     12  C   UNL     1     -10.115  11.264  65.508  0.00  0.00    +0.036 C 
ATOM     13  C   UNL     1      -8.627  11.119  65.345  0.00  0.00    -0.038 C 
ATOM     14  C   UNL     1      -8.120  10.288  64.450  0.00  0.00    +0.034 C 
ATOM     15  C   UNL     1      -8.903   9.926  63.280  0.00  0.00    +0.195 C 
ATOM     16  C   UNL     1     -10.260  10.450  63.195  0.00  0.00    +0.038 C 
ATOM     17  O   UNL     1      -8.266   9.654  62.214  0.00  0.00    -0.287 OA
ATOM     18  C   UNL     1      -7.913  11.176  66.663  0.00  0.00    +0.022 C 
ATOM     19  C   UNL     1     -10.477  10.307  66.532  0.00  0.00    +0.009 C 
ATOM     20  C   UNL     1     -10.755  11.155  64.197  0.00  0.00    -0.020 C 
ATOM     21  C   UNL     1      -8.252  12.506  67.250  0.00  0.00    +0.004 C 
ATOM     22  C   UNL     1     -11.308  14.285  68.185  0.00  0.00    +0.034 C 
ATOM     23  C   UNL     1     -11.482  13.198  69.219  0.00  0.00    +0.003 C 
ATOM     24  O   UNL     1      -9.413  16.319  68.024  0.00  0.00    -0.330 OA
ENDROOT
BRANCH   3  25
ATOM     25  C   UNL     1     -11.894  15.382  70.346  0.00  0.00    +0.210 C 
ATOM     26  O   UNL     1     -11.408  16.078  71.247  0.00  0.00    -0.291 OA
BRANCH  25  27
ATOM     27  C   UNL     1     -13.369  15.293  70.625  0.00  0.00    +0.248 C 
ATOM     28  O   UNL     1     -13.766  15.937  71.759  0.00  0.00    -0.212 OA
ENDBRANCH  25  27
ENDBRANCH   3  25
BRANCH   1  29
ATOM     29  C   UNL     1     -10.132  18.433  68.491  0.00  0.00    +0.061 C 
BRANCH  29  31
ATOM     30  C   UNL     1     -10.374  19.538  66.826  0.00  0.00    +0.000 C 
ATOM     31  C   UNL     1     -10.563  19.558  67.557  0.00  0.00    +0.005 C 
ENDBRANCH  29  31
ENDBRANCH   1  29
TORSDOF 4
ENDMDL
MODEL 4
REMARK VINA RESULT:      -7.2      2.062      3.783
REMARK  Name = 
REMARK  4 active torsions:
REMARK  status: ('A' for Active; 'I' for Inactive)
REMARK    1  A    between atoms: C_2  and  C_3
REMARK    2  A    between atoms: C_3  and  C_4
REMARK    3  A    between atoms: C_26  and  C_27
REMARK    4  A    between atoms: C_27  and  C_29
REMARK                            x       y       z     vdW  Elec       q    Type
REMARK                         _______ _______ _______ _____ _____    ______ ____
ROOT
ATOM      1  C   UNL     1     -10.947  14.045  65.072  0.00  0.00    +0.235 C 
ATOM      2  O   UNL     1     -10.610  13.058  66.170  0.00  0.00    -0.326 OA
ATOM      3  C   UNL     1     -10.388  13.674  67.267  0.00  0.00    +0.173 C 
ATOM      4  C   UNL     1     -11.858  14.400  67.220  0.00  0.00    +0.149 C 
ATOM      5  C   UNL     1     -11.367  15.684  68.152  0.00  0.00    +0.033 C 
ATOM      6  C   UNL     1     -10.123  16.034  67.180  0.00  0.00    +0.005 C 
ATOM      7  C   UNL     1      -9.185  16.892  68.285  0.00  0.00    +0.004 C 
ATOM      8  C   UNL     1      -8.160  17.198  67.003  0.00  0.00    +0.038 C 
ATOM      9  C   UNL     1      -7.137  15.837  67.153  0.00  0.00    +0.153 C 
ATOM     10  C   UNL     1      -8.237  14.680  66.810  0.00  0.00    +0.036 C 
ATOM     11  O   UNL     1      -7.236  15.658  68.646  0.00  0.00    -0.223 OA
ATOM     12  C   UNL     1      -7.210  18.233  67.778  0.00  0.00    +0.036 C 
ATOM     13  C   UNL     1      -8.038  19.485  67.681  0.00  0.00    -0.038 C 
ATOM     14  C   UNL     1      -7.464  20.674  67.609  0.00  0.00    +0.034 C 
ATOM     15  C   UNL     1      -6.113  20.791  67.086  0.00  0.00    +0.195 C 
ATOM     16  C   UNL     1      -5.423  19.556  66.733  0.00  0.00    +0.038 C 
ATOM     17  O   UNL     1      -5.810  21.872  66.492  0.00  0.00    -0.287 OA
ATOM     18  C   UNL     1      -9.273  19.404  68.528  0.00  0.00    +0.022 C 
ATOM     19  C   UNL     1      -7.059  17.990  69.197  0.00  0.00    +0.009 C 
ATOM     20  C   UNL     1      -6.002  18.391  66.968  0.00  0.00    -0.020 C 
ATOM     21  C   UNL     1     -10.036  18.226  68.020  0.00  0.00    +0.004 C 
ATOM     22  C   UNL     1      -9.408  14.648  67.593  0.00  0.00    +0.034 C 
ATOM     23  C   UNL     1      -9.324  14.605  69.101  0.00  0.00    +0.003 C 
ATOM     24  O   UNL     1     -11.594  15.111  65.933  0.00  0.00    -0.330 OA
ENDROOT
BRANCH   3  25
ATOM     25  C   UNL     1     -10.764  12.706  68.372  0.00  0.00    +0.210 C 
ATOM     26  O   UNL     1     -11.947  12.585  68.713  0.00  0.00    -0.291 OA
BRANCH  25  27
ATOM     27  C   UNL     1     -10.153  11.335  68.456  0.00  0.00    +0.248 C 
ATOM     28  O   UNL     1     -11.030  10.315  68.235  0.00  0.00    -0.212 OA
ENDBRANCH  25  27
ENDBRANCH   3  25
BRANCH   1  29
ATOM     29  C   UNL     1     -12.428  13.311  64.806  0.00  0.00    +0.061 C 
BRANCH  29  31
ATOM     30  C   UNL     1     -12.434  11.891  63.380  0.00  0.00    +0.000 C 
ATOM     31  C   UNL     1     -12.059  12.523  63.555  0.00  0.00    +0.005 C 
ENDBRANCH  29  31
ENDBRANCH   1  29
TORSDOF 4
ENDMDL
MODEL 5
REMARK VINA RESULT:      -7.0      2.052      7.282
REMARK  Name = 
REMARK  4 active torsions:
REMARK  status: ('A' for Active; 'I' for Inactive)
REMARK    1  A    between atoms: C_2  and  C_3
REMARK    2  A    between atoms: C_3  and  C_4
REMARK    3  A    between atoms: C_26  and  C_27
REMARK    4  A    between atoms: C_27  and  C_29
REMARK                            x       y       z     vdW  Elec       q    Type
REMARK                         _______ _______ _______ _____ _____    ______ ____
ROOT
ATOM      1  C   UNL     1      -5.512  17.941  68.826  0.00  0.00    +0.235 C 
ATOM      2  O   UNL     1      -5.713  18.776  67.578  0.00  0.00    -0.326 OA
ATOM      3  C   UNL     1      -6.957  18.871  67.304  0.00  0.00    +0.173 C 
ATOM      4  C   UNL     1      -7.292  19.490  68.785  0.00  0.00    +0.149 C 
ATOM      5  C   UNL     1      -8.870  18.974  68.756  0.00  0.00    +0.033 C 
ATOM      6  C   UNL     1      -8.461  17.439  68.459  0.00  0.00    +0.005 C 
ATOM      7  C   UNL     1      -9.921  16.920  67.799  0.00  0.00    +0.004 C 
ATOM      8  C   UNL     1      -9.234  15.399  67.764  0.00  0.00    +0.038 C 
ATOM      9  C   UNL     1      -8.527  15.465  66.210  0.00  0.00    +0.153 C 
ATOM     10  C   UNL     1      -7.430  16.639  66.503  0.00  0.00    +0.036 C 
ATOM     11  O   UNL     1      -9.524  16.391  65.561  0.00  0.00    -0.223 OA
ATOM     12  C   UNL     1     -10.564  14.612  67.332  0.00  0.00    +0.036 C 
ATOM     13  C   UNL     1     -11.253  14.495  68.664  0.00  0.00    -0.038 C 
ATOM     14  C   UNL     1     -12.021  13.455  68.941  0.00  0.00    +0.034 C 
ATOM     15  C   UNL     1     -11.804  12.194  68.250  0.00  0.00    +0.195 C 
ATOM     16  C   UNL     1     -10.778  12.168  67.214  0.00  0.00    +0.038 C 
ATOM     17  O   UNL     1     -12.089  11.128  68.879  0.00  0.00    -0.287 OA
ATOM     18  C   UNL     1     -11.747  15.822  69.157  0.00  0.00    +0.022 C 
ATOM     19  C   UNL     1     -11.481  15.361  66.499  0.00  0.00    +0.009 C 
ATOM     20  C   UNL     1     -10.147  13.283  66.887  0.00  0.00    -0.020 C 
ATOM     21  C   UNL     1     -10.536  16.690  69.264  0.00  0.00    +0.004 C 
ATOM     22  C   UNL     1      -7.912  17.865  67.002  0.00  0.00    +0.034 C 
ATOM     23  C   UNL     1      -9.022  18.602  66.291  0.00  0.00    +0.003 C 
ATOM     24  O   UNL     1      -6.812  18.285  69.525  0.00  0.00    -0.330 OA
ENDROOT
BRANCH   3  25
ATOM     25  C   UNL     1      -7.124  20.192  66.578  0.00  0.00    +0.210 C 
ATOM     26  O   UNL     1      -7.138  21.252  67.216  0.00  0.00    -0.291 OA
BRANCH  25  27
ATOM     27  C   UNL     1      -6.400  20.478  65.291  0.00  0.00    +0.248 C 
ATOM     28  O   UNL     1      -6.380  19.434  64.415  0.00  0.00    -0.212 OA
ENDBRANCH  25  27
ENDBRANCH   3  25
BRANCH   1  29
ATOM     29  C   UNL     1      -4.724  19.201  69.595  0.00  0.00    +0.061 C 
BRANCH  29  31
ATOM     30  C   UNL     1      -2.733  19.020  69.829  0.00  0.00    +0.000 C 
ATOM     31  C   UNL     1      -3.297  18.681  69.459  0.00  0.00    +0.005 C 
ENDBRANCH  29  31
ENDBRANCH   1  29
TORSDOF 4
ENDMDL
MODEL 6
REMARK VINA RESULT:      -6.8      2.313      4.632
REMARK  Name = 
REMARK  4 active torsions:
REMARK  status: ('A' for Active; 'I' for Inactive)
REMARK    1  A    between atoms: C_2  and  C_3
REMARK    2  A    between atoms: C_3  and  C_4
REMARK    3  A    between atoms: C_26  and  C_27
REMARK    4  A    between atoms: C_27  and  C_29
REMARK                            x       y       z     vdW  Elec       q    Type
REMARK                         _______ _______ _______ _____ _____    ______ ____
ROOT
ATOM      1  C   UNL     1      -9.157  11.665  65.887  0.00  0.00    +0.235 C 
ATOM      2  O   UNL     1      -9.800  11.334  67.218  0.00  0.00    -0.326 OA
ATOM      3  C   UNL     1     -10.448  12.342  67.660  0.00  0.00    +0.173 C 
ATOM      4  C   UNL     1     -11.352  12.428  66.294  0.00  0.00    +0.149 C 
ATOM      5  C   UNL     1     -11.670  14.047  66.485  0.00  0.00    +0.033 C 
ATOM      6  C   UNL     1     -10.105  14.437  66.592  0.00  0.00    +0.005 C 
ATOM      7  C   UNL     1     -10.276  15.911  67.390  0.00  0.00    +0.004 C 
ATOM      8  C   UNL     1      -8.624  16.073  67.202  0.00  0.00    +0.038 C 
ATOM      9  C   UNL     1      -8.120  15.318  68.651  0.00  0.00    +0.153 C 
ATOM     10  C   UNL     1      -8.641  13.807  68.320  0.00  0.00    +0.036 C 
ATOM     11  O   UNL     1      -9.312  15.672  69.503  0.00  0.00    -0.223 OA
ATOM     12  C   UNL     1      -8.532  17.583  67.735  0.00  0.00    +0.036 C 
ATOM     13  C   UNL     1      -8.951  18.331  66.500  0.00  0.00    -0.038 C 
ATOM     14  C   UNL     1      -8.466  19.533  66.237  0.00  0.00    +0.034 C 
ATOM     15  C   UNL     1      -7.176  19.924  66.782  0.00  0.00    +0.195 C 
ATOM     16  C   UNL     1      -6.510  18.977  67.668  0.00  0.00    +0.038 C 
ATOM     17  O   UNL     1      -6.483  20.746  66.106  0.00  0.00    -0.287 OA
ATOM     18  C   UNL     1     -10.405  18.131  66.193  0.00  0.00    +0.022 C 
ATOM     19  C   UNL     1      -9.506  17.943  68.743  0.00  0.00    +0.009 C 
ATOM     20  C   UNL     1      -7.120  17.854  68.006  0.00  0.00    -0.020 C 
ATOM     21  C   UNL     1     -10.581  16.660  66.004  0.00  0.00    +0.004 C 
ATOM     22  C   UNL     1     -10.002  13.647  67.996  0.00  0.00    +0.034 C 
ATOM     23  C   UNL     1     -11.078  14.189  68.907  0.00  0.00    +0.003 C 
ATOM     24  O   UNL     1     -10.183  12.666  65.397  0.00  0.00    -0.330 OA
ENDROOT
BRANCH   3  25
ATOM     25  C   UNL     1     -11.568  11.777  68.514  0.00  0.00    +0.210 C 
ATOM     26  O   UNL     1     -12.438  11.063  68.000  0.00  0.00    -0.291 OA
BRANCH  25  27
ATOM     27  C   UNL     1     -11.302  11.210  69.881  0.00  0.00    +0.248 C 
ATOM     28  O   UNL     1     -12.346  11.328  70.749  0.00  0.00    -0.212 OA
ENDBRANCH  25  27
ENDBRANCH   3  25
BRANCH   1  29
ATOM     29  C   UNL     1      -9.968  10.410  65.133  0.00  0.00    +0.061 C 
BRANCH  29  31
ATOM     30  C   UNL     1      -9.438  10.064  63.223  0.00  0.00    +0.000 C 
ATOM     31  C   UNL     1      -9.450  10.635  63.718  0.00  0.00    +0.005 C 
ENDBRANCH  29  31
ENDBRANCH   1  29
TORSDOF 4
ENDMDL
MODEL 7
REMARK VINA RESULT:      -6.7      2.246      7.627
REMARK  Name = 
REMARK  4 active torsions:
REMARK  status: ('A' for Active; 'I' for Inactive)
REMARK    1  A    between atoms: C_2  and  C_3
REMARK    2  A    between atoms: C_3  and  C_4
REMARK    3  A    between atoms: C_26  and  C_27
REMARK    4  A    between atoms: C_27  and  C_29
REMARK                            x       y       z     vdW  Elec       q    Type
REMARK                         _______ _______ _______ _____ _____    ______ ____
ROOT
ATOM      1  C   UNL     1      -5.556  17.804  65.805  0.00  0.00    +0.235 C 
ATOM      2  O   UNL     1      -6.028  18.617  66.993  0.00  0.00    -0.326 OA
ATOM      3  C   UNL     1      -6.755  17.900  67.761  0.00  0.00    +0.173 C 
ATOM      4  C   UNL     1      -5.567  16.783  67.933  0.00  0.00    +0.149 C 
ATOM      5  C   UNL     1      -6.630  15.557  68.284  0.00  0.00    +0.033 C 
ATOM      6  C   UNL     1      -7.496  15.796  66.940  0.00  0.00    +0.005 C 
ATOM      7  C   UNL     1      -8.931  15.071  67.442  0.00  0.00    +0.004 C 
ATOM      8  C   UNL     1      -9.478  15.344  65.888  0.00  0.00    +0.038 C 
ATOM      9  C   UNL     1     -10.154  16.897  66.116  0.00  0.00    +0.153 C 
ATOM     10  C   UNL     1      -8.774  17.706  66.443  0.00  0.00    +0.036 C 
ATOM     11  O   UNL     1     -10.551  16.747  67.562  0.00  0.00    -0.223 OA
ATOM     12  C   UNL     1     -10.847  14.520  66.034  0.00  0.00    +0.036 C 
ATOM     13  C   UNL     1     -10.342  13.118  65.829  0.00  0.00    -0.038 C 
ATOM     14  C   UNL     1     -11.105  12.197  65.264  0.00  0.00    +0.034 C 
ATOM     15  C   UNL     1     -12.174  12.601  64.365  0.00  0.00    +0.195 C 
ATOM     16  C   UNL     1     -12.398  14.031  64.193  0.00  0.00    +0.038 C 
ATOM     17  O   UNL     1     -12.482  11.800  63.429  0.00  0.00    -0.287 OA
ATOM     18  C   UNL     1      -9.501  12.654  66.980  0.00  0.00    +0.022 C 
ATOM     19  C   UNL     1     -11.430  14.520  67.359  0.00  0.00    +0.009 C 
ATOM     20  C   UNL     1     -11.694  14.897  64.902  0.00  0.00    -0.020 C 
ATOM     21  C   UNL     1      -8.363  13.618  67.066  0.00  0.00    +0.004 C 
ATOM     22  C   UNL     1      -7.980  17.229  67.504  0.00  0.00    +0.034 C 
ATOM     23  C   UNL     1      -8.579  17.005  68.872  0.00  0.00    +0.003 C 
ATOM     24  O   UNL     1      -5.512  16.447  66.479  0.00  0.00    -0.330 OA
ENDROOT
BRANCH   3  25
ATOM     25  C   UNL     1      -6.586  18.476  69.153  0.00  0.00    +0.210 C 
ATOM     26  O   UNL     1      -5.654  18.096  69.872  0.00  0.00    -0.291 OA
BRANCH  25  27
ATOM     27  C   UNL     1      -6.760  19.945  69.421  0.00  0.00    +0.248 C 
ATOM     28  O   UNL     1      -6.422  20.329  70.684  0.00  0.00    -0.212 OA
ENDBRANCH  25  27
ENDBRANCH   3  25
BRANCH   1  29
ATOM     29  C   UNL     1      -3.953  18.088  66.193  0.00  0.00    +0.061 C 
BRANCH  29  31
ATOM     30  C   UNL     1      -3.644  18.446  64.237  0.00  0.00    +0.000 C 
ATOM     31  C   UNL     1      -3.371  18.005  64.786  0.00  0.00    +0.005 C 
ENDBRANCH  29  31
ENDBRANCH   1  29
TORSDOF 4
ENDMDL
MODEL 8
REMARK VINA RESULT:      -6.7      5.620      8.181
REMARK  Name = 
REMARK  4 active torsions:
REMARK  status: ('A' for Active; 'I' for Inactive)
REMARK    1  A    between atoms: C_2  and  C_3
REMARK    2  A    between atoms: C_3  and  C_4
REMARK    3  A    between atoms: C_26  and  C_27
REMARK    4  A    between atoms: C_27  and  C_29
REMARK                            x       y       z     vdW  Elec       q    Type
REMARK                         _______ _______ _______ _____ _____    ______ ____
ROOT
ATOM      1  C   UNL     1     -12.374   7.261  70.245  0.00  0.00    +0.235 C 
ATOM      2  O   UNL     1     -10.926   7.082  70.651  0.00  0.00    -0.326 OA
ATOM      3  C   UNL     1     -10.290   8.183  70.521  0.00  0.00    +0.173 C 
ATOM      4  C   UNL     1     -11.341   8.969  71.503  0.00  0.00    +0.149 C 
ATOM      5  C   UNL     1     -11.022  10.452  70.826  0.00  0.00    +0.033 C 
ATOM      6  C   UNL     1     -11.351   9.943  69.327  0.00  0.00    +0.005 C 
ATOM      7  C   UNL     1     -10.496  11.119  68.478  0.00  0.00    +0.004 C 
ATOM      8  C   UNL     1     -11.137  10.427  67.100  0.00  0.00    +0.038 C 
ATOM      9  C   UNL     1      -9.912   9.276  66.789  0.00  0.00    +0.153 C 
ATOM     10  C   UNL     1     -10.126   8.345  68.113  0.00  0.00    +0.036 C 
ATOM     11  O   UNL     1      -8.749  10.041  67.366  0.00  0.00    -0.223 OA
ATOM     12  C   UNL     1     -10.609  11.544  66.077  0.00  0.00    +0.036 C 
ATOM     13  C   UNL     1     -11.653  12.608  66.276  0.00  0.00    -0.038 C 
ATOM     14  C   UNL     1     -12.008  13.405  65.282  0.00  0.00    +0.034 C 
ATOM     15  C   UNL     1     -11.839  12.962  63.908  0.00  0.00    +0.195 C 
ATOM     16  C   UNL     1     -11.205  11.666  63.697  0.00  0.00    +0.038 C 
ATOM     17  O   UNL     1     -12.660  13.407  63.047  0.00  0.00    -0.287 OA
ATOM     18  C   UNL     1     -11.543  13.254  67.625  0.00  0.00    +0.022 C 
ATOM     19  C   UNL     1      -9.357  12.172  66.441  0.00  0.00    +0.009 C 
ATOM     20  C   UNL     1     -10.741  10.986  64.731  0.00  0.00    -0.020 C 
ATOM     21  C   UNL     1     -11.717  12.151  68.617  0.00  0.00    +0.004 C 
ATOM     22  C   UNL     1     -10.057   8.980  69.369  0.00  0.00    +0.034 C 
ATOM     23  C   UNL     1      -8.863   9.829  69.736  0.00  0.00    +0.003 C 
ATOM     24  O   UNL     1     -12.526   8.719  70.628  0.00  0.00    -0.330 OA
ENDROOT
BRANCH   3  25
ATOM     25  C   UNL     1      -9.171   8.142  71.544  0.00  0.00    +0.210 C 
ATOM     26  O   UNL     1      -9.402   8.432  72.725  0.00  0.00    -0.291 OA
BRANCH  25  27
ATOM     27  C   UNL     1      -8.170   7.021  71.568  0.00  0.00    +0.248 C 
ATOM     28  O   UNL     1      -7.788   6.584  70.335  0.00  0.00    -0.212 OA
ENDBRANCH  25  27
ENDBRANCH   3  25
BRANCH   1  29
ATOM     29  C   UNL     1     -12.904   6.772  71.755  0.00  0.00    +0.061 C 
BRANCH  29  31
ATOM     30  C   UNL     1     -14.909   6.812  71.919  0.00  0.00    +0.000 C 
ATOM     31  C   UNL     1     -14.351   7.237  71.640  0.00  0.00    +0.005 C 
ENDBRANCH  29  31
ENDBRANCH   1  29
TORSDOF 4
ENDMDL
MODEL 9
REMARK VINA RESULT:      -6.6      2.486      7.153
REMARK  Name = 
REMARK  4 active torsions:
REMARK  status: ('A' for Active; 'I' for Inactive)
REMARK    1  A    between atoms: C_2  and  C_3
REMARK    2  A    between atoms: C_3  and  C_4
REMARK    3  A    between atoms: C_26  and  C_27
REMARK    4  A    between atoms: C_27  and  C_29
REMARK                            x       y       z     vdW  Elec       q    Type
REMARK                         _______ _______ _______ _____ _____    ______ ____
ROOT
ATOM      1  C   UNL     1      -7.086  17.503  66.091  0.00  0.00    +0.235 C 
ATOM      2  O   UNL     1      -8.385  18.250  66.317  0.00  0.00    -0.326 OA
ATOM      3  C   UNL     1      -9.182  17.547  67.027  0.00  0.00    +0.173 C 
ATOM      4  C   UNL     1      -8.076  17.411  68.231  0.00  0.00    +0.149 C 
ATOM      5  C   UNL     1      -8.728  15.997  68.808  0.00  0.00    +0.033 C 
ATOM      6  C   UNL     1      -8.638  15.260  67.372  0.00  0.00    +0.005 C 
ATOM      7  C   UNL     1      -9.802  14.071  67.635  0.00  0.00    +0.004 C 
ATOM      8  C   UNL     1      -9.358  13.468  66.142  0.00  0.00    +0.038 C 
ATOM      9  C   UNL     1     -10.447  14.354  65.167  0.00  0.00    +0.153 C 
ATOM     10  C   UNL     1      -9.844  15.846  65.441  0.00  0.00    +0.036 C 
ATOM     11  O   UNL     1     -11.567  14.491  66.166  0.00  0.00    -0.223 OA
ATOM     12  C   UNL     1     -10.232  12.125  66.226  0.00  0.00    +0.036 C 
ATOM     13  C   UNL     1      -9.329  11.268  67.069  0.00  0.00    -0.038 C 
ATOM     14  C   UNL     1      -9.295   9.955  66.909  0.00  0.00    +0.034 C 
ATOM     15  C   UNL     1      -9.672   9.376  65.630  0.00  0.00    +0.195 C 
ATOM     16  C   UNL     1     -10.147  10.288  64.597  0.00  0.00    +0.038 C 
ATOM     17  O   UNL     1      -9.111   8.286  65.297  0.00  0.00    -0.287 OA
ATOM     18  C   UNL     1      -9.257  11.756  68.485  0.00  0.00    +0.022 C 
ATOM     19  C   UNL     1     -11.461  12.234  66.982  0.00  0.00    +0.009 C 
ATOM     20  C   UNL     1     -10.295  11.573  64.873  0.00  0.00    -0.020 C 
ATOM     21  C   UNL     1      -8.735  13.153  68.406  0.00  0.00    +0.004 C 
ATOM     22  C   UNL     1      -9.750  16.270  66.782  0.00  0.00    +0.034 C 
ATOM     23  C   UNL     1     -10.953  16.213  67.693  0.00  0.00    +0.003 C 
ATOM     24  O   UNL     1      -7.067  16.710  67.382  0.00  0.00    -0.330 OA
ENDROOT
BRANCH   3  25
ATOM     25  C   UNL     1     -10.056  18.537  67.774  0.00  0.00    +0.210 C 
ATOM     26  O   UNL     1      -9.675  19.008  68.853  0.00  0.00    -0.291 OA
BRANCH  25  27
ATOM     27  C   UNL     1     -10.780  19.642  67.057  0.00  0.00    +0.248 C 
ATOM     28  O   UNL     1     -10.926  19.439  65.717  0.00  0.00    -0.212 OA
ENDBRANCH  25  27
ENDBRANCH   3  25
BRANCH   1  29
ATOM     29  C   UNL     1      -6.202  18.738  66.794  0.00  0.00    +0.061 C 
BRANCH  29  31
ATOM     30  C   UNL     1      -5.922  20.375  65.658  0.00  0.00    +0.000 C 
ATOM     31  C   UNL     1      -6.397  19.790  65.709  0.00  0.00    +0.005 C 
ENDBRANCH  29  31
ENDBRANCH   1  29
TORSDOF 4
ENDMDL
