MODEL 1
REMARK VINA RESULT:      -6.8      0.000      0.000
REMARK  Name = 
REMARK  7 active torsions:
REMARK  status: ('A' for Active; 'I' for Inactive)
REMARK    1  A    between atoms: C_4  and  C_5
REMARK    2  A    between atoms: C_9  and  C_10
REMARK    3  A    between atoms: C_10  and  O_12
REMARK    4  A    between atoms: O_12  and  C_13
REMARK    5  A    between atoms: C_13  and  C_14
REMARK    6  A    between atoms: C_18  and  O_19
REMARK    7  A    between atoms: O_19  and  C_20
REMARK                            x       y       z     vdW  Elec       q    Type
REMARK                         _______ _______ _______ _____ _____    ______ ____
ROOT
ATOM      1  C   UNL     1      -8.051  15.108  67.285  0.00  0.00    +0.235 C 
ENDROOT
BRANCH   1   2
ATOM      2  C   UNL     1      -9.510  14.832  67.386  0.00  0.00    +0.024 A 
ATOM      3  C   UNL     1     -10.393  15.709  67.987  0.00  0.00    +0.037 A 
ATOM      4  C   UNL     1     -11.477  15.156  68.657  0.00  0.00    +0.145 A 
ATOM      5  C   UNL     1     -11.941  13.899  68.307  0.00  0.00    +0.037 A 
ATOM      6  C   UNL     1     -11.354  13.269  67.216  0.00  0.00    +0.003 A 
ATOM      7  C   UNL     1     -10.042  13.614  67.006  0.00  0.00    -0.000 A 
BRANCH   4   8
ATOM      8  O   UNL     1     -12.297  15.935  69.442  0.00  0.00    -0.454 OA
BRANCH   8   9
ATOM      9  C   UNL     1     -12.550  15.635  70.776  0.00  0.00    +0.145 A 
ATOM     10  C   UNL     1     -13.811  15.178  71.106  0.00  0.00    +0.037 A 
ATOM     11  C   UNL     1     -13.960  14.554  72.340  0.00  0.00    +0.003 A 
ATOM     12  C   UNL     1     -12.993  14.757  73.294  0.00  0.00    +0.000 A 
ATOM     13  C   UNL     1     -12.052  15.744  73.093  0.00  0.00    +0.003 A 
ATOM     14  C   UNL     1     -11.771  16.128  71.789  0.00  0.00    +0.037 A 
ENDBRANCH   8   9
ENDBRANCH   4   8
ENDBRANCH   1   2
BRANCH   1  15
ATOM     15  O   UNL     1      -7.801  16.171  66.367  0.00  0.00    -0.443 OA
BRANCH  15  16
ATOM     16  C   UNL     1      -6.783  17.083  66.671  0.00  0.00    +0.317 C 
ATOM     17  O   UNL     1      -5.718  16.978  66.075  0.00  0.00    -0.250 OA
BRANCH  16  20
ATOM     18  C   UNL     1      -5.969  19.028  67.964  0.00  0.00    +0.001 C 
ATOM     19  C   UNL     1      -6.162  18.774  68.507  0.00  0.00    +0.015 C 
ATOM     20  C   UNL     1      -6.696  17.113  68.317  0.00  0.00    +0.103 C 
ATOM     21  C   UNL     1      -7.863  18.391  68.655  0.00  0.00    +0.035 C 
ATOM     22  C   UNL     1      -5.763  18.825  69.978  0.00  0.00    +0.001 C 
BRANCH  21  23
ATOM     23  C   UNL     1      -8.248  18.827  67.108  0.00  0.00    -0.003 C 
ATOM     24  C   UNL     1      -9.542  19.143  67.026  0.00  0.00    +0.111 C 
ATOM     25 CL   UNL     1     -10.550  18.534  65.705  0.00  0.00    -0.070 Cl
ATOM     26 CL   UNL     1     -10.133  20.411  68.064  0.00  0.00    -0.070 Cl
ENDBRANCH  21  23
ENDBRANCH  16  20
ENDBRANCH  15  16
ENDBRANCH   1  15
TORSDOF 7
ENDMDL
MODEL 2
REMARK VINA RESULT:      -6.8      3.210      4.949
REMARK  Name = 
REMARK  7 active torsions:
REMARK  status: ('A' for Active; 'I' for Inactive)
REMARK    1  A    between atoms: C_4  and  C_5
REMARK    2  A    between atoms: C_9  and  C_10
REMARK    3  A    between atoms: C_10  and  O_12
REMARK    4  A    between atoms: O_12  and  C_13
REMARK    5  A    between atoms: C_13  and  C_14
REMARK    6  A    between atoms: C_18  and  O_19
REMARK    7  A    between atoms: O_19  and  C_20
REMARK                            x       y       z     vdW  Elec       q    Type
REMARK                         _______ _______ _______ _____ _____    ______ ____
ROOT
ATOM      1  C   UNL     1     -10.072  10.708  68.977  0.00  0.00    +0.235 C 
ENDROOT
BRANCH   1   2
ATOM      2  C   UNL     1     -11.272  10.454  69.820  0.00  0.00    +0.024 A 
ATOM      3  C   UNL     1     -12.165  11.451  70.163  0.00  0.00    +0.037 A 
ATOM      4  C   UNL     1     -12.771  11.356  71.409  0.00  0.00    +0.145 A 
ATOM      5  C   UNL     1     -12.900  10.123  72.026  0.00  0.00    +0.037 A 
ATOM      6  C   UNL     1     -12.497   8.996  71.319  0.00  0.00    +0.003 A 
ATOM      7  C   UNL     1     -11.484   9.228  70.422  0.00  0.00    -0.000 A 
BRANCH   4   8
ATOM      8  O   UNL     1     -13.522  12.395  71.912  0.00  0.00    -0.454 OA
BRANCH   8   9
ATOM      9  C   UNL     1     -13.072  13.710  71.897  0.00  0.00    +0.145 A 
ATOM     10  C   UNL     1     -12.963  14.369  73.107  0.00  0.00    +0.037 A 
ATOM     11  C   UNL     1     -12.197  15.529  73.135  0.00  0.00    +0.003 A 
ATOM     12  C   UNL     1     -11.921  16.156  71.945  0.00  0.00    +0.000 A 
ATOM     13  C   UNL     1     -12.597  15.765  70.809  0.00  0.00    +0.003 A 
ATOM     14  C   UNL     1     -13.112  14.476  70.762  0.00  0.00    +0.037 A 
ENDBRANCH   8   9
ENDBRANCH   4   8
ENDBRANCH   1   2
BRANCH   1  15
ATOM     15  O   UNL     1     -10.369  11.648  67.945  0.00  0.00    -0.443 OA
BRANCH  15  16
ATOM     16  C   UNL     1      -9.499  12.728  67.762  0.00  0.00    +0.317 C 
ATOM     17  O   UNL     1      -8.302  12.545  67.957  0.00  0.00    -0.250 OA
BRANCH  16  20
ATOM     18  C   UNL     1      -9.253  15.092  67.079  0.00  0.00    +0.001 C 
ATOM     19  C   UNL     1      -9.692  15.278  67.490  0.00  0.00    +0.015 C 
ATOM     20  C   UNL     1     -10.183  13.989  68.574  0.00  0.00    +0.103 C 
ATOM     21  C   UNL     1     -11.288  14.579  67.333  0.00  0.00    +0.035 C 
ATOM     22  C   UNL     1     -10.019  16.530  68.299  0.00  0.00    +0.001 C 
BRANCH  21  23
ATOM     23  C   UNL     1     -10.881  13.560  66.097  0.00  0.00    -0.003 C 
ATOM     24  C   UNL     1     -11.812  13.599  65.142  0.00  0.00    +0.111 C 
ATOM     25 CL   UNL     1     -12.434  12.112  64.410  0.00  0.00    -0.070 Cl
ATOM     26 CL   UNL     1     -12.167  15.143  64.419  0.00  0.00    -0.070 Cl
ENDBRANCH  21  23
ENDBRANCH  16  20
ENDBRANCH  15  16
ENDBRANCH   1  15
TORSDOF 7
ENDMDL
MODEL 3
REMARK VINA RESULT:      -6.7      4.019      6.297
REMARK  Name = 
REMARK  7 active torsions:
REMARK  status: ('A' for Active; 'I' for Inactive)
REMARK    1  A    between atoms: C_4  and  C_5
REMARK    2  A    between atoms: C_9  and  C_10
REMARK    3  A    between atoms: C_10  and  O_12
REMARK    4  A    between atoms: O_12  and  C_13
REMARK    5  A    between atoms: C_13  and  C_14
REMARK    6  A    between atoms: C_18  and  O_19
REMARK    7  A    between atoms: O_19  and  C_20
REMARK                            x       y       z     vdW  Elec       q    Type
REMARK                         _______ _______ _______ _____ _____    ______ ____
ROOT
ATOM      1  C   UNL     1     -11.663  15.766  69.183  0.00  0.00    +0.235 C 
ENDROOT
BRANCH   1   2
ATOM      2  C   UNL     1     -11.909  15.160  70.520  0.00  0.00    +0.024 A 
ATOM      3  C   UNL     1     -12.201  13.820  70.687  0.00  0.00    +0.037 A 
ATOM      4  C   UNL     1     -13.062  13.485  71.724  0.00  0.00    +0.145 A 
ATOM      5  C   UNL     1     -13.188  14.323  72.820  0.00  0.00    +0.037 A 
ATOM      6  C   UNL     1     -12.361  15.438  72.884  0.00  0.00    +0.003 A 
ATOM      7  C   UNL     1     -11.994  15.938  71.659  0.00  0.00    -0.000 A 
BRANCH   4   8
ATOM      8  O   UNL     1     -13.559  12.207  71.848  0.00  0.00    -0.454 OA
BRANCH   8   9
ATOM      9  C   UNL     1     -12.813  11.085  71.504  0.00  0.00    +0.145 A 
ATOM     10  C   UNL     1     -12.173  11.087  70.279  0.00  0.00    +0.037 A 
ATOM     11  C   UNL     1     -11.164  10.150  70.085  0.00  0.00    +0.003 A 
ATOM     12  C   UNL     1     -11.114   9.064  70.924  0.00  0.00    +0.000 A 
ATOM     13  C   UNL     1     -12.182   8.812  71.757  0.00  0.00    +0.003 A 
ATOM     14  C   UNL     1     -13.000   9.875  72.117  0.00  0.00    +0.037 A 
ENDBRANCH   8   9
ENDBRANCH   4   8
ENDBRANCH   1   2
BRANCH   1  15
ATOM     15  O   UNL     1     -10.635  15.060  68.490  0.00  0.00    -0.443 OA
BRANCH  15  16
ATOM     16  C   UNL     1     -10.703  14.991  67.094  0.00  0.00    +0.317 C 
ATOM     17  O   UNL     1     -10.558  16.029  66.457  0.00  0.00    -0.250 OA
BRANCH  16  20
ATOM     18  C   UNL     1     -11.002  13.657  65.033  0.00  0.00    +0.001 C 
ATOM     19  C   UNL     1     -11.523  13.385  65.260  0.00  0.00    +0.015 C 
ATOM     20  C   UNL     1     -12.061  14.117  66.761  0.00  0.00    +0.103 C 
ATOM     21  C   UNL     1     -11.376  12.492  66.757  0.00  0.00    +0.035 C 
ATOM     22  C   UNL     1     -12.812  12.784  64.706  0.00  0.00    +0.001 C 
BRANCH  21  23
ATOM     23  C   UNL     1      -9.784  12.865  66.996  0.00  0.00    -0.003 C 
ATOM     24  C   UNL     1      -9.112  11.784  67.398  0.00  0.00    +0.111 C 
ATOM     25 CL   UNL     1      -7.974  11.866  68.751  0.00  0.00    -0.070 Cl
ATOM     26 CL   UNL     1      -9.148  10.379  66.370  0.00  0.00    -0.070 Cl
ENDBRANCH  21  23
ENDBRANCH  16  20
ENDBRANCH  15  16
ENDBRANCH   1  15
TORSDOF 7
ENDMDL
MODEL 4
REMARK VINA RESULT:      -6.7      2.690      4.996
REMARK  Name = 
REMARK  7 active torsions:
REMARK  status: ('A' for Active; 'I' for Inactive)
REMARK    1  A    between atoms: C_4  and  C_5
REMARK    2  A    between atoms: C_9  and  C_10
REMARK    3  A    between atoms: C_10  and  O_12
REMARK    4  A    between atoms: O_12  and  C_13
REMARK    5  A    between atoms: C_13  and  C_14
REMARK    6  A    between atoms: C_18  and  O_19
REMARK    7  A    between atoms: O_19  and  C_20
REMARK                            x       y       z     vdW  Elec       q    Type
REMARK                         _______ _______ _______ _____ _____    ______ ____
ROOT
ATOM      1  C   UNL     1     -10.322  17.386  65.938  0.00  0.00    +0.235 C 
ENDROOT
BRANCH   1   2
ATOM      2  C   UNL     1     -10.573  16.379  67.004  0.00  0.00    +0.024 A 
ATOM      3  C   UNL     1     -10.676  15.026  66.740  0.00  0.00    +0.037 A 
ATOM      4  C   UNL     1     -11.552  14.293  67.530  0.00  0.00    +0.145 A 
ATOM      5  C   UNL     1     -11.881  14.738  68.800  0.00  0.00    +0.037 A 
ATOM      6  C   UNL     1     -11.235  15.871  69.279  0.00  0.00    +0.003 A 
ATOM      7  C   UNL     1     -10.857  16.759  68.302  0.00  0.00    -0.000 A 
BRANCH   4   8
ATOM      8  O   UNL     1     -11.862  12.988  67.219  0.00  0.00    -0.454 OA
BRANCH   8   9
ATOM      9  C   UNL     1     -11.596  12.440  65.969  0.00  0.00    +0.145 A 
ATOM     10  C   UNL     1     -12.519  12.652  64.963  0.00  0.00    +0.037 A 
ATOM     11  C   UNL     1     -12.103  12.421  63.656  0.00  0.00    +0.003 A 
ATOM     12  C   UNL     1     -10.980  11.656  63.456  0.00  0.00    +0.000 A 
ATOM     13  C   UNL     1     -10.452  10.953  64.517  0.00  0.00    +0.003 A 
ATOM     14  C   UNL     1     -10.704  11.414  65.802  0.00  0.00    +0.037 A 
ENDBRANCH   8   9
ENDBRANCH   4   8
ENDBRANCH   1   2
BRANCH   1  15
ATOM     15  O   UNL     1      -8.971  17.843  65.984  0.00  0.00    -0.443 OA
BRANCH  15  16
ATOM     16  C   UNL     1      -8.723  19.131  66.474  0.00  0.00    +0.317 C 
ATOM     17  O   UNL     1      -9.620  19.963  66.391  0.00  0.00    -0.250 OA
BRANCH  16  20
ATOM     18  C   UNL     1      -7.165  20.696  67.589  0.00  0.00    +0.001 C 
ATOM     19  C   UNL     1      -6.705  20.560  67.181  0.00  0.00    +0.015 C 
ATOM     20  C   UNL     1      -7.263  19.569  65.845  0.00  0.00    +0.103 C 
ATOM     21  C   UNL     1      -6.194  18.891  67.072  0.00  0.00    +0.035 C 
ATOM     22  C   UNL     1      -5.487  21.260  66.584  0.00  0.00    +0.001 C 
BRANCH  21  23
ATOM     23  C   UNL     1      -7.323  18.321  68.135  0.00  0.00    -0.003 C 
ATOM     24  C   UNL     1      -6.777  17.408  68.942  0.00  0.00    +0.111 C 
ATOM     25 CL   UNL     1      -7.602  15.881  69.285  0.00  0.00    -0.070 Cl
ATOM     26 CL   UNL     1      -5.396  17.887  69.889  0.00  0.00    -0.070 Cl
ENDBRANCH  21  23
ENDBRANCH  16  20
ENDBRANCH  15  16
ENDBRANCH   1  15
TORSDOF 7
ENDMDL
MODEL 5
REMARK VINA RESULT:      -6.7      4.457      6.082
REMARK  Name = 
REMARK  7 active torsions:
REMARK  status: ('A' for Active; 'I' for Inactive)
REMARK    1  A    between atoms: C_4  and  C_5
REMARK    2  A    between atoms: C_9  and  C_10
REMARK    3  A    between atoms: C_10  and  O_12
REMARK    4  A    between atoms: O_12  and  C_13
REMARK    5  A    between atoms: C_13  and  C_14
REMARK    6  A    between atoms: C_18  and  O_19
REMARK    7  A    between atoms: O_19  and  C_20
REMARK                            x       y       z     vdW  Elec       q    Type
REMARK                         _______ _______ _______ _____ _____    ______ ____
ROOT
ATOM      1  C   UNL     1     -11.094  11.258  66.015  0.00  0.00    +0.235 C 
ENDROOT
BRANCH   1   2
ATOM      2  C   UNL     1     -10.520  10.497  67.158  0.00  0.00    +0.024 A 
ATOM      3  C   UNL     1     -11.215  10.282  68.333  0.00  0.00    +0.037 A 
ATOM      4  C   UNL     1     -10.474  10.238  69.507  0.00  0.00    +0.145 A 
ATOM      5  C   UNL     1      -9.133   9.894  69.469  0.00  0.00    +0.037 A 
ATOM      6  C   UNL     1      -8.594   9.507  68.248  0.00  0.00    +0.003 A 
ATOM      7  C   UNL     1      -9.201  10.082  67.158  0.00  0.00    -0.000 A 
BRANCH   4   8
ATOM      8  O   UNL     1     -11.095  10.220  70.736  0.00  0.00    -0.454 OA
BRANCH   8   9
ATOM      9  C   UNL     1     -11.997   9.225  71.096  0.00  0.00    +0.145 A 
ATOM     10  C   UNL     1     -13.105   9.595  71.834  0.00  0.00    +0.037 A 
ATOM     11  C   UNL     1     -14.163   8.695  71.891  0.00  0.00    +0.003 A 
ATOM     12  C   UNL     1     -13.922   7.385  71.559  0.00  0.00    +0.000 A 
ATOM     13  C   UNL     1     -12.619   6.958  71.419  0.00  0.00    +0.003 A 
ATOM     14  C   UNL     1     -11.651   7.900  71.097  0.00  0.00    +0.037 A 
ENDBRANCH   8   9
ENDBRANCH   4   8
ENDBRANCH   1   2
BRANCH   1  15
ATOM     15  O   UNL     1     -12.129  12.133  66.460  0.00  0.00    -0.443 OA
BRANCH  15  16
ATOM     16  C   UNL     1     -12.042  13.488  66.120  0.00  0.00    +0.317 C 
ATOM     17  O   UNL     1     -12.764  13.906  65.222  0.00  0.00    -0.250 OA
BRANCH  16  20
ATOM     18  C   UNL     1     -11.039  15.719  66.487  0.00  0.00    +0.001 C 
ATOM     19  C   UNL     1     -10.456  15.482  66.466  0.00  0.00    +0.015 C 
ATOM     20  C   UNL     1     -10.431  13.801  65.964  0.00  0.00    +0.103 C 
ATOM     21  C   UNL     1     -10.050  14.240  67.629  0.00  0.00    +0.035 C 
ATOM     22  C   UNL     1      -9.060  15.962  66.078  0.00  0.00    +0.001 C 
BRANCH  21  23
ATOM     23  C   UNL     1     -11.562  14.155  68.288  0.00  0.00    -0.003 C 
ATOM     24  C   UNL     1     -11.495  14.281  69.616  0.00  0.00    +0.111 C 
ATOM     25 CL   UNL     1     -12.400  13.200  70.684  0.00  0.00    -0.070 Cl
ATOM     26 CL   UNL     1     -10.751  15.721  70.255  0.00  0.00    -0.070 Cl
ENDBRANCH  21  23
ENDBRANCH  16  20
ENDBRANCH  15  16
ENDBRANCH   1  15
TORSDOF 7
ENDMDL
MODEL 6
REMARK VINA RESULT:      -6.7      2.570      5.921
REMARK  Name = 
REMARK  7 active torsions:
REMARK  status: ('A' for Active; 'I' for Inactive)
REMARK    1  A    between atoms: C_4  and  C_5
REMARK    2  A    between atoms: C_9  and  C_10
REMARK    3  A    between atoms: C_10  and  O_12
REMARK    4  A    between atoms: O_12  and  C_13
REMARK    5  A    between atoms: C_13  and  C_14
REMARK    6  A    between atoms: C_18  and  O_19
REMARK    7  A    between atoms: O_19  and  C_20
REMARK                            x       y       z     vdW  Elec       q    Type
REMARK                         _______ _______ _______ _____ _____    ______ ____
ROOT
ATOM      1  C   UNL     1     -11.788  11.882  69.592  0.00  0.00    +0.235 C 
ENDROOT
BRANCH   1   2
ATOM      2  C   UNL     1     -12.198  13.267  69.949  0.00  0.00    +0.024 A 
ATOM      3  C   UNL     1     -12.144  14.314  69.049  0.00  0.00    +0.037 A 
ATOM      4  C   UNL     1     -11.846  15.572  69.559  0.00  0.00    +0.145 A 
ATOM      5  C   UNL     1     -12.114  15.864  70.887  0.00  0.00    +0.037 A 
ATOM      6  C   UNL     1     -12.770  14.901  71.645  0.00  0.00    +0.003 A 
ATOM      7  C   UNL     1     -12.527  13.610  71.248  0.00  0.00    -0.000 A 
BRANCH   4   8
ATOM      8  O   UNL     1     -11.583  16.632  68.721  0.00  0.00    -0.454 OA
BRANCH   8   9
ATOM      9  C   UNL     1     -10.310  17.175  68.591  0.00  0.00    +0.145 A 
ATOM     10  C   UNL     1     -10.202  18.442  68.050  0.00  0.00    +0.037 A 
ATOM     11  C   UNL     1      -9.001  19.117  68.241  0.00  0.00    +0.003 A 
ATOM     12  C   UNL     1      -7.893  18.388  68.597  0.00  0.00    +0.000 A 
ATOM     13  C   UNL     1      -7.944  17.013  68.518  0.00  0.00    +0.003 A 
ATOM     14  C   UNL     1      -9.184  16.395  68.602  0.00  0.00    +0.037 A 
ENDBRANCH   8   9
ENDBRANCH   4   8
ENDBRANCH   1   2
BRANCH   1  15
ATOM     15  O   UNL     1     -11.971  11.645  68.197  0.00  0.00    -0.443 OA
BRANCH  15  16
ATOM     16  C   UNL     1     -10.913  11.077  67.478  0.00  0.00    +0.317 C 
ATOM     17  O   UNL     1     -10.915   9.862  67.311  0.00  0.00    -0.250 OA
BRANCH  16  20
ATOM     18  C   UNL     1      -8.741  11.151  66.297  0.00  0.00    +0.001 C 
ATOM     19  C   UNL     1      -8.492  11.529  66.736  0.00  0.00    +0.015 C 
ATOM     20  C   UNL     1      -9.541  11.719  68.129  0.00  0.00    +0.103 C 
ATOM     21  C   UNL     1      -9.284  13.063  67.017  0.00  0.00    +0.035 C 
ATOM     22  C   UNL     1      -7.113  11.819  67.320  0.00  0.00    +0.001 C 
BRANCH  21  23
ATOM     23  C   UNL     1     -10.523  12.786  65.961  0.00  0.00    -0.003 C 
ATOM     24  C   UNL     1     -11.139  13.932  65.661  0.00  0.00    +0.111 C 
ATOM     25 CL   UNL     1     -12.905  14.046  65.653  0.00  0.00    -0.070 Cl
ATOM     26 CL   UNL     1     -10.177  15.212  64.977  0.00  0.00    -0.070 Cl
ENDBRANCH  21  23
ENDBRANCH  16  20
ENDBRANCH  15  16
ENDBRANCH   1  15
TORSDOF 7
ENDMDL
MODEL 7
REMARK VINA RESULT:      -6.6      5.499      8.145
REMARK  Name = 
REMARK  7 active torsions:
REMARK  status: ('A' for Active; 'I' for Inactive)
REMARK    1  A    between atoms: C_4  and  C_5
REMARK    2  A    between atoms: C_9  and  C_10
REMARK    3  A    between atoms: C_10  and  O_12
REMARK    4  A    between atoms: O_12  and  C_13
REMARK    5  A    between atoms: C_13  and  C_14
REMARK    6  A    between atoms: C_18  and  O_19
REMARK    7  A    between atoms: O_19  and  C_20
REMARK                            x       y       z     vdW  Elec       q    Type
REMARK                         _______ _______ _______ _____ _____    ______ ____
ROOT
ATOM      1  C   UNL     1     -10.789  10.135  68.850  0.00  0.00    +0.235 C 
ENDROOT
BRANCH   1   2
ATOM      2  C   UNL     1     -10.958  11.464  68.203  0.00  0.00    +0.024 A 
ATOM      3  C   UNL     1     -10.763  12.652  68.881  0.00  0.00    +0.037 A 
ATOM      4  C   UNL     1     -11.562  13.728  68.516  0.00  0.00    +0.145 A 
ATOM      5  C   UNL     1     -12.114  13.783  67.247  0.00  0.00    +0.037 A 
ATOM      6  C   UNL     1     -11.762  12.790  66.340  0.00  0.00    +0.003 A 
ATOM      7  C   UNL     1     -11.457  11.583  66.919  0.00  0.00    -0.000 A 
BRANCH   4   8
ATOM      8  O   UNL     1     -11.573  14.887  69.260  0.00  0.00    -0.454 OA
BRANCH   8   9
ATOM      9  C   UNL     1     -12.176  14.959  70.511  0.00  0.00    +0.145 A 
ATOM     10  C   UNL     1     -11.406  15.392  71.573  0.00  0.00    +0.037 A 
ATOM     11  C   UNL     1     -12.075  15.797  72.723  0.00  0.00    +0.003 A 
ATOM     12  C   UNL     1     -13.379  15.402  72.890  0.00  0.00    +0.000 A 
ATOM     13  C   UNL     1     -13.899  14.436  72.056  0.00  0.00    +0.003 A 
ATOM     14  C   UNL     1     -13.326  14.275  70.801  0.00  0.00    +0.037 A 
ENDBRANCH   8   9
ENDBRANCH   4   8
ENDBRANCH   1   2
BRANCH   1  15
ATOM     15  O   UNL     1     -10.523  10.282  70.244  0.00  0.00    -0.443 OA
BRANCH  15  16
ATOM     16  C   UNL     1     -10.062   9.166  70.952  0.00  0.00    +0.317 C 
ATOM     17  O   UNL     1      -8.933   9.210  71.427  0.00  0.00    -0.250 OA
BRANCH  16  20
ATOM     18  C   UNL     1     -10.220   6.847  71.796  0.00  0.00    +0.001 C 
ATOM     19  C   UNL     1     -10.455   6.642  71.249  0.00  0.00    +0.015 C 
ATOM     20  C   UNL     1     -10.398   7.867  69.994  0.00  0.00    +0.103 C 
ATOM     21  C   UNL     1     -11.942   7.375  70.689  0.00  0.00    +0.035 C 
ATOM     22  C   UNL     1     -10.467   5.346  70.444  0.00  0.00    +0.001 C 
BRANCH  21  23
ATOM     23  C   UNL     1     -12.045   8.464  71.927  0.00  0.00    -0.003 C 
ATOM     24  C   UNL     1     -13.221   9.095  71.891  0.00  0.00    +0.111 C 
ATOM     25 CL   UNL     1     -13.324  10.850  72.086  0.00  0.00    -0.070 Cl
ATOM     26 CL   UNL     1     -14.663   8.121  71.961  0.00  0.00    -0.070 Cl
ENDBRANCH  21  23
ENDBRANCH  16  20
ENDBRANCH  15  16
ENDBRANCH   1  15
TORSDOF 7
ENDMDL
MODEL 8
REMARK VINA RESULT:      -6.6      3.131      4.361
REMARK  Name = 
REMARK  7 active torsions:
REMARK  status: ('A' for Active; 'I' for Inactive)
REMARK    1  A    between atoms: C_4  and  C_5
REMARK    2  A    between atoms: C_9  and  C_10
REMARK    3  A    between atoms: C_10  and  O_12
REMARK    4  A    between atoms: O_12  and  C_13
REMARK    5  A    between atoms: C_13  and  C_14
REMARK    6  A    between atoms: C_18  and  O_19
REMARK    7  A    between atoms: O_19  and  C_20
REMARK                            x       y       z     vdW  Elec       q    Type
REMARK                         _______ _______ _______ _____ _____    ______ ____
ROOT
ATOM      1  C   UNL     1      -9.659  15.002  69.248  0.00  0.00    +0.235 C 
ENDROOT
BRANCH   1   2
ATOM      2  C   UNL     1     -10.321  14.023  68.342  0.00  0.00    +0.024 A 
ATOM      3  C   UNL     1     -11.337  13.188  68.765  0.00  0.00    +0.037 A 
ATOM      4  C   UNL     1     -11.403  11.928  68.185  0.00  0.00    +0.145 A 
ATOM      5  C   UNL     1     -10.860  11.713  66.929  0.00  0.00    +0.037 A 
ATOM      6  C   UNL     1     -10.347  12.809  66.245  0.00  0.00    +0.003 A 
ATOM      7  C   UNL     1      -9.858  13.800  67.059  0.00  0.00    -0.000 A 
BRANCH   4   8
ATOM      8  O   UNL     1     -12.256  10.965  68.677  0.00  0.00    -0.454 OA
BRANCH   8   9
ATOM      9  C   UNL     1     -12.001  10.284  69.862  0.00  0.00    +0.145 A 
ATOM     10  C   UNL     1     -12.945  10.364  70.867  0.00  0.00    +0.037 A 
ATOM     11  C   UNL     1     -12.869   9.424  71.889  0.00  0.00    +0.003 A 
ATOM     12  C   UNL     1     -11.691   8.738  72.058  0.00  0.00    +0.000 A 
ATOM     13  C   UNL     1     -10.566   9.165  71.385  0.00  0.00    +0.003 A 
ATOM     14  C   UNL     1     -10.737   9.886  70.211  0.00  0.00    +0.037 A 
ENDBRANCH   8   9
ENDBRANCH   4   8
ENDBRANCH   1   2
BRANCH   1  15
ATOM     15  O   UNL     1      -9.191  16.132  68.513  0.00  0.00    -0.443 OA
BRANCH  15  16
ATOM     16  C   UNL     1     -10.016  17.260  68.437  0.00  0.00    +0.317 C 
ATOM     17  O   UNL     1     -11.111  17.213  68.987  0.00  0.00    -0.250 OA
BRANCH  16  20
ATOM     18  C   UNL     1     -10.450  19.566  67.653  0.00  0.00    +0.001 C 
ATOM     19  C   UNL     1     -10.273  19.421  67.066  0.00  0.00    +0.015 C 
ATOM     20  C   UNL     1     -10.019  17.699  66.848  0.00  0.00    +0.103 C 
ATOM     21  C   UNL     1      -8.650  18.809  66.842  0.00  0.00    +0.035 C 
ATOM     22  C   UNL     1     -10.588  19.889  65.648  0.00  0.00    +0.001 C 
BRANCH  21  23
ATOM     23  C   UNL     1      -8.276  18.792  68.452  0.00  0.00    -0.003 C 
ATOM     24  C   UNL     1      -7.002  19.148  68.634  0.00  0.00    +0.111 C 
ATOM     25 CL   UNL     1      -5.945  18.239  69.724  0.00  0.00    -0.070 Cl
ATOM     26 CL   UNL     1      -6.500  20.699  68.021  0.00  0.00    -0.070 Cl
ENDBRANCH  21  23
ENDBRANCH  16  20
ENDBRANCH  15  16
ENDBRANCH   1  15
TORSDOF 7
ENDMDL
MODEL 9
REMARK VINA RESULT:      -6.6      5.575      8.163
REMARK  Name = 
REMARK  7 active torsions:
REMARK  status: ('A' for Active; 'I' for Inactive)
REMARK    1  A    between atoms: C_4  and  C_5
REMARK    2  A    between atoms: C_9  and  C_10
REMARK    3  A    between atoms: C_10  and  O_12
REMARK    4  A    between atoms: O_12  and  C_13
REMARK    5  A    between atoms: C_13  and  C_14
REMARK    6  A    between atoms: C_18  and  O_19
REMARK    7  A    between atoms: O_19  and  C_20
REMARK                            x       y       z     vdW  Elec       q    Type
REMARK                         _______ _______ _______ _____ _____    ______ ____
ROOT
ATOM      1  C   UNL     1     -11.789  10.635  68.669  0.00  0.00    +0.235 C 
ENDROOT
BRANCH   1   2
ATOM      2  C   UNL     1     -11.520  12.007  68.160  0.00  0.00    +0.024 A 
ATOM      3  C   UNL     1     -11.376  13.096  68.998  0.00  0.00    +0.037 A 
ATOM      4  C   UNL     1     -11.827  14.322  68.525  0.00  0.00    +0.145 A 
ATOM      5  C   UNL     1     -11.909  14.553  67.162  0.00  0.00    +0.037 A 
ATOM      6  C   UNL     1     -11.438  13.565  66.305  0.00  0.00    +0.003 A 
ATOM      7  C   UNL     1     -11.538  12.291  66.807  0.00  0.00    -0.000 A 
BRANCH   4   8
ATOM      8  O   UNL     1     -11.901  15.418  69.356  0.00  0.00    -0.454 OA
BRANCH   8   9
ATOM      9  C   UNL     1     -12.330  15.321  70.675  0.00  0.00    +0.145 A 
ATOM     10  C   UNL     1     -13.638  14.938  70.901  0.00  0.00    +0.037 A 
ATOM     11  C   UNL     1     -13.964  14.505  72.181  0.00  0.00    +0.003 A 
ATOM     12  C   UNL     1     -13.118  14.829  73.213  0.00  0.00    +0.000 A 
ATOM     13  C   UNL     1     -12.125  15.760  72.997  0.00  0.00    +0.003 A 
ATOM     14  C   UNL     1     -11.668  15.944  71.699  0.00  0.00    +0.037 A 
ENDBRANCH   8   9
ENDBRANCH   4   8
ENDBRANCH   1   2
BRANCH   1  15
ATOM     15  O   UNL     1     -10.871  10.293  69.707  0.00  0.00    -0.443 OA
BRANCH  15  16
ATOM     16  C   UNL     1     -11.350   9.561  70.799  0.00  0.00    +0.317 C 
ATOM     17  O   UNL     1     -12.294  10.020  71.433  0.00  0.00    -0.250 OA
BRANCH  16  20
ATOM     18  C   UNL     1     -11.298   7.704  72.432  0.00  0.00    +0.001 C 
ATOM     19  C   UNL     1     -10.672   7.744  72.489  0.00  0.00    +0.015 C 
ATOM     20  C   UNL     1     -10.015   9.154  71.677  0.00  0.00    +0.103 C 
ATOM     21  C   UNL     1      -9.719   7.538  71.037  0.00  0.00    +0.035 C 
ATOM     22  C   UNL     1      -9.617   7.456  73.553  0.00  0.00    +0.001 C 
BRANCH  21  23
ATOM     23  C   UNL     1     -11.018   7.401  70.025  0.00  0.00    -0.003 C 
ATOM     24  C   UNL     1     -10.756   6.526  69.052  0.00  0.00    +0.111 C 
ATOM     25 CL   UNL     1     -11.147   6.889  67.365  0.00  0.00    -0.070 Cl
ATOM     26 CL   UNL     1     -10.312   4.907  69.518  0.00  0.00    -0.070 Cl
ENDBRANCH  21  23
ENDBRANCH  16  20
ENDBRANCH  15  16
ENDBRANCH   1  15
TORSDOF 7
ENDMDL
