MODEL 1
REMARK VINA RESULT:      -6.6      0.000      0.000
REMARK  Name = 
REMARK  2 active torsions:
REMARK  status: ('A' for Active; 'I' for Inactive)
REMARK    1  A    between atoms: N9_10  and  C1*_11
REMARK    2  A    between atoms: C4*_13  and  C5*_14
REMARK                            x       y       z     vdW  Elec       q    Type
REMARK                         _______ _______ _______ _____ _____    ______ ____
ROOT
ATOM      1  O6    I A   1     -14.307  15.954  72.529  0.00  0.00    -0.263 OA
ATOM      2  C6    I A   1     -13.775  15.164  72.165  0.00  0.00    +0.301 A 
ATOM      3  C5    I A   1     -12.748  15.320  71.241  0.00  0.00    +0.175 A 
ATOM      4  N7    I A   1     -12.003  16.385  70.879  0.00  0.00    -0.217 NA
ATOM      5  C8    I A   1     -11.412  16.042  69.735  0.00  0.00    +0.182 A 
ATOM      6  N9    I A   1     -11.334  14.693  69.595  0.00  0.00    -0.269 N 
ATOM      7  C4    I A   1     -12.205  14.250  70.540  0.00  0.00    +0.171 A 
ATOM      8  N3    I A   1     -12.519  13.003  70.964  0.00  0.00    -0.205 NA
ATOM      9  C2    I A   1     -13.402  12.833  71.965  0.00  0.00    +0.203 A 
ATOM     10  N1    I A   1     -14.027  13.877  72.509  0.00  0.00    -0.184 NA
ENDROOT
BRANCH   6  11
ATOM     11  C1*   I A   1     -11.731  14.100  68.143  0.00  0.00    +0.241 C 
ATOM     12  C2*   I A   1     -10.201  14.596  67.456  0.00  0.00    +0.234 C 
ATOM     13  O2*   I A   1     -10.880  15.584  66.531  0.00  0.00    -0.216 OA
ATOM     14  C3*   I A   1     -10.182  13.243  66.379  0.00  0.00    +0.216 C 
ATOM     15  O3*   I A   1     -10.988  13.882  65.261  0.00  0.00    -0.218 OA
ATOM     16  C4*   I A   1     -11.633  12.558  67.050  0.00  0.00    +0.183 C 
ATOM     17  O4*   I A   1     -11.089  12.728  68.475  0.00  0.00    -0.331 OA
BRANCH  16  18
ATOM     18  C5*   I A   1     -11.021  11.007  66.943  0.00  0.00    +0.214 C 
ATOM     19  O5*   I A   1     -11.730  10.404  67.976  0.00  0.00    -0.218 OA
ENDBRANCH  16  18
ENDBRANCH   6  11
TORSDOF 2
ENDMDL
MODEL 2
REMARK VINA RESULT:      -6.6      3.578      4.394
REMARK  Name = 
REMARK  2 active torsions:
REMARK  status: ('A' for Active; 'I' for Inactive)
REMARK    1  A    between atoms: N9_10  and  C1*_11
REMARK    2  A    between atoms: C4*_13  and  C5*_14
REMARK                            x       y       z     vdW  Elec       q    Type
REMARK                         _______ _______ _______ _____ _____    ______ ____
ROOT
ATOM      1  O6    I A   1     -10.639  19.296  67.860  0.00  0.00    -0.263 OA
ATOM      2  C6    I A   1     -10.340  18.321  67.883  0.00  0.00    +0.301 A 
ATOM      3  C5    I A   1     -10.402  17.496  66.766  0.00  0.00    +0.175 A 
ATOM      4  N7    I A   1     -10.497  17.757  65.445  0.00  0.00    -0.217 NA
ATOM      5  C8    I A   1     -10.851  16.607  64.873  0.00  0.00    +0.182 A 
ATOM      6  N9    I A   1     -10.517  15.539  65.644  0.00  0.00    -0.269 N 
ATOM      7  C4    I A   1     -10.258  16.117  66.847  0.00  0.00    +0.171 A 
ATOM      8  N3    I A   1      -9.793  15.606  68.011  0.00  0.00    -0.205 NA
ATOM      9  C2    I A   1      -9.580  16.414  69.066  0.00  0.00    +0.203 A 
ATOM     10  N1    I A   1      -9.882  17.711  69.003  0.00  0.00    -0.184 NA
ENDROOT
BRANCH   6  11
ATOM     11  C1*   I A   1     -11.643  14.390  65.803  0.00  0.00    +0.241 C 
ATOM     12  C2*   I A   1     -11.259  13.712  64.237  0.00  0.00    +0.234 C 
ATOM     13  O2*   I A   1     -12.622  14.080  63.688  0.00  0.00    -0.216 OA
ATOM     14  C3*   I A   1     -11.645  12.113  64.771  0.00  0.00    +0.216 C 
ATOM     15  O3*   I A   1     -13.134  12.172  64.475  0.00  0.00    -0.218 OA
ATOM     16  C4*   I A   1     -11.939  12.621  66.409  0.00  0.00    +0.183 C 
ATOM     17  O4*   I A   1     -10.621  13.407  66.431  0.00  0.00    -0.331 OA
BRANCH  16  18
ATOM     18  C5*   I A   1     -11.198  11.256  67.027  0.00  0.00    +0.214 C 
ATOM     19  O5*   I A   1     -12.059  10.981  68.082  0.00  0.00    -0.218 OA
ENDBRANCH  16  18
ENDBRANCH   6  11
TORSDOF 2
ENDMDL
MODEL 3
REMARK VINA RESULT:      -6.4      1.372      1.490
REMARK  Name = 
REMARK  2 active torsions:
REMARK  status: ('A' for Active; 'I' for Inactive)
REMARK    1  A    between atoms: N9_10  and  C1*_11
REMARK    2  A    between atoms: C4*_13  and  C5*_14
REMARK                            x       y       z     vdW  Elec       q    Type
REMARK                         _______ _______ _______ _____ _____    ______ ____
ROOT
ATOM      1  O6    I A   1     -13.733  14.581  73.005  0.00  0.00    -0.263 OA
ATOM      2  C6    I A   1     -13.232  14.075  72.275  0.00  0.00    +0.301 A 
ATOM      3  C5    I A   1     -12.330  14.700  71.421  0.00  0.00    +0.175 A 
ATOM      4  N7    I A   1     -11.659  15.868  71.500  0.00  0.00    -0.217 NA
ATOM      5  C8    I A   1     -11.206  16.111  70.271  0.00  0.00    +0.182 A 
ATOM      6  N9    I A   1     -11.116  14.972  69.535  0.00  0.00    -0.269 N 
ATOM      7  C4    I A   1     -11.854  14.093  70.265  0.00  0.00    +0.171 A 
ATOM      8  N3    I A   1     -12.085  12.768  70.116  0.00  0.00    -0.205 NA
ATOM      9  C2    I A   1     -12.833  12.107  71.018  0.00  0.00    +0.203 A 
ATOM     10  N1    I A   1     -13.410  12.754  72.031  0.00  0.00    -0.184 NA
ENDROOT
BRANCH   6  11
ATOM     11  C1*   I A   1     -11.675  15.053  68.020  0.00  0.00    +0.241 C 
ATOM     12  C2*   I A   1     -10.073  15.334  67.379  0.00  0.00    +0.234 C 
ATOM     13  O2*   I A   1     -10.448  16.726  66.915  0.00  0.00    -0.216 OA
ATOM     14  C3*   I A   1     -10.447  14.490  65.917  0.00  0.00    +0.216 C 
ATOM     15  O3*   I A   1     -11.045  15.669  65.169  0.00  0.00    -0.218 OA
ATOM     16  C4*   I A   1     -12.029  14.024  66.470  0.00  0.00    +0.183 C 
ATOM     17  O4*   I A   1     -11.449  13.534  67.804  0.00  0.00    -0.331 OA
BRANCH  16  18
ATOM     18  C5*   I A   1     -11.884  12.505  65.788  0.00  0.00    +0.214 C 
ATOM     19  O5*   I A   1     -12.993  12.519  64.950  0.00  0.00    -0.218 OA
ENDBRANCH  16  18
ENDBRANCH   6  11
TORSDOF 2
ENDMDL
MODEL 4
REMARK VINA RESULT:      -6.1      2.599      4.574
REMARK  Name = 
REMARK  2 active torsions:
REMARK  status: ('A' for Active; 'I' for Inactive)
REMARK    1  A    between atoms: N9_10  and  C1*_11
REMARK    2  A    between atoms: C4*_13  and  C5*_14
REMARK                            x       y       z     vdW  Elec       q    Type
REMARK                         _______ _______ _______ _____ _____    ______ ____
ROOT
ATOM      1  O6    I A   1     -12.089  12.268  70.621  0.00  0.00    -0.263 OA
ATOM      2  C6    I A   1     -12.196  13.264  70.430  0.00  0.00    +0.301 A 
ATOM      3  C5    I A   1     -11.972  13.809  69.171  0.00  0.00    +0.175 A 
ATOM      4  N7    I A   1     -11.924  13.263  67.938  0.00  0.00    -0.217 NA
ATOM      5  C8    I A   1     -11.354  14.181  67.157  0.00  0.00    +0.182 A 
ATOM      6  N9    I A   1     -11.480  15.430  67.676  0.00  0.00    -0.269 N 
ATOM      7  C4    I A   1     -11.849  15.177  68.960  0.00  0.00    +0.171 A 
ATOM      8  N3    I A   1     -12.211  15.999  69.973  0.00  0.00    -0.205 NA
ATOM      9  C2    I A   1     -12.579  15.485  71.161  0.00  0.00    +0.203 A 
ATOM     10  N1    I A   1     -12.532  14.171  71.380  0.00  0.00    -0.184 NA
ENDROOT
BRANCH   6  11
ATOM     11  C1*   I A   1     -10.154  16.356  67.645  0.00  0.00    +0.241 C 
ATOM     12  C2*   I A   1     -10.394  16.747  65.957  0.00  0.00    +0.234 C 
ATOM     13  O2*   I A   1      -9.125  16.023  65.557  0.00  0.00    -0.216 OA
ATOM     14  C3*   I A   1      -9.710  18.321  66.166  0.00  0.00    +0.216 C 
ATOM     15  O3*   I A   1      -8.259  17.924  65.955  0.00  0.00    -0.218 OA
ATOM     16  C4*   I A   1      -9.527  18.126  67.885  0.00  0.00    +0.183 C 
ATOM     17  O4*   I A   1     -10.971  17.622  68.010  0.00  0.00    -0.331 OA
BRANCH  16  18
ATOM     18  C5*   I A   1      -9.995  19.704  68.173  0.00  0.00    +0.214 C 
ATOM     19  O5*   I A   1      -9.870  19.734  69.557  0.00  0.00    -0.218 OA
ENDBRANCH  16  18
ENDBRANCH   6  11
TORSDOF 2
ENDMDL
MODEL 5
REMARK VINA RESULT:      -6.1      4.430      6.251
REMARK  Name = 
REMARK  2 active torsions:
REMARK  status: ('A' for Active; 'I' for Inactive)
REMARK    1  A    between atoms: N9_10  and  C1*_11
REMARK    2  A    between atoms: C4*_13  and  C5*_14
REMARK                            x       y       z     vdW  Elec       q    Type
REMARK                         _______ _______ _______ _____ _____    ______ ____
ROOT
ATOM      1  O6    I A   1     -12.050  11.858  66.215  0.00  0.00    -0.263 OA
ATOM      2  C6    I A   1     -11.810  12.761  65.806  0.00  0.00    +0.301 A 
ATOM      3  C5    I A   1     -10.631  13.429  66.115  0.00  0.00    +0.175 A 
ATOM      4  N7    I A   1      -9.464  13.016  66.653  0.00  0.00    -0.217 NA
ATOM      5  C8    I A   1      -8.824  14.124  67.024  0.00  0.00    +0.182 A 
ATOM      6  N9    I A   1      -9.261  15.211  66.335  0.00  0.00    -0.269 N 
ATOM      7  C4    I A   1     -10.419  14.761  65.784  0.00  0.00    +0.171 A 
ATOM      8  N3    I A   1     -11.287  15.334  64.917  0.00  0.00    -0.205 NA
ATOM      9  C2    I A   1     -12.360  14.648  64.484  0.00  0.00    +0.203 A 
ATOM     10  N1    I A   1     -12.621  13.425  64.947  0.00  0.00    -0.184 NA
ENDROOT
BRANCH   6  11
ATOM     11  C1*   I A   1      -9.533  16.548  67.203  0.00  0.00    +0.241 C 
ATOM     12  C2*   I A   1      -7.881  17.087  67.002  0.00  0.00    +0.234 C 
ATOM     13  O2*   I A   1      -7.602  16.948  68.484  0.00  0.00    -0.216 OA
ATOM     14  C3*   I A   1      -8.363  18.748  67.009  0.00  0.00    +0.216 C 
ATOM     15  O3*   I A   1      -8.333  18.945  68.515  0.00  0.00    -0.218 OA
ATOM     16  C4*   I A   1     -10.058  18.362  67.081  0.00  0.00    +0.183 C 
ATOM     17  O4*   I A   1      -9.906  17.355  65.933  0.00  0.00    -0.331 OA
BRANCH  16  18
ATOM     18  C5*   I A   1     -10.443  19.595  66.020  0.00  0.00    +0.214 C 
ATOM     19  O5*   I A   1     -11.016  18.851  64.996  0.00  0.00    -0.218 OA
ENDBRANCH  16  18
ENDBRANCH   6  11
TORSDOF 2
ENDMDL
MODEL 6
REMARK VINA RESULT:      -5.8      2.805      3.657
REMARK  Name = 
REMARK  2 active torsions:
REMARK  status: ('A' for Active; 'I' for Inactive)
REMARK    1  A    between atoms: N9_10  and  C1*_11
REMARK    2  A    between atoms: C4*_13  and  C5*_14
REMARK                            x       y       z     vdW  Elec       q    Type
REMARK                         _______ _______ _______ _____ _____    ______ ____
ROOT
ATOM      1  O6    I A   1     -12.811  11.289  71.379  0.00  0.00    -0.263 OA
ATOM      2  C6    I A   1     -12.155  11.107  70.619  0.00  0.00    +0.301 A 
ATOM      3  C5    I A   1     -11.888  12.040  69.625  0.00  0.00    +0.175 A 
ATOM      4  N7    I A   1     -12.076  13.375  69.554  0.00  0.00    -0.217 NA
ATOM      5  C8    I A   1     -11.951  13.691  68.266  0.00  0.00    +0.182 A 
ATOM      6  N9    I A   1     -11.228  12.762  67.588  0.00  0.00    -0.269 N 
ATOM      7  C4    I A   1     -11.217  11.713  68.453  0.00  0.00    +0.171 A 
ATOM      8  N3    I A   1     -10.592  10.513  68.408  0.00  0.00    -0.205 NA
ATOM      9  C2    I A   1     -10.713   9.649  69.432  0.00  0.00    +0.203 A 
ATOM     10  N1    I A   1     -11.497   9.931  70.473  0.00  0.00    -0.184 NA
ENDROOT
BRANCH   6  11
ATOM     11  C1*   I A   1     -11.816  12.302  66.154  0.00  0.00    +0.241 C 
ATOM     12  C2*   I A   1     -11.684  13.924  65.512  0.00  0.00    +0.234 C 
ATOM     13  O2*   I A   1     -13.187  14.046  65.375  0.00  0.00    -0.216 OA
ATOM     14  C3*   I A   1     -11.351  13.328  63.923  0.00  0.00    +0.216 C 
ATOM     15  O3*   I A   1     -12.795  13.177  63.474  0.00  0.00    -0.218 OA
ATOM     16  C4*   I A   1     -11.326  11.667  64.439  0.00  0.00    +0.183 C 
ATOM     17  O4*   I A   1     -10.394  12.015  65.608  0.00  0.00    -0.331 OA
BRANCH  16  18
ATOM     18  C5*   I A   1     -10.032  11.316  63.441  0.00  0.00    +0.214 C 
ATOM     19  O5*   I A   1      -9.813   9.992  63.802  0.00  0.00    -0.218 OA
ENDBRANCH  16  18
ENDBRANCH   6  11
TORSDOF 2
ENDMDL
MODEL 7
REMARK VINA RESULT:      -5.7      6.196      7.804
REMARK  Name = 
REMARK  2 active torsions:
REMARK  status: ('A' for Active; 'I' for Inactive)
REMARK    1  A    between atoms: N9_10  and  C1*_11
REMARK    2  A    between atoms: C4*_13  and  C5*_14
REMARK                            x       y       z     vdW  Elec       q    Type
REMARK                         _______ _______ _______ _____ _____    ______ ____
ROOT
ATOM      1  O6    I A   1      -4.287  21.802  71.083  0.00  0.00    -0.263 OA
ATOM      2  C6    I A   1      -4.676  20.884  70.872  0.00  0.00    +0.301 A 
ATOM      3  C5    I A   1      -5.367  20.621  69.695  0.00  0.00    +0.175 A 
ATOM      4  N7    I A   1      -5.415  21.255  68.505  0.00  0.00    -0.217 NA
ATOM      5  C8    I A   1      -6.478  20.760  67.872  0.00  0.00    +0.182 A 
ATOM      6  N9    I A   1      -6.820  19.535  68.349  0.00  0.00    -0.269 N 
ATOM      7  C4    I A   1      -6.127  19.471  69.516  0.00  0.00    +0.171 A 
ATOM      8  N3    I A   1      -5.972  18.475  70.420  0.00  0.00    -0.205 NA
ATOM      9  C2    I A   1      -5.183  18.655  71.495  0.00  0.00    +0.203 A 
ATOM     10  N1    I A   1      -4.595  19.830  71.720  0.00  0.00    -0.184 NA
ENDROOT
BRANCH   6  11
ATOM     11  C1*   I A   1      -8.395  19.284  68.616  0.00  0.00    +0.241 C 
ATOM     12  C2*   I A   1      -8.751  19.300  66.904  0.00  0.00    +0.234 C 
ATOM     13  O2*   I A   1      -9.580  20.561  67.037  0.00  0.00    -0.216 OA
ATOM     14  C3*   I A   1     -10.032  18.155  67.100  0.00  0.00    +0.216 C 
ATOM     15  O3*   I A   1     -11.128  19.156  67.424  0.00  0.00    -0.218 OA
ATOM     16  C4*   I A   1      -9.714  17.937  68.797  0.00  0.00    +0.183 C 
ATOM     17  O4*   I A   1      -8.216  17.746  68.521  0.00  0.00    -0.331 OA
BRANCH  16  18
ATOM     18  C5*   I A   1      -9.997  16.293  68.699  0.00  0.00    +0.214 C 
ATOM     19  O5*   I A   1     -10.753  16.118  69.851  0.00  0.00    -0.218 OA
ENDBRANCH  16  18
ENDBRANCH   6  11
TORSDOF 2
ENDMDL
MODEL 8
REMARK VINA RESULT:      -5.7      1.830      2.231
REMARK  Name = 
REMARK  2 active torsions:
REMARK  status: ('A' for Active; 'I' for Inactive)
REMARK    1  A    between atoms: N9_10  and  C1*_11
REMARK    2  A    between atoms: C4*_13  and  C5*_14
REMARK                            x       y       z     vdW  Elec       q    Type
REMARK                         _______ _______ _______ _____ _____    ______ ____
ROOT
ATOM      1  O6    I A   1     -13.258  15.921  70.862  0.00  0.00    -0.263 OA
ATOM      2  C6    I A   1     -12.755  15.112  70.498  0.00  0.00    +0.301 A 
ATOM      3  C5    I A   1     -12.060  15.145  69.295  0.00  0.00    +0.175 A 
ATOM      4  N7    I A   1     -11.589  16.162  68.543  0.00  0.00    -0.217 NA
ATOM      5  C8    I A   1     -11.308  15.633  67.352  0.00  0.00    +0.182 A 
ATOM      6  N9    I A   1     -11.102  14.292  67.436  0.00  0.00    -0.269 N 
ATOM      7  C4    I A   1     -11.606  13.994  68.663  0.00  0.00    +0.171 A 
ATOM      8  N3    I A   1     -11.625  12.843  69.375  0.00  0.00    -0.205 NA
ATOM      9  C2    I A   1     -12.159  12.822  70.610  0.00  0.00    +0.203 A 
ATOM     10  N1    I A   1     -12.732  13.910  71.124  0.00  0.00    -0.184 NA
ENDROOT
BRANCH   6  11
ATOM     11  C1*   I A   1     -11.814  13.386  66.301  0.00  0.00    +0.241 C 
ATOM     12  C2*   I A   1     -11.127  14.351  65.014  0.00  0.00    +0.234 C 
ATOM     13  O2*   I A   1     -12.494  14.837  64.580  0.00  0.00    -0.216 OA
ATOM     14  C3*   I A   1     -11.022  12.980  63.965  0.00  0.00    +0.216 C 
ATOM     15  O3*   I A   1     -12.428  13.071  63.398  0.00  0.00    -0.218 OA
ATOM     16  C4*   I A   1     -11.576  11.873  65.188  0.00  0.00    +0.183 C 
ATOM     17  O4*   I A   1     -10.580  12.452  66.203  0.00  0.00    -0.331 OA
BRANCH  16  18
ATOM     18  C5*   I A   1     -10.485  10.703  64.706  0.00  0.00    +0.214 C 
ATOM     19  O5*   I A   1     -10.259  10.078  65.926  0.00  0.00    -0.218 OA
ENDBRANCH  16  18
ENDBRANCH   6  11
TORSDOF 2
ENDMDL
MODEL 9
REMARK VINA RESULT:      -5.7      2.411      4.183
REMARK  Name = 
REMARK  2 active torsions:
REMARK  status: ('A' for Active; 'I' for Inactive)
REMARK    1  A    between atoms: N9_10  and  C1*_11
REMARK    2  A    between atoms: C4*_13  and  C5*_14
REMARK                            x       y       z     vdW  Elec       q    Type
REMARK                         _______ _______ _______ _____ _____    ______ ____
ROOT
ATOM      1  O6    I A   1     -13.201  12.341  72.495  0.00  0.00    -0.263 OA
ATOM      2  C6    I A   1     -13.309  13.235  72.016  0.00  0.00    +0.301 A 
ATOM      3  C5    I A   1     -12.657  13.525  70.823  0.00  0.00    +0.175 A 
ATOM      4  N7    I A   1     -12.084  12.742  69.885  0.00  0.00    -0.217 NA
ATOM      5  C8    I A   1     -11.334  13.556  69.143  0.00  0.00    +0.182 A 
ATOM      6  N9    I A   1     -11.759  14.844  69.225  0.00  0.00    -0.269 N 
ATOM      7  C4    I A   1     -12.578  14.813  70.309  0.00  0.00    +0.171 A 
ATOM      8  N3    I A   1     -13.377  15.756  70.863  0.00  0.00    -0.205 NA
ATOM      9  C2    I A   1     -14.136  15.454  71.933  0.00  0.00    +0.203 A 
ATOM     10  N1    I A   1     -14.066  14.250  72.501  0.00  0.00    -0.184 NA
ENDROOT
BRANCH   6  11
ATOM     11  C1*   I A   1     -10.611  15.966  69.419  0.00  0.00    +0.241 C 
ATOM     12  C2*   I A   1      -9.639  15.281  68.136  0.00  0.00    +0.234 C 
ATOM     13  O2*   I A   1      -8.539  14.901  69.105  0.00  0.00    -0.216 OA
ATOM     14  C3*   I A   1      -9.030  16.837  67.689  0.00  0.00    +0.216 C 
ATOM     15  O3*   I A   1      -7.868  16.871  68.667  0.00  0.00    -0.218 OA
ATOM     16  C4*   I A   1     -10.036  17.673  68.837  0.00  0.00    +0.183 C 
ATOM     17  O4*   I A   1     -11.271  16.894  68.366  0.00  0.00    -0.331 OA
BRANCH  16  18
ATOM     18  C5*   I A   1     -10.339  18.912  67.757  0.00  0.00    +0.214 C 
ATOM     19  O5*   I A   1     -10.415  19.980  68.643  0.00  0.00    -0.218 OA
ENDBRANCH  16  18
ENDBRANCH   6  11
TORSDOF 2
ENDMDL
