MODEL 1
REMARK VINA RESULT:      -6.5      0.000      0.000
REMARK  Name = 
REMARK  6 active torsions:
REMARK  status: ('A' for Active; 'I' for Inactive)
REMARK    1  A    between atoms: C_2  and  C_4
REMARK    2  A    between atoms: C_8  and  C_9
REMARK    3  A    between atoms: C_12  and  S_13
REMARK    4  A    between atoms: S_13  and  C_14
REMARK    5  A    between atoms: C_14  and  C_15
REMARK    6  A    between atoms: C_15  and  N_16
REMARK                            x       y       z     vdW  Elec       q    Type
REMARK                         _______ _______ _______ _____ _____    ______ ____
ROOT
ATOM      1  C   UNL     1     -11.688  12.384  65.730  0.00  0.00    +0.126 C 
ATOM      2  C   UNL     1     -12.215  13.918  66.182  0.00  0.00    +0.096 C 
ATOM      3  N   UNL     1     -10.714  14.315  66.104  0.00  0.00    -0.254 N 
ATOM      4  C   UNL     1     -10.785  15.444  67.007  0.00  0.00    +0.136 C 
ATOM      5  C   UNL     1     -11.543  15.141  68.070  0.00  0.00    +0.025 C 
ATOM      6  C   UNL     1     -12.037  13.736  67.800  0.00  0.00    +0.055 C 
ATOM      7  C   UNL     1     -10.255  12.954  66.006  0.00  0.00    +0.233 C 
ATOM      8  O   UNL     1      -9.178  12.370  66.143  0.00  0.00    -0.274 OA
ENDROOT
BRANCH   1  10
ATOM      9  C   UNL     1     -11.108  11.424  63.500  0.00  0.00    +0.036 C 
ATOM     10  C   UNL     1     -11.710  12.833  64.076  0.00  0.00    +0.162 C 
ATOM     11  O   UNL     1     -13.122  12.321  63.925  0.00  0.00    -0.223 OA
ENDBRANCH   1  10
BRANCH   4  12
ATOM     12  C   UNL     1     -10.009  16.627  66.726  0.00  0.00    +0.401 C 
ATOM     13  O   UNL     1      -8.885  17.031  67.461  0.00  0.00    -0.239 OA
ATOM     14  O   UNL     1     -10.279  17.464  65.812  0.00  0.00    -0.239 OA
ENDBRANCH   4  12
BRANCH   5  15
ATOM     15  S   UNL     1     -11.463  15.942  69.641  0.00  0.00    -0.115 S 
BRANCH  15  16
ATOM     16  C   UNL     1     -12.020  15.097  71.055  0.00  0.00    +0.085 C 
BRANCH  16  17
ATOM     17  C   UNL     1     -13.247  15.555  71.778  0.00  0.00    +0.126 C 
BRANCH  17  18
ATOM     18  N   UNL     1     -13.234  14.859  73.051  0.00  0.00    -0.216 NA
ATOM     19  C   UNL     1     -12.427  15.253  74.144  0.00  0.00    +0.204 C 
ATOM     20  N   UNL     1     -12.502  16.532  74.371  0.00  0.00    -0.127 NA
ENDBRANCH  17  18
ENDBRANCH  16  17
ENDBRANCH  15  16
ENDBRANCH   5  15
TORSDOF 6
ENDMDL
MODEL 2
REMARK VINA RESULT:      -6.4      3.092      5.944
REMARK  Name = 
REMARK  6 active torsions:
REMARK  status: ('A' for Active; 'I' for Inactive)
REMARK    1  A    between atoms: C_2  and  C_4
REMARK    2  A    between atoms: C_8  and  C_9
REMARK    3  A    between atoms: C_12  and  S_13
REMARK    4  A    between atoms: S_13  and  C_14
REMARK    5  A    between atoms: C_14  and  C_15
REMARK    6  A    between atoms: C_15  and  N_16
REMARK                            x       y       z     vdW  Elec       q    Type
REMARK                         _______ _______ _______ _____ _____    ______ ____
ROOT
ATOM      1  C   UNL     1     -11.891  14.481  70.769  0.00  0.00    +0.126 C 
ATOM      2  C   UNL     1     -11.958  15.313  69.306  0.00  0.00    +0.096 C 
ATOM      3  N   UNL     1     -12.214  13.917  68.673  0.00  0.00    -0.254 N 
ATOM      4  C   UNL     1     -11.736  14.238  67.344  0.00  0.00    +0.136 C 
ATOM      5  C   UNL     1     -10.608  14.958  67.418  0.00  0.00    +0.025 C 
ATOM      6  C   UNL     1     -10.379  15.158  68.900  0.00  0.00    +0.055 C 
ATOM      7  C   UNL     1     -11.867  13.197  69.871  0.00  0.00    +0.233 C 
ATOM      8  O   UNL     1     -11.580  12.032  70.153  0.00  0.00    -0.274 OA
ENDROOT
BRANCH   1  10
ATOM      9  C   UNL     1     -13.686  13.718  72.327  0.00  0.00    +0.036 C 
ATOM     10  C   UNL     1     -13.598  14.533  70.909  0.00  0.00    +0.162 C 
ATOM     11  O   UNL     1     -13.527  15.851  71.642  0.00  0.00    -0.223 OA
ENDBRANCH   1  10
BRANCH   4  12
ATOM     12  C   UNL     1     -12.421  13.699  66.194  0.00  0.00    +0.401 C 
ATOM     13  O   UNL     1     -12.355  12.358  65.790  0.00  0.00    -0.239 OA
ATOM     14  O   UNL     1     -13.124  14.383  65.390  0.00  0.00    -0.239 OA
ENDBRANCH   4  12
BRANCH   5  15
ATOM     15  S   UNL     1      -9.398  15.091  66.141  0.00  0.00    -0.115 S 
BRANCH  15  16
ATOM     16  C   UNL     1      -8.223  16.370  66.213  0.00  0.00    +0.085 C 
BRANCH  16  17
ATOM     17  C   UNL     1      -8.470  17.582  67.055  0.00  0.00    +0.126 C 
BRANCH  17  18
ATOM     18  N   UNL     1      -9.076  18.557  66.169  0.00  0.00    -0.216 NA
ATOM     19  C   UNL     1     -10.458  18.860  66.175  0.00  0.00    +0.204 C 
ATOM     20  N   UNL     1     -10.911  19.055  67.379  0.00  0.00    -0.127 NA
ENDBRANCH  17  18
ENDBRANCH  16  17
ENDBRANCH  15  16
ENDBRANCH   5  15
TORSDOF 6
ENDMDL
MODEL 3
REMARK VINA RESULT:      -6.3      2.774      5.332
REMARK  Name = 
REMARK  6 active torsions:
REMARK  status: ('A' for Active; 'I' for Inactive)
REMARK    1  A    between atoms: C_2  and  C_4
REMARK    2  A    between atoms: C_8  and  C_9
REMARK    3  A    between atoms: C_12  and  S_13
REMARK    4  A    between atoms: S_13  and  C_14
REMARK    5  A    between atoms: C_14  and  C_15
REMARK    6  A    between atoms: C_15  and  N_16
REMARK                            x       y       z     vdW  Elec       q    Type
REMARK                         _______ _______ _______ _____ _____    ______ ____
ROOT
ATOM      1  C   UNL     1      -8.329  19.064  67.945  0.00  0.00    +0.126 C 
ATOM      2  C   UNL     1      -8.467  17.415  67.630  0.00  0.00    +0.096 C 
ATOM      3  N   UNL     1      -9.487  17.842  66.537  0.00  0.00    -0.254 N 
ATOM      4  C   UNL     1     -10.216  16.593  66.482  0.00  0.00    +0.136 C 
ATOM      5  C   UNL     1     -10.424  16.121  67.719  0.00  0.00    +0.025 C 
ATOM      6  C   UNL     1      -9.730  17.113  68.628  0.00  0.00    +0.055 C 
ATOM      7  C   UNL     1      -9.576  19.200  67.008  0.00  0.00    +0.233 C 
ATOM      8  O   UNL     1     -10.347  20.147  66.839  0.00  0.00    -0.274 OA
ENDROOT
BRANCH   1  10
ATOM      9  C   UNL     1      -6.847  20.817  66.963  0.00  0.00    +0.036 C 
ATOM     10  C   UNL     1      -7.178  19.236  66.687  0.00  0.00    +0.162 C 
ATOM     11  O   UNL     1      -6.061  18.815  67.612  0.00  0.00    -0.223 OA
ENDBRANCH   1  10
BRANCH   4  12
ATOM     12  C   UNL     1     -10.682  16.099  65.209  0.00  0.00    +0.401 C 
ATOM     13  O   UNL     1     -10.549  14.772  64.777  0.00  0.00    -0.239 OA
ATOM     14  O   UNL     1     -11.225  16.816  64.314  0.00  0.00    -0.239 OA
ENDBRANCH   4  12
BRANCH   5  15
ATOM     15  S   UNL     1     -11.698  14.990  68.179  0.00  0.00    -0.115 S 
BRANCH  15  16
ATOM     16  C   UNL     1     -11.962  14.645  69.862  0.00  0.00    +0.085 C 
BRANCH  16  17
ATOM     17  C   UNL     1     -12.306  15.744  70.817  0.00  0.00    +0.126 C 
BRANCH  17  18
ATOM     18  N   UNL     1     -13.697  15.534  71.172  0.00  0.00    -0.216 NA
ATOM     19  C   UNL     1     -14.142  14.453  71.969  0.00  0.00    +0.204 C 
ATOM     20  N   UNL     1     -13.413  14.300  73.036  0.00  0.00    -0.127 NA
ENDBRANCH  17  18
ENDBRANCH  16  17
ENDBRANCH  15  16
ENDBRANCH   5  15
TORSDOF 6
ENDMDL
MODEL 4
REMARK VINA RESULT:      -6.3      4.420      5.619
REMARK  Name = 
REMARK  6 active torsions:
REMARK  status: ('A' for Active; 'I' for Inactive)
REMARK    1  A    between atoms: C_2  and  C_4
REMARK    2  A    between atoms: C_8  and  C_9
REMARK    3  A    between atoms: C_12  and  S_13
REMARK    4  A    between atoms: S_13  and  C_14
REMARK    5  A    between atoms: C_14  and  C_15
REMARK    6  A    between atoms: C_15  and  N_16
REMARK                            x       y       z     vdW  Elec       q    Type
REMARK                         _______ _______ _______ _____ _____    ______ ____
ROOT
ATOM      1  C   UNL     1     -10.214  14.917  65.686  0.00  0.00    +0.126 C 
ATOM      2  C   UNL     1      -9.493  15.637  67.027  0.00  0.00    +0.096 C 
ATOM      3  N   UNL     1     -10.334  16.887  66.645  0.00  0.00    -0.254 N 
ATOM      4  C   UNL     1      -9.486  17.870  67.285  0.00  0.00    +0.136 C 
ATOM      5  C   UNL     1      -8.196  17.595  67.049  0.00  0.00    +0.025 C 
ATOM      6  C   UNL     1      -8.220  16.312  66.247  0.00  0.00    +0.055 C 
ATOM      7  C   UNL     1     -10.711  16.365  65.357  0.00  0.00    +0.233 C 
ATOM      8  O   UNL     1     -11.186  16.829  64.318  0.00  0.00    -0.274 OA
ENDROOT
BRANCH   1  10
ATOM      9  C   UNL     1     -12.397  13.737  65.411  0.00  0.00    +0.036 C 
ATOM     10  C   UNL     1     -11.589  14.495  66.617  0.00  0.00    +0.162 C 
ATOM     11  O   UNL     1     -10.944  13.196  67.036  0.00  0.00    -0.223 OA
ENDBRANCH   1  10
BRANCH   4  12
ATOM     12  C   UNL     1     -10.088  18.996  67.958  0.00  0.00    +0.401 C 
ATOM     13  O   UNL     1      -9.676  19.486  69.206  0.00  0.00    -0.239 OA
ATOM     14  O   UNL     1     -11.087  19.645  67.522  0.00  0.00    -0.239 OA
ENDBRANCH   4  12
BRANCH   5  15
ATOM     15  S   UNL     1      -6.873  18.760  67.126  0.00  0.00    -0.115 S 
BRANCH  15  16
ATOM     16  C   UNL     1      -6.084  19.051  68.647  0.00  0.00    +0.085 C 
BRANCH  16  17
ATOM     17  C   UNL     1      -5.911  20.447  69.158  0.00  0.00    +0.126 C 
BRANCH  17  18
ATOM     18  N   UNL     1      -6.102  20.365  70.594  0.00  0.00    -0.216 NA
ATOM     19  C   UNL     1      -5.077  20.636  71.531  0.00  0.00    +0.204 C 
ATOM     20  N   UNL     1      -4.445  21.740  71.259  0.00  0.00    -0.127 NA
ENDBRANCH  17  18
ENDBRANCH  16  17
ENDBRANCH  15  16
ENDBRANCH   5  15
TORSDOF 6
ENDMDL
MODEL 5
REMARK VINA RESULT:      -5.9      3.471      5.510
REMARK  Name = 
REMARK  6 active torsions:
REMARK  status: ('A' for Active; 'I' for Inactive)
REMARK    1  A    between atoms: C_2  and  C_4
REMARK    2  A    between atoms: C_8  and  C_9
REMARK    3  A    between atoms: C_12  and  S_13
REMARK    4  A    between atoms: S_13  and  C_14
REMARK    5  A    between atoms: C_14  and  C_15
REMARK    6  A    between atoms: C_15  and  N_16
REMARK                            x       y       z     vdW  Elec       q    Type
REMARK                         _______ _______ _______ _____ _____    ______ ____
ROOT
ATOM      1  C   UNL     1      -9.461  16.948  67.301  0.00  0.00    +0.126 C 
ATOM      2  C   UNL     1      -9.495  15.961  65.937  0.00  0.00    +0.096 C 
ATOM      3  N   UNL     1     -10.989  15.731  66.300  0.00  0.00    -0.254 N 
ATOM      4  C   UNL     1     -11.137  14.457  65.630  0.00  0.00    +0.136 C 
ATOM      5  C   UNL     1     -10.066  13.684  65.857  0.00  0.00    +0.025 C 
ATOM      6  C   UNL     1      -9.141  14.548  66.688  0.00  0.00    +0.055 C 
ATOM      7  C   UNL     1     -10.869  16.332  67.603  0.00  0.00    +0.233 C 
ATOM      8  O   UNL     1     -11.540  16.346  68.637  0.00  0.00    -0.274 OA
ENDROOT
BRANCH   1  10
ATOM      9  C   UNL     1     -10.033  19.358  67.617  0.00  0.00    +0.036 C 
ATOM     10  C   UNL     1     -10.069  18.269  66.394  0.00  0.00    +0.162 C 
ATOM     11  O   UNL     1      -8.672  18.660  65.972  0.00  0.00    -0.223 OA
ENDBRANCH   1  10
BRANCH   4  12
ATOM     12  C   UNL     1     -12.368  14.158  64.939  0.00  0.00    +0.401 C 
ATOM     13  O   UNL     1     -12.488  14.044  63.546  0.00  0.00    -0.239 OA
ATOM     14  O   UNL     1     -13.493  14.009  65.505  0.00  0.00    -0.239 OA
ENDBRANCH   4  12
BRANCH   5  15
ATOM     15  S   UNL     1     -10.034  11.924  65.741  0.00  0.00    -0.115 S 
BRANCH  15  16
ATOM     16  C   UNL     1      -9.165  11.008  66.936  0.00  0.00    +0.085 C 
BRANCH  16  17
ATOM     17  C   UNL     1      -9.527  11.113  68.384  0.00  0.00    +0.126 C 
BRANCH  17  18
ATOM     18  N   UNL     1     -10.952  10.845  68.451  0.00  0.00    -0.216 NA
ATOM     19  C   UNL     1     -11.858  11.638  69.194  0.00  0.00    +0.204 C 
ATOM     20  N   UNL     1     -11.684  12.910  68.979  0.00  0.00    -0.127 NA
ENDBRANCH  17  18
ENDBRANCH  16  17
ENDBRANCH  15  16
ENDBRANCH   5  15
TORSDOF 6
ENDMDL
MODEL 6
REMARK VINA RESULT:      -5.9      3.824      7.506
REMARK  Name = 
REMARK  6 active torsions:
REMARK  status: ('A' for Active; 'I' for Inactive)
REMARK    1  A    between atoms: C_2  and  C_4
REMARK    2  A    between atoms: C_8  and  C_9
REMARK    3  A    between atoms: C_12  and  S_13
REMARK    4  A    between atoms: S_13  and  C_14
REMARK    5  A    between atoms: C_14  and  C_15
REMARK    6  A    between atoms: C_15  and  N_16
REMARK                            x       y       z     vdW  Elec       q    Type
REMARK                         _______ _______ _______ _____ _____    ______ ____
ROOT
ATOM      1  C   UNL     1      -9.409  16.896  67.296  0.00  0.00    +0.126 C 
ATOM      2  C   UNL     1      -9.465  15.883  65.951  0.00  0.00    +0.096 C 
ATOM      3  N   UNL     1     -10.967  15.706  66.311  0.00  0.00    -0.254 N 
ATOM      4  C   UNL     1     -11.150  14.423  65.665  0.00  0.00    +0.136 C 
ATOM      5  C   UNL     1     -10.104  13.624  65.913  0.00  0.00    +0.025 C 
ATOM      6  C   UNL     1      -9.158  14.476  66.732  0.00  0.00    +0.055 C 
ATOM      7  C   UNL     1     -10.836  16.328  67.602  0.00  0.00    +0.233 C 
ATOM      8  O   UNL     1     -11.512  16.383  68.632  0.00  0.00    -0.274 OA
ENDROOT
BRANCH   1  10
ATOM      9  C   UNL     1      -9.920  19.325  67.564  0.00  0.00    +0.036 C 
ATOM     10  C   UNL     1      -9.972  18.216  66.360  0.00  0.00    +0.162 C 
ATOM     11  O   UNL     1      -8.561  18.563  65.947  0.00  0.00    -0.223 OA
ENDBRANCH   1  10
BRANCH   4  12
ATOM     12  C   UNL     1     -12.387  14.148  64.973  0.00  0.00    +0.401 C 
ATOM     13  O   UNL     1     -12.509  14.044  63.580  0.00  0.00    -0.239 OA
ATOM     14  O   UNL     1     -13.513  14.014  65.539  0.00  0.00    -0.239 OA
ENDBRANCH   4  12
BRANCH   5  15
ATOM     15  S   UNL     1     -10.124  11.861  65.831  0.00  0.00    -0.115 S 
BRANCH  15  16
ATOM     16  C   UNL     1     -10.532  11.085  64.330  0.00  0.00    +0.085 C 
BRANCH  16  17
ATOM     17  C   UNL     1      -9.751  11.375  63.088  0.00  0.00    +0.126 C 
BRANCH  17  18
ATOM     18  N   UNL     1      -8.688  10.389  63.055  0.00  0.00    -0.216 NA
ATOM     19  C   UNL     1      -8.822   9.121  62.442  0.00  0.00    +0.204 C 
ATOM     20  N   UNL     1      -9.347   9.206  61.254  0.00  0.00    -0.127 NA
ENDBRANCH  17  18
ENDBRANCH  16  17
ENDBRANCH  15  16
ENDBRANCH   5  15
TORSDOF 6
ENDMDL
MODEL 7
REMARK VINA RESULT:      -5.9      3.390      4.682
REMARK  Name = 
REMARK  6 active torsions:
REMARK  status: ('A' for Active; 'I' for Inactive)
REMARK    1  A    between atoms: C_2  and  C_4
REMARK    2  A    between atoms: C_8  and  C_9
REMARK    3  A    between atoms: C_12  and  S_13
REMARK    4  A    between atoms: S_13  and  C_14
REMARK    5  A    between atoms: C_14  and  C_15
REMARK    6  A    between atoms: C_15  and  N_16
REMARK                            x       y       z     vdW  Elec       q    Type
REMARK                         _______ _______ _______ _____ _____    ______ ____
ROOT
ATOM      1  C   UNL     1     -11.215  13.585  64.601  0.00  0.00    +0.126 C 
ATOM      2  C   UNL     1     -10.293  13.470  66.006  0.00  0.00    +0.096 C 
ATOM      3  N   UNL     1     -11.660  13.368  66.739  0.00  0.00    -0.254 N 
ATOM      4  C   UNL     1     -11.202  13.843  68.028  0.00  0.00    +0.136 C 
ATOM      5  C   UNL     1     -10.384  14.892  67.872  0.00  0.00    +0.025 C 
ATOM      6  C   UNL     1     -10.266  15.066  66.374  0.00  0.00    +0.055 C 
ATOM      7  C   UNL     1     -12.424  13.755  65.582  0.00  0.00    +0.233 C 
ATOM      8  O   UNL     1     -13.573  14.148  65.371  0.00  0.00    -0.274 OA
ENDROOT
BRANCH   1  10
ATOM      9  C   UNL     1     -12.396  11.842  63.260  0.00  0.00    +0.036 C 
ATOM     10  C   UNL     1     -11.337  11.878  64.509  0.00  0.00    +0.162 C 
ATOM     11  O   UNL     1     -10.170  11.817  63.554  0.00  0.00    -0.223 OA
ENDBRANCH   1  10
BRANCH   4  12
ATOM     12  C   UNL     1     -11.723  13.241  69.232  0.00  0.00    +0.401 C 
ATOM     13  O   UNL     1     -12.476  13.924  70.197  0.00  0.00    -0.239 OA
ATOM     14  O   UNL     1     -11.523  12.038  69.579  0.00  0.00    -0.239 OA
ENDBRANCH   4  12
BRANCH   5  15
ATOM     15  S   UNL     1     -10.046  16.114  69.101  0.00  0.00    -0.115 S 
BRANCH  15  16
ATOM     16  C   UNL     1      -9.131  17.526  68.666  0.00  0.00    +0.085 C 
BRANCH  16  17
ATOM     17  C   UNL     1      -9.776  18.876  68.658  0.00  0.00    +0.126 C 
BRANCH  17  18
ATOM     18  N   UNL     1     -10.731  18.847  67.566  0.00  0.00    -0.216 NA
ATOM     19  C   UNL     1     -10.569  19.586  66.371  0.00  0.00    +0.204 C 
ATOM     20  N   UNL     1      -9.371  19.461  65.878  0.00  0.00    -0.127 NA
ENDBRANCH  17  18
ENDBRANCH  16  17
ENDBRANCH  15  16
ENDBRANCH   5  15
TORSDOF 6
ENDMDL
MODEL 8
REMARK VINA RESULT:      -5.8      3.644      6.694
REMARK  Name = 
REMARK  6 active torsions:
REMARK  status: ('A' for Active; 'I' for Inactive)
REMARK    1  A    between atoms: C_2  and  C_4
REMARK    2  A    between atoms: C_8  and  C_9
REMARK    3  A    between atoms: C_12  and  S_13
REMARK    4  A    between atoms: S_13  and  C_14
REMARK    5  A    between atoms: C_14  and  C_15
REMARK    6  A    between atoms: C_15  and  N_16
REMARK                            x       y       z     vdW  Elec       q    Type
REMARK                         _______ _______ _______ _____ _____    ______ ____
ROOT
ATOM      1  C   UNL     1      -8.352  18.907  68.385  0.00  0.00    +0.126 C 
ATOM      2  C   UNL     1      -8.472  17.287  67.938  0.00  0.00    +0.096 C 
ATOM      3  N   UNL     1      -9.415  17.802  66.815  0.00  0.00    -0.254 N 
ATOM      4  C   UNL     1     -10.141  16.566  66.617  0.00  0.00    +0.136 C 
ATOM      5  C   UNL     1     -10.434  16.005  67.799  0.00  0.00    +0.025 C 
ATOM      6  C   UNL     1      -9.801  16.920  68.823  0.00  0.00    +0.055 C 
ATOM      7  C   UNL     1      -9.533  19.121  67.379  0.00  0.00    +0.233 C 
ATOM      8  O   UNL     1     -10.288  20.084  67.230  0.00  0.00    -0.274 OA
ENDROOT
BRANCH   1  10
ATOM      9  C   UNL     1      -6.860  20.741  67.584  0.00  0.00    +0.036 C 
ATOM     10  C   UNL     1      -7.118  19.164  67.224  0.00  0.00    +0.162 C 
ATOM     11  O   UNL     1      -6.058  18.739  68.212  0.00  0.00    -0.223 OA
ENDBRANCH   1  10
BRANCH   4  12
ATOM     12  C   UNL     1     -10.522  16.172  65.282  0.00  0.00    +0.401 C 
ATOM     13  O   UNL     1     -11.248  16.980  64.395  0.00  0.00    -0.239 OA
ATOM     14  O   UNL     1     -10.286  15.035  64.772  0.00  0.00    -0.239 OA
ENDBRANCH   4  12
BRANCH   5  15
ATOM     15  S   UNL     1     -11.739  14.852  68.085  0.00  0.00    -0.115 S 
BRANCH  15  16
ATOM     16  C   UNL     1     -11.392  13.149  68.049  0.00  0.00    +0.085 C 
BRANCH  16  17
ATOM     17  C   UNL     1     -10.960  12.489  66.778  0.00  0.00    +0.126 C 
BRANCH  17  18
ATOM     18  N   UNL     1     -12.182  12.202  66.050  0.00  0.00    -0.216 NA
ATOM     19  C   UNL     1     -12.301  12.334  64.647  0.00  0.00    +0.204 C 
ATOM     20  N   UNL     1     -11.304  11.782  64.018  0.00  0.00    -0.127 NA
ENDBRANCH  17  18
ENDBRANCH  16  17
ENDBRANCH  15  16
ENDBRANCH   5  15
TORSDOF 6
ENDMDL
MODEL 9
REMARK VINA RESULT:      -5.8      4.729      5.767
REMARK  Name = 
REMARK  6 active torsions:
REMARK  status: ('A' for Active; 'I' for Inactive)
REMARK    1  A    between atoms: C_2  and  C_4
REMARK    2  A    between atoms: C_8  and  C_9
REMARK    3  A    between atoms: C_12  and  S_13
REMARK    4  A    between atoms: S_13  and  C_14
REMARK    5  A    between atoms: C_14  and  C_15
REMARK    6  A    between atoms: C_15  and  N_16
REMARK                            x       y       z     vdW  Elec       q    Type
REMARK                         _______ _______ _______ _____ _____    ______ ____
ROOT
ATOM      1  C   UNL     1     -12.094   8.808  72.021  0.00  0.00    +0.126 C 
ATOM      2  C   UNL     1     -12.769   9.725  70.780  0.00  0.00    +0.096 C 
ATOM      3  N   UNL     1     -11.334   9.733  70.182  0.00  0.00    -0.254 N 
ATOM      4  C   UNL     1     -11.479  10.942  69.399  0.00  0.00    +0.136 C 
ATOM      5  C   UNL     1     -12.124  11.880  70.107  0.00  0.00    +0.025 C 
ATOM      6  C   UNL     1     -12.464  11.203  71.417  0.00  0.00    +0.055 C 
ATOM      7  C   UNL     1     -10.724   9.210  71.377  0.00  0.00    +0.233 C 
ATOM      8  O   UNL     1      -9.578   9.131  71.825  0.00  0.00    -0.274 OA
ENDROOT
BRANCH   1  10
ATOM      9  C   UNL     1     -11.668   6.357  72.230  0.00  0.00    +0.036 C 
ATOM     10  C   UNL     1     -12.277   7.375  71.100  0.00  0.00    +0.162 C 
ATOM     11  O   UNL     1     -13.674   7.173  71.637  0.00  0.00    -0.223 OA
ENDBRANCH   1  10
BRANCH   4  12
ATOM     12  C   UNL     1     -10.869  11.019  68.094  0.00  0.00    +0.401 C 
ATOM     13  O   UNL     1      -9.496  11.203  67.870  0.00  0.00    -0.239 OA
ATOM     14  O   UNL     1     -11.506  10.977  66.998  0.00  0.00    -0.239 OA
ENDBRANCH   4  12
BRANCH   5  15
ATOM     15  S   UNL     1     -12.037  13.618  69.815  0.00  0.00    -0.115 S 
BRANCH  15  16
ATOM     16  C   UNL     1     -12.150  14.712  71.161  0.00  0.00    +0.085 C 
BRANCH  16  17
ATOM     17  C   UNL     1     -13.446  14.892  71.887  0.00  0.00    +0.126 C 
BRANCH  17  18
ATOM     18  N   UNL     1     -13.199  14.445  73.245  0.00  0.00    -0.216 NA
ATOM     19  C   UNL     1     -12.407  15.165  74.169  0.00  0.00    +0.204 C 
ATOM     20  N   UNL     1     -12.718  16.429  74.198  0.00  0.00    -0.127 NA
ENDBRANCH  17  18
ENDBRANCH  16  17
ENDBRANCH  15  16
ENDBRANCH   5  15
TORSDOF 6
ENDMDL
