MODEL 1
REMARK VINA RESULT:      -6.8      0.000      0.000
REMARK  Name = 
REMARK  1 active torsions:
REMARK  status: ('A' for Active; 'I' for Inactive)
REMARK    1  A    between atoms: C_2  and  C_3
REMARK                            x       y       z     vdW  Elec       q    Type
REMARK                         _______ _______ _______ _____ _____    ______ ____
ROOT
ATOM      1  C   UNL     1      -6.734  20.297  66.918  0.00  0.00    +0.180 C 
ATOM      2  C   UNL     1      -7.943  19.581  67.416  0.00  0.00    +0.037 C 
ATOM      3  C   UNL     1      -7.509  18.219  66.649  0.00  0.00    +0.004 C 
ATOM      4  C   UNL     1      -8.562  17.250  67.530  0.00  0.00    +0.004 C 
ATOM      5  C   UNL     1      -9.897  17.763  66.634  0.00  0.00    +0.022 C 
ATOM      6  C   UNL     1     -10.213  19.022  67.610  0.00  0.00    +0.004 C 
ATOM      7  C   UNL     1     -10.858  16.751  67.406  0.00  0.00    -0.026 A 
ATOM      8  C   UNL     1     -10.662  15.545  66.731  0.00  0.00    -0.023 A 
ATOM      9  C   UNL     1     -11.139  14.396  67.339  0.00  0.00    +0.037 A 
ATOM     10  C   UNL     1     -11.640  14.489  68.633  0.00  0.00    +0.195 A 
ATOM     11  C   UNL     1     -11.544  15.671  69.362  0.00  0.00    +0.042 A 
ATOM     12  O   UNL     1     -11.818  13.260  69.278  0.00  0.00    -0.287 OA
ATOM     13  C   UNL     1      -9.447  15.527  65.845  0.00  0.00    +0.026 C 
ATOM     14  C   UNL     1     -10.900  16.760  68.773  0.00  0.00    -0.001 A 
ATOM     15  C   UNL     1      -8.264  15.987  66.591  0.00  0.00    +0.005 C 
ATOM     16  C   UNL     1      -6.290  18.044  67.705  0.00  0.00    +0.004 C 
ATOM     17  C   UNL     1      -7.936  19.282  68.885  0.00  0.00    +0.003 C 
ATOM     18  C   UNL     1      -9.260  20.013  66.927  0.00  0.00    +0.004 C 
ATOM     19  C   UNL     1      -5.679  19.445  67.623  0.00  0.00    +0.043 C 
ATOM     20  O   UNL     1      -6.653  21.626  67.205  0.00  0.00    -0.212 OA
ENDROOT
BRANCH   1  22
ATOM     21  C   UNL     1      -6.287  20.023  64.395  0.00  0.00    -0.012 C 
ATOM     22  C   UNL     1      -6.515  20.061  65.480  0.00  0.00    -0.049 C 
ENDBRANCH   1  22
TORSDOF 1
ENDMDL
MODEL 2
REMARK VINA RESULT:      -6.6      1.981      3.299
REMARK  Name = 
REMARK  1 active torsions:
REMARK  status: ('A' for Active; 'I' for Inactive)
REMARK    1  A    between atoms: C_2  and  C_3
REMARK                            x       y       z     vdW  Elec       q    Type
REMARK                         _______ _______ _______ _____ _____    ______ ____
ROOT
ATOM      1  C   UNL     1      -8.869  18.539  67.695  0.00  0.00    +0.180 C 
ATOM      2  C   UNL     1      -9.319  17.171  68.082  0.00  0.00    +0.037 C 
ATOM      3  C   UNL     1      -9.580  16.769  66.533  0.00  0.00    +0.004 C 
ATOM      4  C   UNL     1      -9.640  15.120  66.852  0.00  0.00    +0.004 C 
ATOM      5  C   UNL     1     -11.207  15.224  67.469  0.00  0.00    +0.022 C 
ATOM      6  C   UNL     1     -10.712  15.515  68.989  0.00  0.00    +0.004 C 
ATOM      7  C   UNL     1     -11.286  13.642  67.656  0.00  0.00    -0.026 A 
ATOM      8  C   UNL     1     -11.641  13.187  66.385  0.00  0.00    -0.023 A 
ATOM      9  C   UNL     1     -11.510  11.830  66.140  0.00  0.00    +0.037 A 
ATOM     10  C   UNL     1     -10.899  11.038  67.106  0.00  0.00    +0.195 A 
ATOM     11  C   UNL     1     -10.305  11.600  68.233  0.00  0.00    +0.042 A 
ATOM     12  O   UNL     1     -10.539   9.759  66.666  0.00  0.00    -0.287 OA
ATOM     13  C   UNL     1     -11.469  14.209  65.295  0.00  0.00    +0.026 C 
ATOM     14  C   UNL     1     -10.309  12.989  68.357  0.00  0.00    -0.001 A 
ATOM     15  C   UNL     1     -10.121  14.798  65.357  0.00  0.00    +0.005 C 
ATOM     16  C   UNL     1      -7.976  16.774  66.289  0.00  0.00    +0.004 C 
ATOM     17  C   UNL     1      -8.232  16.275  68.594  0.00  0.00    +0.003 C 
ATOM     18  C   UNL     1     -10.574  17.037  68.835  0.00  0.00    +0.004 C 
ATOM     19  C   UNL     1      -7.631  18.135  66.896  0.00  0.00    +0.043 C 
ATOM     20  O   UNL     1      -8.612  19.405  68.714  0.00  0.00    -0.212 OA
ENDROOT
BRANCH   1  22
ATOM     21  C   UNL     1     -10.470  19.729  66.064  0.00  0.00    -0.012 C 
ATOM     22  C   UNL     1      -9.777  19.151  66.709  0.00  0.00    -0.049 C 
ENDBRANCH   1  22
TORSDOF 1
ENDMDL
MODEL 3
REMARK VINA RESULT:      -6.4      1.469      3.092
REMARK  Name = 
REMARK  1 active torsions:
REMARK  status: ('A' for Active; 'I' for Inactive)
REMARK    1  A    between atoms: C_2  and  C_3
REMARK                            x       y       z     vdW  Elec       q    Type
REMARK                         _______ _______ _______ _____ _____    ______ ____
ROOT
ATOM      1  C   UNL     1      -6.230  19.764  67.801  0.00  0.00    +0.180 C 
ATOM      2  C   UNL     1      -6.860  18.536  67.238  0.00  0.00    +0.037 C 
ATOM      3  C   UNL     1      -8.184  18.740  68.151  0.00  0.00    +0.004 C 
ATOM      4  C   UNL     1      -9.115  17.674  67.245  0.00  0.00    +0.004 C 
ATOM      5  C   UNL     1      -8.388  16.325  67.953  0.00  0.00    +0.022 C 
ATOM      6  C   UNL     1      -7.197  16.246  66.851  0.00  0.00    +0.004 C 
ATOM      7  C   UNL     1      -9.361  15.335  67.167  0.00  0.00    -0.026 A 
ATOM      8  C   UNL     1     -10.515  15.330  67.952  0.00  0.00    -0.023 A 
ATOM      9  C   UNL     1     -11.659  14.788  67.391  0.00  0.00    +0.037 A 
ATOM     10  C   UNL     1     -11.632  14.427  66.048  0.00  0.00    +0.195 A 
ATOM     11  C   UNL     1     -10.537  14.724  65.241  0.00  0.00    +0.042 A 
ATOM     12  O   UNL     1     -12.890  14.175  65.488  0.00  0.00    -0.287 OA
ATOM     13  C   UNL     1     -10.579  16.445  68.960  0.00  0.00    +0.026 C 
ATOM     14  C   UNL     1      -9.472  15.425  65.806  0.00  0.00    -0.001 A 
ATOM     15  C   UNL     1     -10.312  17.738  68.307  0.00  0.00    +0.005 C 
ATOM     16  C   UNL     1      -8.578  20.027  67.246  0.00  0.00    +0.004 C 
ATOM     17  C   UNL     1      -7.289  18.650  65.806  0.00  0.00    +0.003 C 
ATOM     18  C   UNL     1      -6.252  17.234  67.550  0.00  0.00    +0.004 C 
ATOM     19  C   UNL     1      -7.247  20.779  67.280  0.00  0.00    +0.043 C 
ATOM     20  O   UNL     1      -4.948  20.020  67.419  0.00  0.00    -0.212 OA
ENDROOT
BRANCH   1  22
ATOM     21  C   UNL     1      -6.343  19.964  70.367  0.00  0.00    -0.012 C 
ATOM     22  C   UNL     1      -6.356  19.816  69.268  0.00  0.00    -0.049 C 
ENDBRANCH   1  22
TORSDOF 1
ENDMDL
MODEL 4
REMARK VINA RESULT:      -6.1      1.389      6.217
REMARK  Name = 
REMARK  1 active torsions:
REMARK  status: ('A' for Active; 'I' for Inactive)
REMARK    1  A    between atoms: C_2  and  C_3
REMARK                            x       y       z     vdW  Elec       q    Type
REMARK                         _______ _______ _______ _____ _____    ______ ____
ROOT
ATOM      1  C   UNL     1     -11.351  13.489  67.420  0.00  0.00    +0.180 C 
ATOM      2  C   UNL     1     -10.108  14.307  67.515  0.00  0.00    +0.037 C 
ATOM      3  C   UNL     1     -10.940  15.681  67.290  0.00  0.00    +0.004 C 
ATOM      4  C   UNL     1      -9.691  16.662  67.841  0.00  0.00    +0.004 C 
ATOM      5  C   UNL     1      -8.838  16.511  66.393  0.00  0.00    +0.022 C 
ATOM      6  C   UNL     1      -8.030  15.186  66.875  0.00  0.00    +0.004 C 
ATOM      7  C   UNL     1      -7.723  17.536  66.894  0.00  0.00    -0.026 A 
ATOM      8  C   UNL     1      -8.288  18.783  66.622  0.00  0.00    -0.023 A 
ATOM      9  C   UNL     1      -7.690  19.888  67.203  0.00  0.00    +0.037 A 
ATOM     10  C   UNL     1      -6.674  19.683  68.130  0.00  0.00    +0.195 A 
ATOM     11  C   UNL     1      -6.350  18.404  68.576  0.00  0.00    +0.042 A 
ATOM     12  O   UNL     1      -6.336  20.814  68.883  0.00  0.00    -0.287 OA
ATOM     13  C   UNL     1      -9.764  18.739  66.334  0.00  0.00    +0.026 C 
ATOM     14  C   UNL     1      -7.094  17.328  68.092  0.00  0.00    -0.001 A 
ATOM     15  C   UNL     1     -10.467  17.988  67.387  0.00  0.00    +0.005 C 
ATOM     16  C   UNL     1     -11.593  15.496  68.763  0.00  0.00    +0.004 C 
ATOM     17  C   UNL     1      -9.505  14.375  68.886  0.00  0.00    +0.003 C 
ATOM     18  C   UNL     1      -9.101  14.170  66.454  0.00  0.00    +0.004 C 
ATOM     19  C   UNL     1     -12.064  14.045  68.653  0.00  0.00    +0.043 C 
ATOM     20  O   UNL     1     -11.192  12.137  67.436  0.00  0.00    -0.212 OA
ENDROOT
BRANCH   1  22
ATOM     21  C   UNL     1     -12.812  14.064  65.377  0.00  0.00    -0.012 C 
ATOM     22  C   UNL     1     -12.187  13.901  66.279  0.00  0.00    -0.049 C 
ENDBRANCH   1  22
TORSDOF 1
ENDMDL
MODEL 5
REMARK VINA RESULT:      -6.1      1.725      6.005
REMARK  Name = 
REMARK  1 active torsions:
REMARK  status: ('A' for Active; 'I' for Inactive)
REMARK    1  A    between atoms: C_2  and  C_3
REMARK                            x       y       z     vdW  Elec       q    Type
REMARK                         _______ _______ _______ _____ _____    ______ ____
ROOT
ATOM      1  C   UNL     1     -10.208  15.023  67.224  0.00  0.00    +0.180 C 
ATOM      2  C   UNL     1      -8.966  15.647  67.765  0.00  0.00    +0.037 C 
ATOM      3  C   UNL     1      -9.495  17.134  67.393  0.00  0.00    +0.004 C 
ATOM      4  C   UNL     1      -8.374  17.904  68.380  0.00  0.00    +0.004 C 
ATOM      5  C   UNL     1      -7.127  17.672  67.267  0.00  0.00    +0.022 C 
ATOM      6  C   UNL     1      -6.696  16.229  67.878  0.00  0.00    +0.004 C 
ATOM      7  C   UNL     1      -6.109  18.507  68.168  0.00  0.00    -0.026 A 
ATOM      8  C   UNL     1      -6.390  19.830  67.825  0.00  0.00    -0.023 A 
ATOM      9  C   UNL     1      -5.872  20.819  68.645  0.00  0.00    +0.037 A 
ATOM     10  C   UNL     1      -5.244  20.439  69.826  0.00  0.00    +0.195 A 
ATOM     11  C   UNL     1      -5.250  19.115  70.255  0.00  0.00    +0.042 A 
ATOM     12  O   UNL     1      -5.022  21.486  70.729  0.00  0.00    -0.287 OA
ATOM     13  C   UNL     1      -7.687  20.013  67.085  0.00  0.00    +0.026 C 
ATOM     14  C   UNL     1      -5.932  18.174  69.483  0.00  0.00    -0.001 A 
ATOM     15  C   UNL     1      -8.783  19.343  67.805  0.00  0.00    +0.005 C 
ATOM     16  C   UNL     1     -10.605  17.005  68.568  0.00  0.00    +0.004 C 
ATOM     17  C   UNL     1      -8.832  15.586  69.257  0.00  0.00    +0.003 C 
ATOM     18  C   UNL     1      -7.697  15.395  67.067  0.00  0.00    +0.004 C 
ATOM     19  C   UNL     1     -11.200  15.642  68.208  0.00  0.00    +0.043 C 
ATOM     20  O   UNL     1     -10.239  13.663  67.188  0.00  0.00    -0.212 OA
ENDROOT
BRANCH   1  22
ATOM     21  C   UNL     1     -10.926  15.883  64.903  0.00  0.00    -0.012 C 
ATOM     22  C   UNL     1     -10.571  15.587  65.912  0.00  0.00    -0.049 C 
ENDBRANCH   1  22
TORSDOF 1
ENDMDL
MODEL 6
REMARK VINA RESULT:      -6.1      1.402      6.186
REMARK  Name = 
REMARK  1 active torsions:
REMARK  status: ('A' for Active; 'I' for Inactive)
REMARK    1  A    between atoms: C_2  and  C_3
REMARK                            x       y       z     vdW  Elec       q    Type
REMARK                         _______ _______ _______ _____ _____    ______ ____
ROOT
ATOM      1  C   UNL     1     -10.543  15.535  68.023  0.00  0.00    +0.180 C 
ATOM      2  C   UNL     1      -9.889  16.669  67.310  0.00  0.00    +0.037 C 
ATOM      3  C   UNL     1      -8.855  16.905  68.537  0.00  0.00    +0.004 C 
ATOM      4  C   UNL     1      -7.805  17.846  67.623  0.00  0.00    +0.004 C 
ATOM      5  C   UNL     1      -8.809  19.197  67.728  0.00  0.00    +0.022 C 
ATOM      6  C   UNL     1      -9.653  18.816  66.393  0.00  0.00    +0.004 C 
ATOM      7  C   UNL     1      -7.745  20.101  66.957  0.00  0.00    -0.026 A 
ATOM      8  C   UNL     1      -6.857  20.479  67.965  0.00  0.00    -0.023 A 
ATOM      9  C   UNL     1      -5.653  21.037  67.570  0.00  0.00    +0.037 A 
ATOM     10  C   UNL     1      -5.339  21.047  66.216  0.00  0.00    +0.195 A 
ATOM     11  C   UNL     1      -6.140  20.394  65.283  0.00  0.00    +0.042 A 
ATOM     12  O   UNL     1      -4.001  21.345  65.930  0.00  0.00    -0.287 OA
ATOM     13  C   UNL     1      -6.979  19.672  69.228  0.00  0.00    +0.026 C 
ATOM     14  C   UNL     1      -7.256  19.696  65.745  0.00  0.00    -0.001 A 
ATOM     15  C   UNL     1      -6.945  18.233  68.918  0.00  0.00    +0.005 C 
ATOM     16  C   UNL     1      -8.120  15.512  68.151  0.00  0.00    +0.004 C 
ATOM     17  C   UNL     1      -9.074  16.273  66.116  0.00  0.00    +0.003 C 
ATOM     18  C   UNL     1     -10.667  17.896  67.089  0.00  0.00    +0.004 C 
ATOM     19  C   UNL     1      -9.340  14.593  68.069  0.00  0.00    +0.043 C 
ATOM     20  O   UNL     1     -11.644  14.997  67.429  0.00  0.00    -0.212 OA
ENDROOT
BRANCH   1  22
ATOM     21  C   UNL     1     -11.168  16.048  70.470  0.00  0.00    -0.012 C 
ATOM     22  C   UNL     1     -10.822  15.867  69.431  0.00  0.00    -0.049 C 
ENDBRANCH   1  22
TORSDOF 1
ENDMDL
MODEL 7
REMARK VINA RESULT:      -6.1      2.059      6.689
REMARK  Name = 
REMARK  1 active torsions:
REMARK  status: ('A' for Active; 'I' for Inactive)
REMARK    1  A    between atoms: C_2  and  C_3
REMARK                            x       y       z     vdW  Elec       q    Type
REMARK                         _______ _______ _______ _____ _____    ______ ____
ROOT
ATOM      1  C   UNL     1     -11.284  11.699  68.021  0.00  0.00    +0.180 C 
ATOM      2  C   UNL     1     -11.278  13.184  68.146  0.00  0.00    +0.037 C 
ATOM      3  C   UNL     1      -9.704  13.257  67.765  0.00  0.00    +0.004 C 
ATOM      4  C   UNL     1      -9.742  14.905  67.436  0.00  0.00    +0.004 C 
ATOM      5  C   UNL     1      -9.738  15.305  69.075  0.00  0.00    +0.022 C 
ATOM      6  C   UNL     1     -11.357  15.278  69.203  0.00  0.00    +0.004 C 
ATOM      7  C   UNL     1      -9.657  16.862  68.739  0.00  0.00    -0.026 A 
ATOM      8  C   UNL     1      -8.295  17.071  68.517  0.00  0.00    -0.023 A 
ATOM      9  C   UNL     1      -7.928  18.266  67.921  0.00  0.00    +0.037 A 
ATOM     10  C   UNL     1      -8.930  19.106  67.448  0.00  0.00    +0.195 A 
ATOM     11  C   UNL     1     -10.264  18.708  67.441  0.00  0.00    +0.042 A 
ATOM     12  O   UNL     1      -8.481  20.130  66.605  0.00  0.00    -0.287 OA
ATOM     13  C   UNL     1      -7.503  15.809  68.313  0.00  0.00    +0.026 C 
ATOM     14  C   UNL     1     -10.573  17.425  67.893  0.00  0.00    -0.001 A 
ATOM     15  C   UNL     1      -8.147  14.963  67.293  0.00  0.00    +0.005 C 
ATOM     16  C   UNL     1     -10.080  12.833  66.245  0.00  0.00    +0.004 C 
ATOM     17  C   UNL     1     -12.028  13.909  67.069  0.00  0.00    +0.003 C 
ATOM     18  C   UNL     1     -11.482  13.773  69.478  0.00  0.00    +0.004 C 
ATOM     19  C   UNL     1     -10.957  11.613  66.530  0.00  0.00    +0.043 C 
ATOM     20  O   UNL     1     -12.436  11.063  68.371  0.00  0.00    -0.212 OA
ENDROOT
BRANCH   1  22
ATOM     21  C   UNL     1      -9.286  10.508  69.129  0.00  0.00    -0.012 C 
ATOM     22  C   UNL     1     -10.127  11.091  68.701  0.00  0.00    -0.049 C 
ENDBRANCH   1  22
TORSDOF 1
ENDMDL
MODEL 8
REMARK VINA RESULT:      -5.8      1.971      6.192
REMARK  Name = 
REMARK  1 active torsions:
REMARK  status: ('A' for Active; 'I' for Inactive)
REMARK    1  A    between atoms: C_2  and  C_3
REMARK                            x       y       z     vdW  Elec       q    Type
REMARK                         _______ _______ _______ _____ _____    ______ ____
ROOT
ATOM      1  C   UNL     1     -10.289  17.676  67.560  0.00  0.00    +0.180 C 
ATOM      2  C   UNL     1      -8.916  18.057  67.996  0.00  0.00    +0.037 C 
ATOM      3  C   UNL     1      -8.453  18.326  66.465  0.00  0.00    +0.004 C 
ATOM      4  C   UNL     1      -7.083  19.192  66.910  0.00  0.00    +0.004 C 
ATOM      5  C   UNL     1      -6.236  17.787  67.305  0.00  0.00    +0.022 C 
ATOM      6  C   UNL     1      -6.747  17.775  68.847  0.00  0.00    +0.004 C 
ATOM      7  C   UNL     1      -4.911  18.620  67.611  0.00  0.00    -0.026 A 
ATOM      8  C   UNL     1      -4.347  18.801  66.347  0.00  0.00    -0.023 A 
ATOM      9  C   UNL     1      -3.332  19.736  66.235  0.00  0.00    +0.037 A 
ATOM     10  C   UNL     1      -3.043  20.536  67.336  0.00  0.00    +0.195 A 
ATOM     11  C   UNL     1      -3.835  20.505  68.480  0.00  0.00    +0.042 A 
ATOM     12  O   UNL     1      -2.228  21.639  67.055  0.00  0.00    -0.287 OA
ATOM     13  C   UNL     1      -5.285  18.510  65.207  0.00  0.00    +0.026 C 
ATOM     14  C   UNL     1      -4.953  19.671  68.486  0.00  0.00    -0.001 A 
ATOM     15  C   UNL     1      -6.556  19.229  65.397  0.00  0.00    +0.005 C 
ATOM     16  C   UNL     1      -9.407  19.638  66.435  0.00  0.00    +0.004 C 
ATOM     17  C   UNL     1      -8.828  19.367  68.720  0.00  0.00    +0.003 C 
ATOM     18  C   UNL     1      -8.058  17.019  68.587  0.00  0.00    +0.004 C 
ATOM     19  C   UNL     1     -10.703  19.022  66.967  0.00  0.00    +0.043 C 
ATOM     20  O   UNL     1     -11.129  17.216  68.527  0.00  0.00    -0.212 OA
ENDROOT
BRANCH   1  22
ATOM     21  C   UNL     1     -10.349  15.977  65.623  0.00  0.00    -0.012 C 
ATOM     22  C   UNL     1     -10.258  16.749  66.415  0.00  0.00    -0.049 C 
ENDBRANCH   1  22
TORSDOF 1
ENDMDL
MODEL 9
REMARK VINA RESULT:      -5.7      3.342      5.420
REMARK  Name = 
REMARK  1 active torsions:
REMARK  status: ('A' for Active; 'I' for Inactive)
REMARK    1  A    between atoms: C_2  and  C_3
REMARK                            x       y       z     vdW  Elec       q    Type
REMARK                         _______ _______ _______ _____ _____    ______ ____
ROOT
ATOM      1  C   UNL     1     -10.187  16.274  67.117  0.00  0.00    +0.180 C 
ATOM      2  C   UNL     1     -10.523  15.014  67.840  0.00  0.00    +0.037 C 
ATOM      3  C   UNL     1      -9.900  14.108  66.648  0.00  0.00    +0.004 C 
ATOM      4  C   UNL     1      -9.823  12.718  67.588  0.00  0.00    +0.004 C 
ATOM      5  C   UNL     1     -11.479  12.435  67.433  0.00  0.00    +0.022 C 
ATOM      6  C   UNL     1     -11.868  13.316  68.741  0.00  0.00    +0.004 C 
ATOM      7  C   UNL     1     -11.362  11.058  68.230  0.00  0.00    -0.026 A 
ATOM      8  C   UNL     1     -10.949  10.154  67.250  0.00  0.00    -0.023 A 
ATOM      9  C   UNL     1     -10.479   8.925  67.681  0.00  0.00    +0.037 A 
ATOM     10  C   UNL     1     -10.305   8.723  69.046  0.00  0.00    +0.195 A 
ATOM     11  C   UNL     1     -10.462   9.765  69.957  0.00  0.00    +0.042 A 
ATOM     12  O   UNL     1      -9.555   7.588  69.375  0.00  0.00    -0.287 OA
ATOM     13  C   UNL     1     -10.437  10.801  65.993  0.00  0.00    +0.026 C 
ATOM     14  C   UNL     1     -10.769  11.032  69.463  0.00  0.00    -0.001 A 
ATOM     15  C   UNL     1      -9.427  11.822  66.320  0.00  0.00    +0.005 C 
ATOM     16  C   UNL     1      -8.419  14.612  67.075  0.00  0.00    +0.004 C 
ATOM     17  C   UNL     1      -9.701  14.756  69.067  0.00  0.00    +0.003 C 
ATOM     18  C   UNL     1     -11.941  14.669  68.020  0.00  0.00    +0.004 C 
ATOM     19  C   UNL     1      -8.667  16.121  67.124  0.00  0.00    +0.043 C 
ATOM     20  O   UNL     1     -10.629  17.433  67.678  0.00  0.00    -0.212 OA
ENDROOT
BRANCH   1  22
ATOM     21  C   UNL     1     -11.000  16.110  64.677  0.00  0.00    -0.012 C 
ATOM     22  C   UNL     1     -10.572  16.204  65.696  0.00  0.00    -0.049 C 
ENDBRANCH   1  22
TORSDOF 1
ENDMDL
