MODEL 1
REMARK VINA RESULT:      -6.2      0.000      0.000
REMARK  Name = 
REMARK  5 active torsions:
REMARK  status: ('A' for Active; 'I' for Inactive)
REMARK    1  A    between atoms: C_2  and  C_3
REMARK    2  A    between atoms: C_4  and  C_5
REMARK    3  A    between atoms: C_14  and  C_15
REMARK    4  A    between atoms: C_16  and  C_17
REMARK    5  A    between atoms: C_19  and  C_20
REMARK                            x       y       z     vdW  Elec       q    Type
REMARK                         _______ _______ _______ _____ _____    ______ ____
ROOT
ATOM      1  C   UNL     1     -12.367  15.299  69.844  0.00  0.00    +0.031 C 
ATOM      2  C   UNL     1     -11.067  15.332  69.120  0.00  0.00    -0.022 C 
ATOM      3  C   UNL     1     -10.681  14.202  68.544  0.00  0.00    -0.004 C 
ENDROOT
BRANCH   3   4
ATOM      4  C   UNL     1     -11.627  13.178  68.093  0.00  0.00    -0.001 C 
ATOM      5  C   UNL     1     -11.752  13.062  66.770  0.00  0.00    -0.004 C 
BRANCH   5   6
ATOM      6  C   UNL     1     -10.497  13.177  66.015  0.00  0.00    -0.015 C 
ATOM      7  C   UNL     1     -10.618  13.668  64.781  0.00  0.00    +0.082 C 
ATOM      8  C   UNL     1      -9.539  12.033  66.134  0.00  0.00    +0.031 C 
BRANCH   7   9
ATOM      9  C   UNL     1     -11.440  14.863  64.634  0.00  0.00    +0.388 C 
ATOM     10  O   UNL     1     -12.695  14.865  64.054  0.00  0.00    -0.241 OA
ATOM     11  O   UNL     1     -10.855  15.987  64.672  0.00  0.00    -0.241 OA
ENDBRANCH   7   9
ENDBRANCH   5   6
ENDBRANCH   3   4
BRANCH   2  12
ATOM     12  C   UNL     1     -10.387  16.581  68.871  0.00  0.00    -0.005 C 
ATOM     13  C   UNL     1     -10.410  17.241  67.729  0.00  0.00    -0.005 C 
BRANCH  13  14
ATOM     14  C   UNL     1      -9.212  18.036  67.426  0.00  0.00    -0.031 C 
ATOM     15  C   UNL     1      -9.322  19.528  67.377  0.00  0.00    +0.018 C 
ATOM     16  C   UNL     1      -9.908  19.931  66.034  0.00  0.00    +0.004 C 
ATOM     17  C   UNL     1     -10.132  20.051  68.529  0.00  0.00    +0.004 C 
ATOM     18  C   UNL     1      -7.906  20.065  67.545  0.00  0.00    +0.004 C 
ATOM     19  C   UNL     1      -7.180  19.284  68.611  0.00  0.00    +0.005 C 
ATOM     20  C   UNL     1      -6.805  17.947  68.008  0.00  0.00    +0.022 C 
ATOM     21  C   UNL     1      -8.037  17.415  67.348  0.00  0.00    -0.048 C 
ATOM     22  C   UNL     1      -8.033  16.112  66.615  0.00  0.00    +0.026 C 
ENDBRANCH  13  14
ENDBRANCH   2  12
TORSDOF 5
ENDMDL
MODEL 2
REMARK VINA RESULT:      -6.2      3.320      4.950
REMARK  Name = 
REMARK  5 active torsions:
REMARK  status: ('A' for Active; 'I' for Inactive)
REMARK    1  A    between atoms: C_2  and  C_3
REMARK    2  A    between atoms: C_4  and  C_5
REMARK    3  A    between atoms: C_14  and  C_15
REMARK    4  A    between atoms: C_16  and  C_17
REMARK    5  A    between atoms: C_19  and  C_20
REMARK                            x       y       z     vdW  Elec       q    Type
REMARK                         _______ _______ _______ _____ _____    ______ ____
ROOT
ATOM      1  C   UNL     1     -11.086  13.429  68.216  0.00  0.00    +0.031 C 
ATOM      2  C   UNL     1     -11.276  14.760  68.853  0.00  0.00    -0.022 C 
ATOM      3  C   UNL     1     -12.150  14.822  69.847  0.00  0.00    -0.004 C 
ENDROOT
BRANCH   3   4
ATOM      4  C   UNL     1     -12.475  13.669  70.691  0.00  0.00    -0.001 C 
ATOM      5  C   UNL     1     -12.962  13.965  71.897  0.00  0.00    -0.004 C 
BRANCH   5   6
ATOM      6  C   UNL     1     -13.908  15.088  71.926  0.00  0.00    -0.015 C 
ATOM      7  C   UNL     1     -13.915  15.796  73.057  0.00  0.00    +0.082 C 
ATOM      8  C   UNL     1     -15.264  14.837  71.345  0.00  0.00    +0.031 C 
BRANCH   7   9
ATOM      9  C   UNL     1     -12.616  16.177  73.595  0.00  0.00    +0.388 C 
ATOM     10  O   UNL     1     -12.360  16.336  74.945  0.00  0.00    -0.241 OA
ATOM     11  O   UNL     1     -11.805  16.760  72.815  0.00  0.00    -0.241 OA
ENDBRANCH   7   9
ENDBRANCH   5   6
ENDBRANCH   3   4
BRANCH   2  12
ATOM     12  C   UNL     1     -10.390  15.860  68.552  0.00  0.00    -0.005 C 
ATOM     13  C   UNL     1     -10.721  16.928  67.851  0.00  0.00    -0.005 C 
BRANCH  13  14
ATOM     14  C   UNL     1      -9.631  17.555  67.090  0.00  0.00    -0.031 C 
ATOM     15  C   UNL     1      -9.373  19.019  67.260  0.00  0.00    +0.018 C 
ATOM     16  C   UNL     1     -10.379  19.792  66.424  0.00  0.00    +0.004 C 
ATOM     17  C   UNL     1      -9.420  19.414  68.709  0.00  0.00    +0.004 C 
ATOM     18  C   UNL     1      -7.949  19.261  66.776  0.00  0.00    +0.004 C 
ATOM     19  C   UNL     1      -7.043  18.160  67.265  0.00  0.00    +0.005 C 
ATOM     20  C   UNL     1      -7.327  16.939  66.416  0.00  0.00    +0.022 C 
ATOM     21  C   UNL     1      -8.813  16.775  66.385  0.00  0.00    -0.048 C 
ATOM     22  C   UNL     1      -9.465  15.677  65.608  0.00  0.00    +0.026 C 
ENDBRANCH  13  14
ENDBRANCH   2  12
TORSDOF 5
ENDMDL
MODEL 3
REMARK VINA RESULT:      -5.8      1.242      2.397
REMARK  Name = 
REMARK  5 active torsions:
REMARK  status: ('A' for Active; 'I' for Inactive)
REMARK    1  A    between atoms: C_2  and  C_3
REMARK    2  A    between atoms: C_4  and  C_5
REMARK    3  A    between atoms: C_14  and  C_15
REMARK    4  A    between atoms: C_16  and  C_17
REMARK    5  A    between atoms: C_19  and  C_20
REMARK                            x       y       z     vdW  Elec       q    Type
REMARK                         _______ _______ _______ _____ _____    ______ ____
ROOT
ATOM      1  C   UNL     1     -11.188  16.284  69.784  0.00  0.00    +0.031 C 
ATOM      2  C   UNL     1     -10.100  15.788  68.900  0.00  0.00    -0.022 C 
ATOM      3  C   UNL     1     -10.295  14.610  68.323  0.00  0.00    -0.004 C 
ENDROOT
BRANCH   3   4
ATOM      4  C   UNL     1     -11.630  14.080  68.035  0.00  0.00    -0.001 C 
ATOM      5  C   UNL     1     -11.964  14.047  66.744  0.00  0.00    -0.004 C 
BRANCH   5   6
ATOM      6  C   UNL     1     -10.884  13.642  65.834  0.00  0.00    -0.015 C 
ATOM      7  C   UNL     1     -10.823  14.320  64.687  0.00  0.00    +0.082 C 
ATOM      8  C   UNL     1     -10.642  12.171  65.697  0.00  0.00    +0.031 C 
BRANCH   7   9
ATOM      9  C   UNL     1     -10.925  15.770  64.781  0.00  0.00    +0.388 C 
ATOM     10  O   UNL     1     -11.739  16.538  63.969  0.00  0.00    -0.241 OA
ATOM     11  O   UNL     1      -9.971  16.391  65.340  0.00  0.00    -0.241 OA
ENDBRANCH   7   9
ENDBRANCH   5   6
ENDBRANCH   3   4
BRANCH   2  12
ATOM     12  C   UNL     1      -9.003  16.646  68.519  0.00  0.00    -0.005 C 
ATOM     13  C   UNL     1      -8.644  17.744  69.158  0.00  0.00    -0.005 C 
BRANCH  13  14
ATOM     14  C   UNL     1      -8.036  18.795  68.330  0.00  0.00    -0.031 C 
ATOM     15  C   UNL     1      -6.569  19.061  68.451  0.00  0.00    +0.018 C 
ATOM     16  C   UNL     1      -6.328  19.916  69.683  0.00  0.00    +0.004 C 
ATOM     17  C   UNL     1      -5.786  17.779  68.489  0.00  0.00    +0.004 C 
ATOM     18  C   UNL     1      -6.162  19.796  67.180  0.00  0.00    +0.004 C 
ATOM     19  C   UNL     1      -6.833  19.170  65.984  0.00  0.00    +0.005 C 
ATOM     20  C   UNL     1      -8.281  19.612  66.002  0.00  0.00    +0.022 C 
ATOM     21  C   UNL     1      -8.781  19.379  67.392  0.00  0.00    -0.048 C 
ATOM     22  C   UNL     1     -10.178  19.731  67.792  0.00  0.00    +0.026 C 
ENDBRANCH  13  14
ENDBRANCH   2  12
TORSDOF 5
ENDMDL
MODEL 4
REMARK VINA RESULT:      -5.5      1.424      2.849
REMARK  Name = 
REMARK  5 active torsions:
REMARK  status: ('A' for Active; 'I' for Inactive)
REMARK    1  A    between atoms: C_2  and  C_3
REMARK    2  A    between atoms: C_4  and  C_5
REMARK    3  A    between atoms: C_14  and  C_15
REMARK    4  A    between atoms: C_16  and  C_17
REMARK    5  A    between atoms: C_19  and  C_20
REMARK                            x       y       z     vdW  Elec       q    Type
REMARK                         _______ _______ _______ _____ _____    ______ ____
ROOT
ATOM      1  C   UNL     1      -7.530  13.481  67.707  0.00  0.00    +0.031 C 
ATOM      2  C   UNL     1      -8.437  14.330  66.889  0.00  0.00    -0.022 C 
ATOM      3  C   UNL     1      -9.473  13.722  66.330  0.00  0.00    -0.004 C 
ENDROOT
BRANCH   3   4
ATOM      4  C   UNL     1     -10.081  12.512  66.891  0.00  0.00    -0.001 C 
ATOM      5  C   UNL     1     -11.121  12.029  66.210  0.00  0.00    -0.004 C 
BRANCH   5   6
ATOM      6  C   UNL     1     -10.984  12.080  64.748  0.00  0.00    -0.015 C 
ATOM      7  C   UNL     1     -12.007  12.639  64.100  0.00  0.00    +0.082 C 
ATOM      8  C   UNL     1     -10.425  10.859  64.086  0.00  0.00    +0.031 C 
BRANCH   7   9
ATOM      9  C   UNL     1     -12.505  13.900  64.634  0.00  0.00    +0.388 C 
ATOM     10  O   UNL     1     -13.598  14.001  65.474  0.00  0.00    -0.241 OA
ATOM     11  O   UNL     1     -12.191  14.963  64.018  0.00  0.00    -0.241 OA
ENDBRANCH   7   9
ENDBRANCH   5   6
ENDBRANCH   3   4
BRANCH   2  12
ATOM     12  C   UNL     1      -8.315  15.769  66.898  0.00  0.00    -0.005 C 
ATOM     13  C   UNL     1      -8.003  16.496  67.954  0.00  0.00    -0.005 C 
BRANCH  13  14
ATOM     14  C   UNL     1      -8.566  17.853  67.985  0.00  0.00    -0.031 C 
ATOM     15  C   UNL     1      -7.659  19.023  67.765  0.00  0.00    +0.018 C 
ATOM     16  C   UNL     1      -6.921  19.318  69.060  0.00  0.00    +0.004 C 
ATOM     17  C   UNL     1      -6.718  18.773  66.621  0.00  0.00    +0.004 C 
ATOM     18  C   UNL     1      -8.555  20.187  67.361  0.00  0.00    +0.004 C 
ATOM     19  C   UNL     1      -9.611  19.715  66.394  0.00  0.00    +0.005 C 
ATOM     20  C   UNL     1     -10.643  18.952  67.196  0.00  0.00    +0.022 C 
ATOM     21  C   UNL     1      -9.888  17.993  68.061  0.00  0.00    -0.048 C 
ATOM     22  C   UNL     1     -10.588  17.084  69.020  0.00  0.00    +0.026 C 
ENDBRANCH  13  14
ENDBRANCH   2  12
TORSDOF 5
ENDMDL
MODEL 5
REMARK VINA RESULT:      -5.3      4.489      8.383
REMARK  Name = 
REMARK  5 active torsions:
REMARK  status: ('A' for Active; 'I' for Inactive)
REMARK    1  A    between atoms: C_2  and  C_3
REMARK    2  A    between atoms: C_4  and  C_5
REMARK    3  A    between atoms: C_14  and  C_15
REMARK    4  A    between atoms: C_16  and  C_17
REMARK    5  A    between atoms: C_19  and  C_20
REMARK                            x       y       z     vdW  Elec       q    Type
REMARK                         _______ _______ _______ _____ _____    ______ ____
ROOT
ATOM      1  C   UNL     1     -11.497  11.847  66.509  0.00  0.00    +0.031 C 
ATOM      2  C   UNL     1     -11.427  11.934  67.993  0.00  0.00    -0.022 C 
ATOM      3  C   UNL     1     -11.275  13.145  68.510  0.00  0.00    -0.004 C 
ENDROOT
BRANCH   3   4
ATOM      4  C   UNL     1     -11.731  14.360  67.830  0.00  0.00    -0.001 C 
ATOM      5  C   UNL     1     -11.973  15.402  68.627  0.00  0.00    -0.004 C 
BRANCH   5   6
ATOM      6  C   UNL     1     -11.011  15.582  69.722  0.00  0.00    -0.015 C 
ATOM      7  C   UNL     1     -11.539  15.958  70.888  0.00  0.00    +0.082 C 
ATOM      8  C   UNL     1      -9.725  16.268  69.377  0.00  0.00    +0.031 C 
BRANCH   7   9
ATOM      9  C   UNL     1     -12.722  15.231  71.331  0.00  0.00    +0.388 C 
ATOM     10  O   UNL     1     -13.873  15.843  71.790  0.00  0.00    -0.241 OA
ATOM     11  O   UNL     1     -12.571  14.021  71.681  0.00  0.00    -0.241 OA
ENDBRANCH   7   9
ENDBRANCH   5   6
ENDBRANCH   3   4
BRANCH   2  12
ATOM     12  C   UNL     1     -11.736  10.790  68.819  0.00  0.00    -0.005 C 
ATOM     13  C   UNL     1     -11.455  10.686  70.104  0.00  0.00    -0.005 C 
BRANCH  13  14
ATOM     14  C   UNL     1     -11.201   9.324  70.594  0.00  0.00    -0.031 C 
ATOM     15  C   UNL     1      -9.983   8.595  70.122  0.00  0.00    +0.018 C 
ATOM     16  C   UNL     1     -10.260   8.028  68.740  0.00  0.00    +0.004 C 
ATOM     17  C   UNL     1      -8.776   9.488  70.136  0.00  0.00    +0.004 C 
ATOM     18  C   UNL     1      -9.731   7.485  71.135  0.00  0.00    +0.004 C 
ATOM     19  C   UNL     1      -9.941   8.005  72.534  0.00  0.00    +0.005 C 
ATOM     20  C   UNL     1     -11.435   8.121  72.748  0.00  0.00    +0.022 C 
ATOM     21  C   UNL     1     -11.984   8.836  71.556  0.00  0.00    -0.048 C 
ATOM     22  C   UNL     1     -13.447   9.105  71.407  0.00  0.00    +0.026 C 
ENDBRANCH  13  14
ENDBRANCH   2  12
TORSDOF 5
ENDMDL
MODEL 6
REMARK VINA RESULT:      -5.3      1.902      6.145
REMARK  Name = 
REMARK  5 active torsions:
REMARK  status: ('A' for Active; 'I' for Inactive)
REMARK    1  A    between atoms: C_2  and  C_3
REMARK    2  A    between atoms: C_4  and  C_5
REMARK    3  A    between atoms: C_14  and  C_15
REMARK    4  A    between atoms: C_16  and  C_17
REMARK    5  A    between atoms: C_19  and  C_20
REMARK                            x       y       z     vdW  Elec       q    Type
REMARK                         _______ _______ _______ _____ _____    ______ ____
ROOT
ATOM      1  C   UNL     1     -12.370  15.369  70.033  0.00  0.00    +0.031 C 
ATOM      2  C   UNL     1     -11.744  15.104  68.709  0.00  0.00    -0.022 C 
ATOM      3  C   UNL     1     -11.048  16.096  68.173  0.00  0.00    -0.004 C 
ENDROOT
BRANCH   3   4
ATOM      4  C   UNL     1     -10.402  17.137  68.977  0.00  0.00    -0.001 C 
ATOM      5  C   UNL     1      -9.314  17.685  68.433  0.00  0.00    -0.004 C 
BRANCH   5   6
ATOM      6  C   UNL     1      -9.400  17.929  66.987  0.00  0.00    -0.015 C 
ATOM      7  C   UNL     1      -8.251  17.804  66.320  0.00  0.00    +0.082 C 
ATOM      8  C   UNL     1     -10.244  19.086  66.552  0.00  0.00    +0.031 C 
BRANCH   7   9
ATOM      9  C   UNL     1      -7.452  16.622  66.616  0.00  0.00    +0.388 C 
ATOM     10  O   UNL     1      -6.071  16.591  66.550  0.00  0.00    -0.241 OA
ATOM     11  O   UNL     1      -8.025  15.493  66.548  0.00  0.00    -0.241 OA
ENDBRANCH   7   9
ENDBRANCH   5   6
ENDBRANCH   3   4
BRANCH   2  12
ATOM     12  C   UNL     1     -11.710  13.770  68.158  0.00  0.00    -0.005 C 
ATOM     13  C   UNL     1     -10.667  13.222  67.563  0.00  0.00    -0.005 C 
BRANCH  13  14
ATOM     14  C   UNL     1     -10.972  12.234  66.520  0.00  0.00    -0.031 C 
ATOM     15  C   UNL     1     -11.310  12.710  65.142  0.00  0.00    +0.018 C 
ATOM     16  C   UNL     1     -12.762  13.155  65.122  0.00  0.00    +0.004 C 
ATOM     17  C   UNL     1     -10.377  13.802  64.701  0.00  0.00    +0.004 C 
ATOM     18  C   UNL     1     -11.081  11.524  64.213  0.00  0.00    +0.004 C 
ATOM     19  C   UNL     1      -9.812  10.806  64.595  0.00  0.00    +0.005 C 
ATOM     20  C   UNL     1     -10.109  10.010  65.848  0.00  0.00    +0.022 C 
ATOM     21  C   UNL     1     -10.796  10.942  66.793  0.00  0.00    -0.048 C 
ATOM     22  C   UNL     1     -11.269  10.488  68.137  0.00  0.00    +0.026 C 
ENDBRANCH  13  14
ENDBRANCH   2  12
TORSDOF 5
ENDMDL
MODEL 7
REMARK VINA RESULT:      -5.3      4.542      8.366
REMARK  Name = 
REMARK  5 active torsions:
REMARK  status: ('A' for Active; 'I' for Inactive)
REMARK    1  A    between atoms: C_2  and  C_3
REMARK    2  A    between atoms: C_4  and  C_5
REMARK    3  A    between atoms: C_14  and  C_15
REMARK    4  A    between atoms: C_16  and  C_17
REMARK    5  A    between atoms: C_19  and  C_20
REMARK                            x       y       z     vdW  Elec       q    Type
REMARK                         _______ _______ _______ _____ _____    ______ ____
ROOT
ATOM      1  C   UNL     1     -11.963  12.876  69.744  0.00  0.00    +0.031 C 
ATOM      2  C   UNL     1     -11.708  11.665  68.918  0.00  0.00    -0.022 C 
ATOM      3  C   UNL     1     -11.250  11.870  67.691  0.00  0.00    -0.004 C 
ENDROOT
BRANCH   3   4
ATOM      4  C   UNL     1     -10.475  13.057  67.322  0.00  0.00    -0.001 C 
ATOM      5  C   UNL     1     -10.348  13.270  66.012  0.00  0.00    -0.004 C 
BRANCH   5   6
ATOM      6  C   UNL     1     -11.555  13.001  65.220  0.00  0.00    -0.015 C 
ATOM      7  C   UNL     1     -11.336  12.582  63.972  0.00  0.00    +0.082 C 
ATOM      8  C   UNL     1     -12.677  13.984  65.353  0.00  0.00    +0.031 C 
BRANCH   7   9
ATOM      9  C   UNL     1     -10.342  11.530  63.804  0.00  0.00    +0.388 C 
ATOM     10  O   UNL     1      -9.418  11.503  62.775  0.00  0.00    -0.241 OA
ATOM     11  O   UNL     1     -10.565  10.416  64.366  0.00  0.00    -0.241 OA
ENDBRANCH   7   9
ENDBRANCH   5   6
ENDBRANCH   3   4
BRANCH   2  12
ATOM     12  C   UNL     1     -11.744  10.346  69.504  0.00  0.00    -0.005 C 
ATOM     13  C   UNL     1     -11.042   9.965  70.555  0.00  0.00    -0.005 C 
BRANCH  13  14
ATOM     14  C   UNL     1     -10.670   8.544  70.594  0.00  0.00    -0.031 C 
ATOM     15  C   UNL     1     -11.354   7.638  71.568  0.00  0.00    +0.018 C 
ATOM     16  C   UNL     1     -10.719   7.824  72.936  0.00  0.00    +0.004 C 
ATOM     17  C   UNL     1     -12.835   7.886  71.593  0.00  0.00    +0.004 C 
ATOM     18  C   UNL     1     -11.146   6.220  71.051  0.00  0.00    +0.004 C 
ATOM     19  C   UNL     1     -11.333   6.184  69.556  0.00  0.00    +0.005 C 
ATOM     20  C   UNL     1     -10.095   6.794  68.936  0.00  0.00    +0.022 C 
ATOM     21  C   UNL     1      -9.841   8.076  69.662  0.00  0.00    -0.048 C 
ATOM     22  C   UNL     1      -8.668   8.944  69.334  0.00  0.00    +0.026 C 
ENDBRANCH  13  14
ENDBRANCH   2  12
TORSDOF 5
ENDMDL
MODEL 8
REMARK VINA RESULT:      -5.3      4.385      6.430
REMARK  Name = 
REMARK  5 active torsions:
REMARK  status: ('A' for Active; 'I' for Inactive)
REMARK    1  A    between atoms: C_2  and  C_3
REMARK    2  A    between atoms: C_4  and  C_5
REMARK    3  A    between atoms: C_14  and  C_15
REMARK    4  A    between atoms: C_16  and  C_17
REMARK    5  A    between atoms: C_19  and  C_20
REMARK                            x       y       z     vdW  Elec       q    Type
REMARK                         _______ _______ _______ _____ _____    ______ ____
ROOT
ATOM      1  C   UNL     1     -12.801  12.631  71.228  0.00  0.00    +0.031 C 
ATOM      2  C   UNL     1     -11.977  11.978  70.175  0.00  0.00    -0.022 C 
ATOM      3  C   UNL     1     -11.647  10.710  70.382  0.00  0.00    -0.004 C 
ENDROOT
BRANCH   3   4
ATOM      4  C   UNL     1     -12.458   9.804  71.199  0.00  0.00    -0.001 C 
ATOM      5  C   UNL     1     -12.070   8.527  71.189  0.00  0.00    -0.004 C 
BRANCH   5   6
ATOM      6  C   UNL     1     -10.616   8.320  71.221  0.00  0.00    -0.015 C 
ATOM      7  C   UNL     1     -10.164   7.339  70.439  0.00  0.00    +0.082 C 
ATOM      8  C   UNL     1      -9.959   8.392  72.564  0.00  0.00    +0.031 C 
BRANCH   7   9
ATOM      9  C   UNL     1     -10.678   7.304  69.075  0.00  0.00    +0.388 C 
ATOM     10  O   UNL     1     -11.273   6.193  68.507  0.00  0.00    -0.241 OA
ATOM     11  O   UNL     1     -10.230   8.161  68.256  0.00  0.00    -0.241 OA
ENDBRANCH   7   9
ENDBRANCH   5   6
ENDBRANCH   3   4
BRANCH   2  12
ATOM     12  C   UNL     1     -11.748  12.623  68.904  0.00  0.00    -0.005 C 
ATOM     13  C   UNL     1     -11.553  11.995  67.760  0.00  0.00    -0.005 C 
BRANCH  13  14
ATOM     14  C   UNL     1     -10.703  12.691  66.785  0.00  0.00    -0.031 C 
ATOM     15  C   UNL     1     -11.310  13.180  65.507  0.00  0.00    +0.018 C 
ATOM     16  C   UNL     1     -11.428  12.011  64.544  0.00  0.00    +0.004 C 
ATOM     17  C   UNL     1     -12.634  13.846  65.755  0.00  0.00    +0.004 C 
ATOM     18  C   UNL     1     -10.366  14.248  64.968  0.00  0.00    +0.004 C 
ATOM     19  C   UNL     1      -9.887  15.130  66.093  0.00  0.00    +0.005 C 
ATOM     20  C   UNL     1      -8.855  14.341  66.870  0.00  0.00    +0.022 C 
ATOM     21  C   UNL     1      -9.453  12.995  67.130  0.00  0.00    -0.048 C 
ATOM     22  C   UNL     1      -8.697  11.928  67.857  0.00  0.00    +0.026 C 
ENDBRANCH  13  14
ENDBRANCH   2  12
TORSDOF 5
ENDMDL
MODEL 9
REMARK VINA RESULT:      -5.2      4.613      7.847
REMARK  Name = 
REMARK  5 active torsions:
REMARK  status: ('A' for Active; 'I' for Inactive)
REMARK    1  A    between atoms: C_2  and  C_3
REMARK    2  A    between atoms: C_4  and  C_5
REMARK    3  A    between atoms: C_14  and  C_15
REMARK    4  A    between atoms: C_16  and  C_17
REMARK    5  A    between atoms: C_19  and  C_20
REMARK                            x       y       z     vdW  Elec       q    Type
REMARK                         _______ _______ _______ _____ _____    ______ ____
ROOT
ATOM      1  C   UNL     1     -11.551  13.621  68.989  0.00  0.00    +0.031 C 
ATOM      2  C   UNL     1     -11.784  12.334  68.279  0.00  0.00    -0.022 C 
ATOM      3  C   UNL     1     -11.622  12.345  66.964  0.00  0.00    -0.004 C 
ENDROOT
BRANCH   3   4
ATOM      4  C   UNL     1     -10.729  13.286  66.283  0.00  0.00    -0.001 C 
ATOM      5  C   UNL     1     -10.200  12.845  65.140  0.00  0.00    -0.004 C 
BRANCH   5   6
ATOM      6  C   UNL     1     -11.117  12.075  64.289  0.00  0.00    -0.015 C 
ATOM      7  C   UNL     1     -10.550  11.093  63.586  0.00  0.00    +0.082 C 
ATOM      8  C   UNL     1     -12.149  12.857  63.538  0.00  0.00    +0.031 C 
BRANCH   7   9
ATOM      9  C   UNL     1      -9.633  10.221  64.308  0.00  0.00    +0.388 C 
ATOM     10  O   UNL     1      -8.448   9.744  63.778  0.00  0.00    -0.241 OA
ATOM     11  O   UNL     1     -10.096   9.561  65.287  0.00  0.00    -0.241 OA
ENDBRANCH   7   9
ENDBRANCH   5   6
ENDBRANCH   3   4
BRANCH   2  12
ATOM     12  C   UNL     1     -11.953  11.102  69.013  0.00  0.00    -0.005 C 
ATOM     13  C   UNL     1     -11.545  10.895  70.251  0.00  0.00    -0.005 C 
BRANCH  13  14
ATOM     14  C   UNL     1     -11.175   9.512  70.579  0.00  0.00    -0.031 C 
ATOM     15  C   UNL     1      -9.984   8.898  69.913  0.00  0.00    +0.018 C 
ATOM     16  C   UNL     1     -10.385   8.442  68.520  0.00  0.00    +0.004 C 
ATOM     17  C   UNL     1      -8.825   9.854  69.884  0.00  0.00    +0.004 C 
ATOM     18  C   UNL     1      -9.569   7.718  70.783  0.00  0.00    +0.004 C 
ATOM     19  C   UNL     1      -9.647   8.098  72.239  0.00  0.00    +0.005 C 
ATOM     20  C   UNL     1     -11.112   8.108  72.621  0.00  0.00    +0.022 C 
ATOM     21  C   UNL     1     -11.822   8.895  71.567  0.00  0.00    -0.048 C 
ATOM     22  C   UNL     1     -13.304   9.093  71.601  0.00  0.00    +0.026 C 
ENDBRANCH  13  14
ENDBRANCH   2  12
TORSDOF 5
ENDMDL
