MODEL 1
REMARK VINA RESULT:      -7.3      0.000      0.000
REMARK  Name = 
REMARK  2 active torsions:
REMARK  status: ('A' for Active; 'I' for Inactive)
REMARK    1  A    between atoms: N_2  and  C_4
REMARK    2  A    between atoms: C_7  and  C_8
REMARK                            x       y       z     vdW  Elec       q    Type
REMARK                         _______ _______ _______ _____ _____    ______ ____
ROOT
ATOM      1  C   UNL     1      -8.613  17.093  68.780  0.00  0.00    +0.124 C 
ATOM      2  C   UNL     1      -8.494  15.948  67.474  0.00  0.00    +0.065 C 
ATOM      3  C   UNL     1      -7.463  14.931  68.201  0.00  0.00    +0.237 C 
ATOM      4  C   UNL     1      -7.984  13.580  68.265  0.00  0.00    +0.207 C 
ATOM      5  C   UNL     1      -8.947  13.024  67.592  0.00  0.00    +0.057 C 
ATOM      6  C   UNL     1      -9.706  14.126  66.658  0.00  0.00    +0.060 C 
ATOM      7  C   UNL     1     -11.192  13.423  66.895  0.00  0.00    +0.149 C 
ATOM      8  O   UNL     1     -11.263  13.072  68.194  0.00  0.00    -0.221 OA
ATOM      9  C   UNL     1     -12.204  14.420  66.432  0.00  0.00    +0.038 C 
ATOM     10  C   UNL     1     -11.052  12.288  65.924  0.00  0.00    +0.012 A 
ATOM     11  C   UNL     1      -9.925  11.469  65.927  0.00  0.00    +0.076 A 
ATOM     12  C   UNL     1      -9.590  10.681  64.827  0.00  0.00    +0.198 A 
ATOM     13  C   UNL     1     -10.188  10.938  63.596  0.00  0.00    +0.042 A 
ATOM     14  C   UNL     1     -11.011  12.046  63.500  0.00  0.00    +0.003 A 
ATOM     15  O   UNL     1      -8.351  10.031  64.797  0.00  0.00    -0.286 OA
ATOM     16  C   UNL     1     -11.593  12.521  64.661  0.00  0.00    -0.002 A 
ATOM     17  C   UNL     1      -8.948  11.699  67.009  0.00  0.00    +0.197 C 
ATOM     18  O   UNL     1      -7.902  11.013  67.097  0.00  0.00    -0.287 OA
ATOM     19  O   UNL     1      -7.042  12.667  68.756  0.00  0.00    -0.289 OA
ATOM     20  O   UNL     1      -6.476  14.873  67.193  0.00  0.00    -0.210 OA
ATOM     21  C   UNL     1      -6.907  15.490  69.401  0.00  0.00    +0.215 C 
ATOM     22  O   UNL     1      -6.453  14.703  70.250  0.00  0.00    -0.288 OA
ATOM     23  C   UNL     1      -6.322  16.837  69.309  0.00  0.00    +0.130 C 
ATOM     24  C   UNL     1      -9.843  15.145  67.969  0.00  0.00    +0.012 C 
ATOM     25  C   UNL     1      -7.086  17.627  68.546  0.00  0.00    +0.195 C 
ATOM     26  O   UNL     1      -6.926  18.998  68.780  0.00  0.00    -0.290 OA
ENDROOT
BRANCH   1  28
ATOM     27  C   UNL     1      -9.399  19.313  68.750  0.00  0.00    +0.090 C 
ATOM     28  N   UNL     1      -9.213  18.216  67.828  0.00  0.00    -0.265 NA
ATOM     29  C   UNL     1     -10.500  17.769  67.421  0.00  0.00    +0.090 C 
ENDBRANCH   1  28
BRANCH  23  30
ATOM     30  C   UNL     1      -5.174  17.279  70.066  0.00  0.00    +0.290 C 
ATOM     31  O   UNL     1      -5.312  17.444  71.309  0.00  0.00    -0.266 OA
ATOM     32  N   UNL     1      -3.888  16.840  69.612  0.00  0.00    -0.084 NA
ENDBRANCH  23  30
TORSDOF 2
ENDMDL
MODEL 2
REMARK VINA RESULT:      -6.9      2.694      6.868
REMARK  Name = 
REMARK  2 active torsions:
REMARK  status: ('A' for Active; 'I' for Inactive)
REMARK    1  A    between atoms: N_2  and  C_4
REMARK    2  A    between atoms: C_7  and  C_8
REMARK                            x       y       z     vdW  Elec       q    Type
REMARK                         _______ _______ _______ _____ _____    ______ ____
ROOT
ATOM      1  C   UNL     1     -10.233  14.847  66.230  0.00  0.00    +0.124 C 
ATOM      2  C   UNL     1      -9.588  15.885  67.470  0.00  0.00    +0.065 C 
ATOM      3  C   UNL     1      -8.977  14.712  68.407  0.00  0.00    +0.237 C 
ATOM      4  C   UNL     1      -7.560  14.892  68.650  0.00  0.00    +0.207 C 
ATOM      5  C   UNL     1      -6.816  15.948  68.508  0.00  0.00    +0.057 C 
ATOM      6  C   UNL     1      -7.666  17.163  67.826  0.00  0.00    +0.060 C 
ATOM      7  C   UNL     1      -6.357  17.698  66.955  0.00  0.00    +0.149 C 
ATOM      8  O   UNL     1      -5.719  16.608  66.485  0.00  0.00    -0.221 OA
ATOM      9  C   UNL     1      -6.898  18.633  65.923  0.00  0.00    +0.038 C 
ATOM     10  C   UNL     1      -5.653  18.437  68.055  0.00  0.00    +0.012 A 
ATOM     11  C   UNL     1      -5.424  17.844  69.294  0.00  0.00    +0.076 A 
ATOM     12  C   UNL     1      -5.136  18.603  70.427  0.00  0.00    +0.198 A 
ATOM     13  C   UNL     1      -5.388  19.971  70.414  0.00  0.00    +0.042 A 
ATOM     14  C   UNL     1      -6.021  20.498  69.302  0.00  0.00    +0.003 A 
ATOM     15  O   UNL     1      -5.111  17.984  71.682  0.00  0.00    -0.286 OA
ATOM     16  C   UNL     1      -5.915  19.804  68.110  0.00  0.00    -0.002 A 
ATOM     17  C   UNL     1      -5.795  16.421  69.420  0.00  0.00    +0.197 C 
ATOM     18  O   UNL     1      -5.627  15.797  70.496  0.00  0.00    -0.287 OA
ATOM     19  O   UNL     1      -7.056  13.970  69.576  0.00  0.00    -0.289 OA
ATOM     20  O   UNL     1      -9.586  15.077  69.627  0.00  0.00    -0.210 OA
ATOM     21  C   UNL     1      -9.426  13.409  68.004  0.00  0.00    +0.215 C 
ATOM     22  O   UNL     1      -8.739  12.429  68.343  0.00  0.00    -0.288 OA
ATOM     23  C   UNL     1     -10.875  13.222  67.823  0.00  0.00    +0.130 C 
ATOM     24  C   UNL     1      -8.191  16.126  66.632  0.00  0.00    +0.012 C 
ATOM     25  C   UNL     1     -11.410  14.285  67.213  0.00  0.00    +0.195 C 
ATOM     26  O   UNL     1     -12.621  14.032  66.555  0.00  0.00    -0.290 OA
ENDROOT
BRANCH   1  28
ATOM     27  C   UNL     1     -11.538  15.467  64.371  0.00  0.00    +0.090 C 
ATOM     28  N   UNL     1     -11.173  15.997  65.665  0.00  0.00    -0.265 NA
ATOM     29  C   UNL     1     -10.351  17.136  65.450  0.00  0.00    +0.090 C 
ENDBRANCH   1  28
BRANCH  23  30
ATOM     30  C   UNL     1     -11.579  11.996  68.120  0.00  0.00    +0.290 C 
ATOM     31  O   UNL     1     -11.527  11.063  67.272  0.00  0.00    -0.266 OA
ATOM     32  N   UNL     1     -11.664  11.613  69.498  0.00  0.00    -0.084 NA
ENDBRANCH  23  30
TORSDOF 2
ENDMDL
MODEL 3
REMARK VINA RESULT:      -6.8      3.037      7.042
REMARK  Name = 
REMARK  2 active torsions:
REMARK  status: ('A' for Active; 'I' for Inactive)
REMARK    1  A    between atoms: N_2  and  C_4
REMARK    2  A    between atoms: C_7  and  C_8
REMARK                            x       y       z     vdW  Elec       q    Type
REMARK                         _______ _______ _______ _____ _____    ______ ____
ROOT
ATOM      1  C   UNL     1     -11.650  14.958  68.949  0.00  0.00    +0.124 C 
ATOM      2  C   UNL     1     -10.011  15.536  68.846  0.00  0.00    +0.065 C 
ATOM      3  C   UNL     1      -9.792  15.217  67.272  0.00  0.00    +0.237 C 
ATOM      4  C   UNL     1      -9.399  16.397  66.527  0.00  0.00    +0.207 C 
ATOM      5  C   UNL     1      -8.917  17.528  66.948  0.00  0.00    +0.057 C 
ATOM      6  C   UNL     1      -8.914  17.580  68.580  0.00  0.00    +0.060 C 
ATOM      7  C   UNL     1      -9.288  19.198  68.611  0.00  0.00    +0.149 C 
ATOM      8  O   UNL     1     -10.217  19.409  67.658  0.00  0.00    -0.221 OA
ATOM      9  C   UNL     1      -9.708  19.502  70.012  0.00  0.00    +0.038 C 
ATOM     10  C   UNL     1      -7.921  19.742  68.314  0.00  0.00    +0.012 A 
ATOM     11  C   UNL     1      -7.166  19.258  67.248  0.00  0.00    +0.076 A 
ATOM     12  C   UNL     1      -5.787  19.451  67.181  0.00  0.00    +0.198 A 
ATOM     13  C   UNL     1      -5.097  19.846  68.323  0.00  0.00    +0.042 A 
ATOM     14  C   UNL     1      -5.805  19.921  69.509  0.00  0.00    +0.003 A 
ATOM     15  O   UNL     1      -5.044  18.781  66.202  0.00  0.00    -0.286 OA
ATOM     16  C   UNL     1      -7.174  20.104  69.433  0.00  0.00    -0.002 A 
ATOM     17  C   UNL     1      -7.829  18.283  66.362  0.00  0.00    +0.197 C 
ATOM     18  O   UNL     1      -7.232  17.789  65.375  0.00  0.00    -0.287 OA
ATOM     19  O   UNL     1      -9.064  16.104  65.200  0.00  0.00    -0.289 OA
ATOM     20  O   UNL     1      -8.604  14.461  67.373  0.00  0.00    -0.210 OA
ATOM     21  C   UNL     1     -10.846  14.406  66.732  0.00  0.00    +0.215 C 
ATOM     22  O   UNL     1     -11.028  14.437  65.502  0.00  0.00    -0.288 OA
ATOM     23  C   UNL     1     -11.192  13.176  67.462  0.00  0.00    +0.130 C 
ATOM     24  C   UNL     1     -10.505  17.087  68.600  0.00  0.00    +0.012 C 
ATOM     25  C   UNL     1     -11.187  13.400  68.781  0.00  0.00    +0.195 C 
ATOM     26  O   UNL     1     -11.956  12.499  69.529  0.00  0.00    -0.290 OA
ENDROOT
BRANCH   1  28
ATOM     27  C   UNL     1     -12.839  14.211  70.839  0.00  0.00    +0.090 C 
ATOM     28  N   UNL     1     -11.587  14.866  70.535  0.00  0.00    -0.265 NA
ATOM     29  C   UNL     1     -11.664  16.196  71.029  0.00  0.00    +0.090 C 
ENDBRANCH   1  28
BRANCH  23  30
ATOM     30  C   UNL     1     -11.629  11.952  66.832  0.00  0.00    +0.290 C 
ATOM     31  O   UNL     1     -12.378  12.041  65.822  0.00  0.00    -0.266 OA
ATOM     32  N   UNL     1     -10.721  10.844  66.868  0.00  0.00    -0.084 NA
ENDBRANCH  23  30
TORSDOF 2
ENDMDL
MODEL 4
REMARK VINA RESULT:      -6.7      2.277      4.588
REMARK  Name = 
REMARK  2 active torsions:
REMARK  status: ('A' for Active; 'I' for Inactive)
REMARK    1  A    between atoms: N_2  and  C_4
REMARK    2  A    between atoms: C_7  and  C_8
REMARK                            x       y       z     vdW  Elec       q    Type
REMARK                         _______ _______ _______ _____ _____    ______ ____
ROOT
ATOM      1  C   UNL     1      -7.266  16.321  67.289  0.00  0.00    +0.124 C 
ATOM      2  C   UNL     1      -8.209  15.193  68.220  0.00  0.00    +0.065 C 
ATOM      3  C   UNL     1      -9.616  15.437  67.452  0.00  0.00    +0.237 C 
ATOM      4  C   UNL     1     -10.163  14.207  66.914  0.00  0.00    +0.207 C 
ATOM      5  C   UNL     1      -9.883  12.971  67.205  0.00  0.00    +0.057 C 
ATOM      6  C   UNL     1      -8.626  12.896  68.244  0.00  0.00    +0.060 C 
ATOM      7  C   UNL     1      -8.019  11.521  67.537  0.00  0.00    +0.149 C 
ATOM      8  O   UNL     1      -8.138  11.674  66.204  0.00  0.00    -0.221 OA
ATOM      9  C   UNL     1      -6.627  11.366  68.055  0.00  0.00    +0.038 C 
ATOM     10  C   UNL     1      -8.954  10.526  68.161  0.00  0.00    +0.012 A 
ATOM     11  C   UNL     1     -10.333  10.722  68.147  0.00  0.00    +0.076 A 
ATOM     12  C   UNL     1     -11.177  10.046  69.027  0.00  0.00    +0.198 A 
ATOM     13  C   UNL     1     -10.635   9.411  70.140  0.00  0.00    +0.042 A 
ATOM     14  C   UNL     1      -9.282   9.577  70.380  0.00  0.00    +0.003 A 
ATOM     15  O   UNL     1     -12.523  10.419  69.114  0.00  0.00    -0.286 OA
ATOM     16  C   UNL     1      -8.471   9.901  69.308  0.00  0.00    -0.002 A 
ATOM     17  C   UNL     1     -10.824  11.885  67.383  0.00  0.00    +0.197 C 
ATOM     18  O   UNL     1     -12.049  12.147  67.312  0.00  0.00    -0.287 OA
ATOM     19  O   UNL     1     -11.445  14.381  66.380  0.00  0.00    -0.289 OA
ATOM     20  O   UNL     1     -10.425  15.712  68.575  0.00  0.00    -0.210 OA
ATOM     21  C   UNL     1      -9.569  16.582  66.588  0.00  0.00    +0.215 C 
ATOM     22  O   UNL     1     -10.393  16.639  65.657  0.00  0.00    -0.288 OA
ATOM     23  C   UNL     1      -9.073  17.842  67.164  0.00  0.00    +0.130 C 
ATOM     24  C   UNL     1      -7.756  13.929  67.269  0.00  0.00    +0.012 C 
ATOM     25  C   UNL     1      -8.018  17.610  67.954  0.00  0.00    +0.195 C 
ATOM     26  O   UNL     1      -7.180  18.715  68.147  0.00  0.00    -0.290 OA
ENDROOT
BRANCH   1  28
ATOM     27  C   UNL     1      -5.221  17.356  67.833  0.00  0.00    +0.090 C 
ATOM     28  N   UNL     1      -6.112  16.358  68.382  0.00  0.00    -0.265 NA
ATOM     29  C   UNL     1      -5.446  15.104  68.323  0.00  0.00    +0.090 C 
ENDBRANCH   1  28
BRANCH  23  30
ATOM     30  C   UNL     1      -9.560  19.151  66.797  0.00  0.00    +0.290 C 
ATOM     31  O   UNL     1      -9.189  19.633  65.692  0.00  0.00    -0.266 OA
ATOM     32  N   UNL     1     -10.873  19.505  67.249  0.00  0.00    -0.084 NA
ENDBRANCH  23  30
TORSDOF 2
ENDMDL
MODEL 5
REMARK VINA RESULT:      -6.7      2.475      7.549
REMARK  Name = 
REMARK  2 active torsions:
REMARK  status: ('A' for Active; 'I' for Inactive)
REMARK    1  A    between atoms: N_2  and  C_4
REMARK    2  A    between atoms: C_7  and  C_8
REMARK                            x       y       z     vdW  Elec       q    Type
REMARK                         _______ _______ _______ _____ _____    ______ ____
ROOT
ATOM      1  C   UNL     1      -7.948  13.572  68.003  0.00  0.00    +0.124 C 
ATOM      2  C   UNL     1      -7.454  15.092  67.312  0.00  0.00    +0.065 C 
ATOM      3  C   UNL     1      -8.811  15.911  67.654  0.00  0.00    +0.237 C 
ATOM      4  C   UNL     1      -8.547  17.102  68.435  0.00  0.00    +0.207 C 
ATOM      5  C   UNL     1      -7.434  17.747  68.623  0.00  0.00    +0.057 C 
ATOM      6  C   UNL     1      -6.184  16.946  67.946  0.00  0.00    +0.060 C 
ATOM      7  C   UNL     1      -5.142  17.373  69.167  0.00  0.00    +0.149 C 
ATOM      8  O   UNL     1      -5.823  17.263  70.325  0.00  0.00    -0.221 OA
ATOM      9  C   UNL     1      -3.948  16.488  69.025  0.00  0.00    +0.038 C 
ATOM     10  C   UNL     1      -4.847  18.775  68.720  0.00  0.00    +0.012 A 
ATOM     11  C   UNL     1      -5.871  19.658  68.385  0.00  0.00    +0.076 A 
ATOM     12  C   UNL     1      -5.634  20.797  67.617  0.00  0.00    +0.198 A 
ATOM     13  C   UNL     1      -4.442  20.903  66.905  0.00  0.00    +0.042 A 
ATOM     14  C   UNL     1      -3.592  19.812  66.908  0.00  0.00    +0.003 A 
ATOM     15  O   UNL     1      -6.716  21.544  67.140  0.00  0.00    -0.286 OA
ATOM     16  C   UNL     1      -3.689  18.920  67.961  0.00  0.00    -0.002 A 
ATOM     17  C   UNL     1      -7.250  19.184  68.615  0.00  0.00    +0.197 C 
ATOM     18  O   UNL     1      -8.240  19.906  68.345  0.00  0.00    -0.287 OA
ATOM     19  O   UNL     1      -9.690  17.892  68.608  0.00  0.00    -0.289 OA
ATOM     20  O   UNL     1      -9.094  16.401  66.361  0.00  0.00    -0.210 OA
ATOM     21  C   UNL     1      -9.869  15.045  68.092  0.00  0.00    +0.215 C 
ATOM     22  O   UNL     1     -10.787  15.548  68.764  0.00  0.00    -0.288 OA
ATOM     23  C   UNL     1     -10.172  13.873  67.256  0.00  0.00    +0.130 C 
ATOM     24  C   UNL     1      -6.678  15.541  68.692  0.00  0.00    +0.012 C 
ATOM     25  C   UNL     1      -9.042  13.307  66.818  0.00  0.00    +0.195 C 
ATOM     26  O   UNL     1      -9.165  11.960  66.455  0.00  0.00    -0.290 OA
ENDROOT
BRANCH   1  28
ATOM     27  C   UNL     1      -7.095  11.412  67.615  0.00  0.00    +0.090 C 
ATOM     28  N   UNL     1      -6.819  12.775  67.219  0.00  0.00    -0.265 NA
ATOM     29  C   UNL     1      -5.574  13.148  67.793  0.00  0.00    +0.090 C 
ENDBRANCH   1  28
BRANCH  23  30
ATOM     30  C   UNL     1     -11.497  13.325  67.072  0.00  0.00    +0.290 C 
ATOM     31  O   UNL     1     -12.007  12.679  68.026  0.00  0.00    -0.266 OA
ATOM     32  N   UNL     1     -12.395  14.067  66.238  0.00  0.00    -0.084 NA
ENDBRANCH  23  30
TORSDOF 2
ENDMDL
MODEL 6
REMARK VINA RESULT:      -6.7      3.166      5.840
REMARK  Name = 
REMARK  2 active torsions:
REMARK  status: ('A' for Active; 'I' for Inactive)
REMARK    1  A    between atoms: N_2  and  C_4
REMARK    2  A    between atoms: C_7  and  C_8
REMARK                            x       y       z     vdW  Elec       q    Type
REMARK                         _______ _______ _______ _____ _____    ______ ____
ROOT
ATOM      1  C   UNL     1      -9.158  14.416  66.947  0.00  0.00    +0.124 C 
ATOM      2  C   UNL     1      -9.857  13.021  67.719  0.00  0.00    +0.065 C 
ATOM      3  C   UNL     1     -10.443  12.329  66.376  0.00  0.00    +0.237 C 
ATOM      4  C   UNL     1      -9.949  10.978  66.199  0.00  0.00    +0.207 C 
ATOM      5  C   UNL     1      -9.396  10.172  67.057  0.00  0.00    +0.057 C 
ATOM      6  C   UNL     1      -9.146  10.931  68.480  0.00  0.00    +0.060 C 
ATOM      7  C   UNL     1      -7.715  10.132  68.748  0.00  0.00    +0.149 C 
ATOM      8  O   UNL     1      -7.060  10.087  67.570  0.00  0.00    -0.221 OA
ATOM      9  C   UNL     1      -7.026  10.869  69.849  0.00  0.00    +0.038 C 
ATOM     10  C   UNL     1      -8.281   8.827  69.225  0.00  0.00    +0.012 A 
ATOM     11  C   UNL     1      -9.282   8.169  68.514  0.00  0.00    +0.076 A 
ATOM     12  C   UNL     1     -10.080   7.192  69.108  0.00  0.00    +0.198 A 
ATOM     13  C   UNL     1     -10.108   7.085  70.495  0.00  0.00    +0.042 A 
ATOM     14  C   UNL     1      -9.420   8.036  71.228  0.00  0.00    +0.003 A 
ATOM     15  O   UNL     1     -11.196   6.704  68.420  0.00  0.00    -0.286 OA
ATOM     16  C   UNL     1      -8.374   8.696  70.609  0.00  0.00    -0.002 A 
ATOM     17  C   UNL     1      -9.659   8.757  67.214  0.00  0.00    +0.197 C 
ATOM     18  O   UNL     1     -10.550   8.238  66.500  0.00  0.00    -0.287 OA
ATOM     19  O   UNL     1     -10.562  10.321  65.126  0.00  0.00    -0.289 OA
ATOM     20  O   UNL     1     -11.780  12.155  66.794  0.00  0.00    -0.210 OA
ATOM     21  C   UNL     1     -10.393  13.212  65.246  0.00  0.00    +0.215 C 
ATOM     22  O   UNL     1     -10.409  12.702  64.111  0.00  0.00    -0.288 OA
ATOM     23  C   UNL     1     -10.957  14.560  65.418  0.00  0.00    +0.130 C 
ATOM     24  C   UNL     1      -8.429  12.203  67.678  0.00  0.00    +0.012 C 
ATOM     25  C   UNL     1     -10.624  15.056  66.615  0.00  0.00    +0.195 C 
ATOM     26  O   UNL     1     -10.662  16.454  66.700  0.00  0.00    -0.290 OA
ENDROOT
BRANCH   1  28
ATOM     27  C   UNL     1      -8.716  16.538  67.867  0.00  0.00    +0.090 C 
ATOM     28  N   UNL     1      -9.058  15.209  68.321  0.00  0.00    -0.265 NA
ATOM     29  C   UNL     1      -7.935  14.687  69.019  0.00  0.00    +0.090 C 
ENDBRANCH   1  28
BRANCH  23  30
ATOM     30  C   UNL     1     -11.635  15.297  64.376  0.00  0.00    +0.290 C 
ATOM     31  O   UNL     1     -12.813  14.957  64.081  0.00  0.00    -0.266 OA
ATOM     32  N   UNL     1     -11.313  16.687  64.250  0.00  0.00    -0.084 NA
ENDBRANCH  23  30
TORSDOF 2
ENDMDL
MODEL 7
REMARK VINA RESULT:      -6.7      3.014      8.147
REMARK  Name = 
REMARK  2 active torsions:
REMARK  status: ('A' for Active; 'I' for Inactive)
REMARK    1  A    between atoms: N_2  and  C_4
REMARK    2  A    between atoms: C_7  and  C_8
REMARK                            x       y       z     vdW  Elec       q    Type
REMARK                         _______ _______ _______ _____ _____    ______ ____
ROOT
ATOM      1  C   UNL     1      -8.367  15.544  67.921  0.00  0.00    +0.124 C 
ATOM      2  C   UNL     1      -7.077  16.540  67.309  0.00  0.00    +0.065 C 
ATOM      3  C   UNL     1      -8.014  17.692  66.659  0.00  0.00    +0.237 C 
ATOM      4  C   UNL     1      -7.697  19.008  67.177  0.00  0.00    +0.207 C 
ATOM      5  C   UNL     1      -6.637  19.426  67.802  0.00  0.00    +0.057 C 
ATOM      6  C   UNL     1      -5.629  18.183  68.119  0.00  0.00    +0.060 C 
ATOM      7  C   UNL     1      -5.175  18.818  69.585  0.00  0.00    +0.149 C 
ATOM      8  O   UNL     1      -6.288  19.308  70.167  0.00  0.00    -0.221 OA
ATOM      9  C   UNL     1      -4.484  17.716  70.321  0.00  0.00    +0.038 C 
ATOM     10  C   UNL     1      -4.201  19.843  69.084  0.00  0.00    +0.012 A 
ATOM     11  C   UNL     1      -4.539  20.723  68.059  0.00  0.00    +0.076 A 
ATOM     12  C   UNL     1      -3.567  21.401  67.325  0.00  0.00    +0.198 A 
ATOM     13  C   UNL     1      -2.245  20.972  67.385  0.00  0.00    +0.042 A 
ATOM     14  C   UNL     1      -1.976  19.814  68.092  0.00  0.00    +0.003 A 
ATOM     15  O   UNL     1      -3.942  22.116  66.182  0.00  0.00    -0.286 OA
ATOM     16  C   UNL     1      -2.868  19.438  69.080  0.00  0.00    -0.002 A 
ATOM     17  C   UNL     1      -5.937  20.675  67.587  0.00  0.00    +0.197 C 
ATOM     18  O   UNL     1      -6.339  21.428  66.667  0.00  0.00    -0.287 OA
ATOM     19  O   UNL     1      -8.397  20.025  66.515  0.00  0.00    -0.289 OA
ATOM     20  O   UNL     1      -7.473  17.694  65.355  0.00  0.00    -0.210 OA
ATOM     21  C   UNL     1      -9.396  17.305  66.616  0.00  0.00    +0.215 C 
ATOM     22  O   UNL     1     -10.248  18.209  66.543  0.00  0.00    -0.288 OA
ATOM     23  C   UNL     1      -9.711  15.993  66.028  0.00  0.00    +0.130 C 
ATOM     24  C   UNL     1      -6.900  17.311  68.752  0.00  0.00    +0.012 C 
ATOM     25  C   UNL     1      -8.817  15.079  66.421  0.00  0.00    +0.195 C 
ATOM     26  O   UNL     1      -9.268  13.755  66.352  0.00  0.00    -0.290 OA
ENDROOT
BRANCH   1  28
ATOM     27  C   UNL     1      -8.354  13.228  68.350  0.00  0.00    +0.090 C 
ATOM     28  N   UNL     1      -7.407  14.287  68.085  0.00  0.00    -0.265 NA
ATOM     29  C   UNL     1      -6.649  14.497  69.270  0.00  0.00    +0.090 C 
ENDBRANCH   1  28
BRANCH  23  30
ATOM     30  C   UNL     1     -10.907  15.709  65.268  0.00  0.00    +0.290 C 
ATOM     31  O   UNL     1     -11.857  15.125  65.857  0.00  0.00    -0.266 OA
ATOM     32  N   UNL     1     -11.258  16.641  64.239  0.00  0.00    -0.084 NA
ENDBRANCH  23  30
TORSDOF 2
ENDMDL
MODEL 8
REMARK VINA RESULT:      -6.7      2.137      4.229
REMARK  Name = 
REMARK  2 active torsions:
REMARK  status: ('A' for Active; 'I' for Inactive)
REMARK    1  A    between atoms: N_2  and  C_4
REMARK    2  A    between atoms: C_7  and  C_8
REMARK                            x       y       z     vdW  Elec       q    Type
REMARK                         _______ _______ _______ _____ _____    ______ ____
ROOT
ATOM      1  C   UNL     1      -6.306  17.001  68.619  0.00  0.00    +0.124 C 
ATOM      2  C   UNL     1      -7.596  15.860  68.869  0.00  0.00    +0.065 C 
ATOM      3  C   UNL     1      -8.459  16.251  67.554  0.00  0.00    +0.237 C 
ATOM      4  C   UNL     1      -8.699  15.106  66.698  0.00  0.00    +0.207 C 
ATOM      5  C   UNL     1      -8.610  13.836  66.960  0.00  0.00    +0.057 C 
ATOM      6  C   UNL     1      -8.006  13.598  68.458  0.00  0.00    +0.060 C 
ATOM      7  C   UNL     1      -7.155  12.251  67.989  0.00  0.00    +0.149 C 
ATOM      8  O   UNL     1      -6.617  12.521  66.783  0.00  0.00    -0.221 OA
ATOM      9  C   UNL     1      -6.183  11.969  69.088  0.00  0.00    +0.038 C 
ATOM     10  C   UNL     1      -8.288  11.267  67.988  0.00  0.00    +0.012 A 
ATOM     11  C   UNL     1      -9.489  11.548  67.341  0.00  0.00    +0.076 A 
ATOM     12  C   UNL     1     -10.661  10.855  67.639  0.00  0.00    +0.198 A 
ATOM     13  C   UNL     1     -10.728  10.098  68.805  0.00  0.00    +0.042 A 
ATOM     14  C   UNL     1      -9.654  10.161  69.675  0.00  0.00    +0.003 A 
ATOM     15  O   UNL     1     -11.878  11.301  67.113  0.00  0.00    -0.286 OA
ATOM     16  C   UNL     1      -8.423  10.522  69.157  0.00  0.00    -0.002 A 
ATOM     17  C   UNL     1      -9.537  12.798  66.558  0.00  0.00    +0.197 C 
ATOM     18  O   UNL     1     -10.574  13.139  65.939  0.00  0.00    -0.287 OA
ATOM     19  O   UNL     1      -9.565  15.402  65.639  0.00  0.00    -0.289 OA
ATOM     20  O   UNL     1      -9.704  16.482  68.178  0.00  0.00    -0.210 OA
ATOM     21  C   UNL     1      -7.987  17.458  66.937  0.00  0.00    +0.215 C 
ATOM     22  O   UNL     1      -8.263  17.642  65.738  0.00  0.00    -0.288 OA
ATOM     23  C   UNL     1      -7.810  18.634  67.805  0.00  0.00    +0.130 C 
ATOM     24  C   UNL     1      -6.760  14.653  68.125  0.00  0.00    +0.012 C 
ATOM     25  C   UNL     1      -7.266  18.274  68.973  0.00  0.00    +0.195 C 
ATOM     26  O   UNL     1      -6.608  19.306  69.653  0.00  0.00    -0.290 OA
ENDROOT
BRANCH   1  28
ATOM     27  C   UNL     1      -4.752  17.854  70.169  0.00  0.00    +0.090 C 
ATOM     28  N   UNL     1      -5.816  16.877  70.126  0.00  0.00    -0.265 NA
ATOM     29  C   UNL     1      -5.228  15.591  70.266  0.00  0.00    +0.090 C 
ENDBRANCH   1  28
BRANCH  23  30
ATOM     30  C   UNL     1      -8.043  19.997  67.385  0.00  0.00    +0.290 C 
ATOM     31  O   UNL     1      -7.206  20.528  66.606  0.00  0.00    -0.266 OA
ATOM     32  N   UNL     1      -9.408  20.408  67.245  0.00  0.00    -0.084 NA
ENDBRANCH  23  30
TORSDOF 2
ENDMDL
MODEL 9
REMARK VINA RESULT:      -6.6      3.155      4.281
REMARK  Name = 
REMARK  2 active torsions:
REMARK  status: ('A' for Active; 'I' for Inactive)
REMARK    1  A    between atoms: N_2  and  C_4
REMARK    2  A    between atoms: C_7  and  C_8
REMARK                            x       y       z     vdW  Elec       q    Type
REMARK                         _______ _______ _______ _____ _____    ______ ____
ROOT
ATOM      1  C   UNL     1     -11.356  15.397  67.488  0.00  0.00    +0.124 C 
ATOM      2  C   UNL     1     -10.301  14.015  67.387  0.00  0.00    +0.065 C 
ATOM      3  C   UNL     1     -11.016  13.140  68.550  0.00  0.00    +0.237 C 
ATOM      4  C   UNL     1     -11.437  11.839  68.071  0.00  0.00    +0.207 C 
ATOM      5  C   UNL     1     -11.073  11.181  67.011  0.00  0.00    +0.057 C 
ATOM      6  C   UNL     1     -10.093  12.094  66.077  0.00  0.00    +0.060 C 
ATOM      7  C   UNL     1     -10.728  11.481  64.670  0.00  0.00    +0.149 C 
ATOM      8  O   UNL     1     -12.062  11.393  64.841  0.00  0.00    -0.221 OA
ATOM      9  C   UNL     1     -10.268  12.388  63.575  0.00  0.00    +0.038 C 
ATOM     10  C   UNL     1      -9.990  10.174  64.651  0.00  0.00    +0.012 A 
ATOM     11  C   UNL     1      -9.951   9.349  65.772  0.00  0.00    +0.076 A 
ATOM     12  C   UNL     1      -8.985   8.354  65.915  0.00  0.00    +0.198 A 
ATOM     13  C   UNL     1      -7.857   8.376  65.101  0.00  0.00    +0.042 A 
ATOM     14  C   UNL     1      -7.695   9.459  64.256  0.00  0.00    +0.003 A 
ATOM     15  O   UNL     1      -8.861   7.686  67.139  0.00  0.00    -0.286 OA
ATOM     16  C   UNL     1      -8.826  10.165  63.887  0.00  0.00    -0.002 A 
ATOM     17  C   UNL     1     -10.772   9.767  66.925  0.00  0.00    +0.197 C 
ATOM     18  O   UNL     1     -10.803   9.091  67.981  0.00  0.00    -0.287 OA
ATOM     19  O   UNL     1     -11.920  11.022  69.100  0.00  0.00    -0.289 OA
ATOM     20  O   UNL     1      -9.878  12.866  69.338  0.00  0.00    -0.210 OA
ATOM     21  C   UNL     1     -11.962  13.913  69.304  0.00  0.00    +0.215 C 
ATOM     22  O   UNL     1     -12.853  13.299  69.917  0.00  0.00    -0.288 OA
ATOM     23  C   UNL     1     -11.502  15.204  69.841  0.00  0.00    +0.130 C 
ATOM     24  C   UNL     1     -11.181  13.353  66.163  0.00  0.00    +0.012 C 
ATOM     25  C   UNL     1     -10.749  15.843  68.938  0.00  0.00    +0.195 C 
ATOM     26  O   UNL     1     -10.676  17.231  69.117  0.00  0.00    -0.290 OA
ENDROOT
BRANCH   1  28
ATOM     27  C   UNL     1     -10.812  17.643  67.037  0.00  0.00    +0.090 C 
ATOM     28  N   UNL     1     -10.326  16.322  66.708  0.00  0.00    -0.265 NA
ATOM     29  C   UNL     1     -10.550  16.112  65.320  0.00  0.00    +0.090 C 
ENDBRANCH   1  28
BRANCH  23  30
ATOM     30  C   UNL     1     -11.938  15.763  71.100  0.00  0.00    +0.290 C 
ATOM     31  O   UNL     1     -13.147  16.103  71.210  0.00  0.00    -0.266 OA
ATOM     32  N   UNL     1     -11.293  15.277  72.284  0.00  0.00    -0.084 NA
ENDBRANCH  23  30
TORSDOF 2
ENDMDL
