MODEL 1
REMARK VINA RESULT:      -5.9      0.000      0.000
REMARK  Name = 
REMARK  3 active torsions:
REMARK  status: ('A' for Active; 'I' for Inactive)
REMARK    1  A    between atoms: CA_2  and  C_3
REMARK    2  A    between atoms: CA_2  and  C_6
REMARK    3  A    between atoms: C_6  and  C_8
REMARK                            x       y       z     vdW  Elec       q    Type
REMARK                         _______ _______ _______ _____ _____    ______ ____
ROOT
ATOM      1  C   UNL     1     -11.598  13.753  67.100  0.00  0.00    +0.013 A 
ATOM      2  C   UNL     1     -11.802  14.593  68.146  0.00  0.00    +0.044 A 
ATOM      3  C   UNL     1     -11.424  14.151  69.408  0.00  0.00    +0.234 A 
ATOM      4  O   UNL     1     -11.076  14.995  70.437  0.00  0.00    -0.283 OA
ATOM      5  C   UNL     1     -11.811  12.864  69.744  0.00  0.00    +0.234 A 
ATOM      6  O   UNL     1     -12.413  12.555  70.970  0.00  0.00    -0.283 OA
ATOM      7  C   UNL     1     -11.803  11.936  68.710  0.00  0.00    +0.045 A 
ATOM      8  C   UNL     1     -11.711  12.396  67.401  0.00  0.00    +0.002 A 
ENDROOT
BRANCH   1   9
ATOM      9  C   UNL     1     -12.598  13.972  65.814  0.00  0.00    +0.203 C 
ATOM     10  O   UNL     1     -12.622  12.455  65.555  0.00  0.00    -0.216 OA
BRANCH   9  12
ATOM     11  N   UNL     1     -12.255  14.212  63.426  0.00  0.00    -0.118 NA
ATOM     12  CA  UNL     1     -11.274  14.203  64.673  0.00  0.00    +0.229 C 
BRANCH  12  13
ATOM     13  C   UNL     1     -11.316  15.822  64.800  0.00  0.00    +0.385 C 
ATOM     14  OXT UNL     1     -10.071  16.226  65.300  0.00  0.00    -0.244 OA
ATOM     15  O   UNL     1     -11.746  16.438  63.820  0.00  0.00    -0.244 OA
ENDBRANCH  12  13
ENDBRANCH   9  12
ENDBRANCH   1   9
TORSDOF 3
ENDMDL
MODEL 2
REMARK VINA RESULT:      -5.4      2.564      4.225
REMARK  Name = 
REMARK  3 active torsions:
REMARK  status: ('A' for Active; 'I' for Inactive)
REMARK    1  A    between atoms: CA_2  and  C_3
REMARK    2  A    between atoms: CA_2  and  C_6
REMARK    3  A    between atoms: C_6  and  C_8
REMARK                            x       y       z     vdW  Elec       q    Type
REMARK                         _______ _______ _______ _____ _____    ______ ____
ROOT
ATOM      1  C   UNL     1     -12.082  14.787  70.100  0.00  0.00    +0.013 A 
ATOM      2  C   UNL     1     -12.454  13.726  70.862  0.00  0.00    +0.044 A 
ATOM      3  C   UNL     1     -13.129  13.992  72.047  0.00  0.00    +0.234 A 
ATOM      4  O   UNL     1     -13.998  13.107  72.642  0.00  0.00    -0.283 OA
ATOM      5  C   UNL     1     -12.593  14.990  72.843  0.00  0.00    +0.234 A 
ATOM      6  O   UNL     1     -12.395  14.829  74.220  0.00  0.00    -0.283 OA
ATOM      7  C   UNL     1     -12.026  16.067  72.172  0.00  0.00    +0.045 A 
ATOM      8  C   UNL     1     -11.766  15.943  70.812  0.00  0.00    +0.002 A 
ENDROOT
BRANCH   1   9
ATOM      9  C   UNL     1     -10.782  14.535  69.128  0.00  0.00    +0.203 C 
ATOM     10  O   UNL     1     -10.757  16.027  68.749  0.00  0.00    -0.216 OA
BRANCH   9  12
ATOM     11  N   UNL     1     -10.700  14.750  66.714  0.00  0.00    -0.118 NA
ATOM     12  CA  UNL     1     -11.763  14.135  67.719  0.00  0.00    +0.229 C 
BRANCH  12  13
ATOM     13  C   UNL     1     -11.130  12.646  67.578  0.00  0.00    +0.385 C 
ATOM     14  OXT UNL     1     -12.156  11.736  67.865  0.00  0.00    -0.244 OA
ATOM     15  O   UNL     1     -10.464  12.427  66.561  0.00  0.00    -0.244 OA
ENDBRANCH  12  13
ENDBRANCH   9  12
ENDBRANCH   1   9
TORSDOF 3
ENDMDL
MODEL 3
REMARK VINA RESULT:      -5.4      2.881      4.314
REMARK  Name = 
REMARK  3 active torsions:
REMARK  status: ('A' for Active; 'I' for Inactive)
REMARK    1  A    between atoms: CA_2  and  C_3
REMARK    2  A    between atoms: CA_2  and  C_6
REMARK    3  A    between atoms: C_6  and  C_8
REMARK                            x       y       z     vdW  Elec       q    Type
REMARK                         _______ _______ _______ _____ _____    ______ ____
ROOT
ATOM      1  C   UNL     1      -9.714  14.616  66.396  0.00  0.00    +0.013 A 
ATOM      2  C   UNL     1      -8.971  13.576  66.852  0.00  0.00    +0.044 A 
ATOM      3  C   UNL     1      -7.946  13.861  67.747  0.00  0.00    +0.234 A 
ATOM      4  O   UNL     1      -7.468  12.958  68.669  0.00  0.00    -0.283 OA
ATOM      5  C   UNL     1      -7.126  14.926  67.414  0.00  0.00    +0.234 A 
ATOM      6  O   UNL     1      -5.730  14.845  67.467  0.00  0.00    -0.283 OA
ATOM      7  C   UNL     1      -7.745  15.999  66.784  0.00  0.00    +0.045 A 
ATOM      8  C   UNL     1      -9.026  15.823  66.272  0.00  0.00    +0.002 A 
ENDROOT
BRANCH   1   9
ATOM      9  C   UNL     1     -10.417  14.391  64.929  0.00  0.00    +0.203 C 
ATOM     10  O   UNL     1     -10.516  15.914  64.726  0.00  0.00    -0.216 OA
BRANCH   9  12
ATOM     11  N   UNL     1     -12.708  14.691  64.196  0.00  0.00    -0.118 NA
ATOM     12  CA  UNL     1     -12.049  14.315  65.589  0.00  0.00    +0.229 C 
BRANCH  12  13
ATOM     13  C   UNL     1     -12.197  12.723  65.302  0.00  0.00    +0.385 C 
ATOM     14  OXT UNL     1     -12.126  12.075  66.543  0.00  0.00    -0.244 OA
ATOM     15  O   UNL     1     -13.118  12.384  64.553  0.00  0.00    -0.244 OA
ENDBRANCH  12  13
ENDBRANCH   9  12
ENDBRANCH   1   9
TORSDOF 3
ENDMDL
MODEL 4
REMARK VINA RESULT:      -5.3      1.551      1.908
REMARK  Name = 
REMARK  3 active torsions:
REMARK  status: ('A' for Active; 'I' for Inactive)
REMARK    1  A    between atoms: CA_2  and  C_3
REMARK    2  A    between atoms: CA_2  and  C_6
REMARK    3  A    between atoms: C_6  and  C_8
REMARK                            x       y       z     vdW  Elec       q    Type
REMARK                         _______ _______ _______ _____ _____    ______ ____
ROOT
ATOM      1  C   UNL     1     -11.479  14.089  67.860  0.00  0.00    +0.013 A 
ATOM      2  C   UNL     1     -11.574  15.432  68.029  0.00  0.00    +0.044 A 
ATOM      3  C   UNL     1     -11.288  15.943  69.289  0.00  0.00    +0.234 A 
ATOM      4  O   UNL     1     -10.834  17.224  69.505  0.00  0.00    -0.283 OA
ATOM      5  C   UNL     1     -11.867  15.284  70.360  0.00  0.00    +0.234 A 
ATOM      6  O   UNL     1     -12.529  15.961  71.391  0.00  0.00    -0.283 OA
ATOM      7  C   UNL     1     -11.980  13.904  70.238  0.00  0.00    +0.045 A 
ATOM      8  C   UNL     1     -11.798  13.329  68.985  0.00  0.00    +0.002 A 
ENDROOT
BRANCH   1   9
ATOM      9  C   UNL     1     -12.413  13.461  66.663  0.00  0.00    +0.203 C 
ATOM     10  O   UNL     1     -11.970  12.037  67.044  0.00  0.00    -0.216 OA
BRANCH   9  12
ATOM     11  N   UNL     1     -11.827  12.499  64.516  0.00  0.00    -0.118 NA
ATOM     12  CA  UNL     1     -11.146  13.591  65.444  0.00  0.00    +0.229 C 
BRANCH  12  13
ATOM     13  C   UNL     1     -11.885  14.809  64.664  0.00  0.00    +0.385 C 
ATOM     14  OXT UNL     1     -10.948  15.844  64.540  0.00  0.00    -0.244 OA
ATOM     15  O   UNL     1     -12.513  14.506  63.645  0.00  0.00    -0.244 OA
ENDBRANCH  12  13
ENDBRANCH   9  12
ENDBRANCH   1   9
TORSDOF 3
ENDMDL
MODEL 5
REMARK VINA RESULT:      -5.2      2.942      5.888
REMARK  Name = 
REMARK  3 active torsions:
REMARK  status: ('A' for Active; 'I' for Inactive)
REMARK    1  A    between atoms: CA_2  and  C_3
REMARK    2  A    between atoms: CA_2  and  C_6
REMARK    3  A    between atoms: C_6  and  C_8
REMARK                            x       y       z     vdW  Elec       q    Type
REMARK                         _______ _______ _______ _____ _____    ______ ____
ROOT
ATOM      1  C   UNL     1     -11.481  14.689  69.072  0.00  0.00    +0.013 A 
ATOM      2  C   UNL     1     -12.179  13.716  68.432  0.00  0.00    +0.044 A 
ATOM      3  C   UNL     1     -11.682  13.264  67.216  0.00  0.00    +0.234 A 
ATOM      4  O   UNL     1     -11.927  12.006  66.715  0.00  0.00    -0.283 OA
ATOM      5  C   UNL     1     -11.288  14.241  66.317  0.00  0.00    +0.234 A 
ATOM      6  O   UNL     1     -11.671  14.224  64.971  0.00  0.00    -0.283 OA
ATOM      7  C   UNL     1     -10.703  15.375  66.868  0.00  0.00    +0.045 A 
ATOM      8  C   UNL     1     -10.820  15.589  68.236  0.00  0.00    +0.002 A 
ENDROOT
BRANCH   1   9
ATOM      9  C   UNL     1     -12.361  15.639  70.084  0.00  0.00    +0.203 C 
ATOM     10  O   UNL     1     -11.243  16.697  70.087  0.00  0.00    -0.216 OA
BRANCH   9  12
ATOM     11  N   UNL     1     -12.030  16.159  72.428  0.00  0.00    -0.118 NA
ATOM     12  CA  UNL     1     -11.725  14.880  71.542  0.00  0.00    +0.229 C 
BRANCH  12  13
ATOM     13  C   UNL     1     -13.148  14.196  71.925  0.00  0.00    +0.385 C 
ATOM     14  OXT UNL     1     -13.021  12.822  71.680  0.00  0.00    -0.244 OA
ATOM     15  O   UNL     1     -13.638  14.522  73.010  0.00  0.00    -0.244 OA
ENDBRANCH  12  13
ENDBRANCH   9  12
ENDBRANCH   1   9
TORSDOF 3
ENDMDL
MODEL 6
REMARK VINA RESULT:      -5.2      1.440      1.658
REMARK  Name = 
REMARK  3 active torsions:
REMARK  status: ('A' for Active; 'I' for Inactive)
REMARK    1  A    between atoms: CA_2  and  C_3
REMARK    2  A    between atoms: CA_2  and  C_6
REMARK    3  A    between atoms: C_6  and  C_8
REMARK                            x       y       z     vdW  Elec       q    Type
REMARK                         _______ _______ _______ _____ _____    ______ ____
ROOT
ATOM      1  C   UNL     1     -11.377  14.329  68.474  0.00  0.00    +0.013 A 
ATOM      2  C   UNL     1     -11.816  15.381  69.211  0.00  0.00    +0.044 A 
ATOM      3  C   UNL     1     -11.852  15.227  70.592  0.00  0.00    +0.234 A 
ATOM      4  O   UNL     1     -11.758  16.276  71.477  0.00  0.00    -0.283 OA
ATOM      5  C   UNL     1     -12.408  14.048  71.060  0.00  0.00    +0.234 A 
ATOM      6  O   UNL     1     -13.360  14.020  72.087  0.00  0.00    -0.283 OA
ATOM      7  C   UNL     1     -12.167  12.914  70.294  0.00  0.00    +0.045 A 
ATOM      8  C   UNL     1     -11.667  13.073  69.006  0.00  0.00    +0.002 A 
ENDROOT
BRANCH   1   9
ATOM      9  C   UNL     1     -11.944  14.263  66.933  0.00  0.00    +0.203 C 
ATOM     10  O   UNL     1     -11.809  12.730  66.933  0.00  0.00    -0.216 OA
BRANCH   9  12
ATOM     11  N   UNL     1     -10.853  13.979  64.787  0.00  0.00    -0.118 NA
ATOM     12  CA  UNL     1     -10.348  14.460  66.212  0.00  0.00    +0.229 C 
BRANCH  12  13
ATOM     13  C   UNL     1     -10.598  16.023  65.844  0.00  0.00    +0.385 C 
ATOM     14  OXT UNL     1      -9.620  16.764  66.521  0.00  0.00    -0.244 OA
ATOM     15  O   UNL     1     -10.764  16.285  64.650  0.00  0.00    -0.244 OA
ENDBRANCH  12  13
ENDBRANCH   9  12
ENDBRANCH   1   9
TORSDOF 3
ENDMDL
MODEL 7
REMARK VINA RESULT:      -5.2      2.110      2.226
REMARK  Name = 
REMARK  3 active torsions:
REMARK  status: ('A' for Active; 'I' for Inactive)
REMARK    1  A    between atoms: CA_2  and  C_3
REMARK    2  A    between atoms: CA_2  and  C_6
REMARK    3  A    between atoms: C_6  and  C_8
REMARK                            x       y       z     vdW  Elec       q    Type
REMARK                         _______ _______ _______ _____ _____    ______ ____
ROOT
ATOM      1  C   UNL     1     -10.608  12.792  66.361  0.00  0.00    +0.013 A 
ATOM      2  C   UNL     1      -9.771  13.086  67.388  0.00  0.00    +0.044 A 
ATOM      3  C   UNL     1      -9.118  12.027  68.008  0.00  0.00    +0.234 A 
ATOM      4  O   UNL     1      -7.912  12.154  68.659  0.00  0.00    -0.283 OA
ATOM      5  C   UNL     1      -9.901  10.930  68.327  0.00  0.00    +0.234 A 
ATOM      6  O   UNL     1      -9.860  10.317  69.584  0.00  0.00    -0.283 OA
ATOM      7  C   UNL     1     -10.912  10.621  67.425  0.00  0.00    +0.045 A 
ATOM      8  C   UNL     1     -11.260  11.564  66.464  0.00  0.00    +0.002 A 
ENDROOT
BRANCH   1   9
ATOM      9  C   UNL     1     -11.814  13.877  66.101  0.00  0.00    +0.203 C 
ATOM     10  O   UNL     1     -12.681  12.781  65.456  0.00  0.00    -0.216 OA
BRANCH   9  12
ATOM     11  N   UNL     1     -12.621  14.807  64.013  0.00  0.00    -0.118 NA
ATOM     12  CA  UNL     1     -11.184  14.381  64.534  0.00  0.00    +0.229 C 
BRANCH  12  13
ATOM     13  C   UNL     1     -10.851  15.888  65.042  0.00  0.00    +0.385 C 
ATOM     14  OXT UNL     1      -9.482  15.926  65.339  0.00  0.00    -0.244 OA
ATOM     15  O   UNL     1     -11.293  16.809  64.350  0.00  0.00    -0.244 OA
ENDBRANCH  12  13
ENDBRANCH   9  12
ENDBRANCH   1   9
TORSDOF 3
ENDMDL
MODEL 8
REMARK VINA RESULT:      -5.2      3.337      5.902
REMARK  Name = 
REMARK  3 active torsions:
REMARK  status: ('A' for Active; 'I' for Inactive)
REMARK    1  A    between atoms: CA_2  and  C_3
REMARK    2  A    between atoms: CA_2  and  C_6
REMARK    3  A    between atoms: C_6  and  C_8
REMARK                            x       y       z     vdW  Elec       q    Type
REMARK                         _______ _______ _______ _____ _____    ______ ____
ROOT
ATOM      1  C   UNL     1     -12.044  15.119  69.566  0.00  0.00    +0.013 A 
ATOM      2  C   UNL     1     -11.264  16.230  69.578  0.00  0.00    +0.044 A 
ATOM      3  C   UNL     1     -10.933  16.796  68.353  0.00  0.00    +0.234 A 
ATOM      4  O   UNL     1     -10.628  18.128  68.188  0.00  0.00    -0.283 OA
ATOM      5  C   UNL     1     -10.503  15.919  67.371  0.00  0.00    +0.234 A 
ATOM      6  O   UNL     1      -9.359  16.154  66.601  0.00  0.00    -0.283 OA
ATOM      7  C   UNL     1     -11.117  14.672  67.357  0.00  0.00    +0.045 A 
ATOM      8  C   UNL     1     -11.868  14.286  68.462  0.00  0.00    +0.002 A 
ENDROOT
BRANCH   1   9
ATOM      9  C   UNL     1     -11.876  14.125  70.863  0.00  0.00    +0.203 C 
ATOM     10  O   UNL     1     -12.161  12.898  69.978  0.00  0.00    -0.216 OA
BRANCH   9  12
ATOM     11  N   UNL     1     -13.480  12.985  72.279  0.00  0.00    -0.118 NA
ATOM     12  CA  UNL     1     -13.571  14.253  71.330  0.00  0.00    +0.229 C 
BRANCH  12  13
ATOM     13  C   UNL     1     -13.258  15.272  72.556  0.00  0.00    +0.385 C 
ATOM     14  OXT UNL     1     -14.340  16.158  72.638  0.00  0.00    -0.244 OA
ATOM     15  O   UNL     1     -12.881  14.759  73.613  0.00  0.00    -0.244 OA
ENDBRANCH  12  13
ENDBRANCH   9  12
ENDBRANCH   1   9
TORSDOF 3
ENDMDL
MODEL 9
REMARK VINA RESULT:      -5.2      2.958      4.634
REMARK  Name = 
REMARK  3 active torsions:
REMARK  status: ('A' for Active; 'I' for Inactive)
REMARK    1  A    between atoms: CA_2  and  C_3
REMARK    2  A    between atoms: CA_2  and  C_6
REMARK    3  A    between atoms: C_6  and  C_8
REMARK                            x       y       z     vdW  Elec       q    Type
REMARK                         _______ _______ _______ _____ _____    ______ ____
ROOT
ATOM      1  C   UNL     1      -9.809  15.672  65.920  0.00  0.00    +0.013 A 
ATOM      2  C   UNL     1     -10.565  16.775  66.151  0.00  0.00    +0.044 A 
ATOM      3  C   UNL     1      -9.910  17.999  66.221  0.00  0.00    +0.234 A 
ATOM      4  O   UNL     1     -10.512  19.202  65.930  0.00  0.00    -0.283 OA
ATOM      5  C   UNL     1      -8.763  18.034  66.996  0.00  0.00    +0.234 A 
ATOM      6  O   UNL     1      -8.522  19.039  67.939  0.00  0.00    -0.283 OA
ATOM      7  C   UNL     1      -7.979  16.886  66.974  0.00  0.00    +0.045 A 
ATOM      8  C   UNL     1      -8.519  15.719  66.448  0.00  0.00    +0.002 A 
ENDROOT
BRANCH   1   9
ATOM      9  C   UNL     1     -10.432  14.260  66.482  0.00  0.00    +0.203 C 
ATOM     10  O   UNL     1      -9.021  13.649  66.557  0.00  0.00    -0.216 OA
BRANCH   9  12
ATOM     11  N   UNL     1     -10.805  12.113  65.420  0.00  0.00    -0.118 NA
ATOM     12  CA  UNL     1     -10.696  13.597  64.870  0.00  0.00    +0.229 C 
BRANCH  12  13
ATOM     13  C   UNL     1     -12.305  13.809  64.938  0.00  0.00    +0.385 C 
ATOM     14  OXT UNL     1     -12.638  14.736  63.941  0.00  0.00    -0.244 OA
ATOM     15  O   UNL     1     -12.991  12.784  64.993  0.00  0.00    -0.244 OA
ENDBRANCH  12  13
ENDBRANCH   9  12
ENDBRANCH   1   9
TORSDOF 3
ENDMDL
