MODEL 1
REMARK VINA RESULT:      -6.8      0.000      0.000
REMARK  Name = 
REMARK  8 active torsions:
REMARK  status: ('A' for Active; 'I' for Inactive)
REMARK    1  A    between atoms: O_2  and  C_3
REMARK    2  A    between atoms: C_13  and  C_14
REMARK    3  A    between atoms: C_14  and  C_15
REMARK    4  A    between atoms: C_14  and  C_21
REMARK    5  A    between atoms: C_21  and  C_23
REMARK    6  A    between atoms: C_21  and  C_28
REMARK    7  A    between atoms: C_23  and  C_24
REMARK    8  A    between atoms: C_24  and  N_25
REMARK                            x       y       z     vdW  Elec       q    Type
REMARK                         _______ _______ _______ _____ _____    ______ ____
ROOT
ATOM      1  C   UNL     1     -11.258  10.118  67.899  0.00  0.00    +0.081 C 
ENDROOT
BRANCH   1   3
ATOM      2  C   UNL     1     -11.693  12.538  67.376  0.00  0.00    +0.221 A 
ATOM      3  C   UNL     1     -11.261  11.686  68.388  0.00  0.00    +0.037 A 
ATOM      4  C   UNL     1     -11.919  11.870  69.602  0.00  0.00    +0.002 A 
ATOM      5  C   UNL     1     -12.112  13.198  69.968  0.00  0.00    +0.018 A 
ATOM      6  C   UNL     1     -11.768  14.194  69.060  0.00  0.00    +0.084 A 
ATOM      7  C   UNL     1     -12.028  15.526  69.327  0.00  0.00    +0.020 A 
ATOM      8  C   UNL     1     -12.313  15.878  70.620  0.00  0.00    +0.008 A 
ATOM      9  C   UNL     1     -12.266  14.932  71.637  0.00  0.00    +0.035 A 
ATOM     10 BR   UNL     1     -12.846  15.487  73.372  0.00  0.00    -0.049 Br
ATOM     11  C   UNL     1     -12.117  13.605  71.296  0.00  0.00    +0.008 A 
ATOM     12  N   UNL     1     -11.801  13.837  67.752  0.00  0.00    -0.212 NA
BRANCH   2  14
ATOM     13  C   UNL     1     -12.479  12.990  65.080  0.00  0.00    +0.254 C 
ATOM     14  O   UNL     1     -12.085  12.100  66.119  0.00  0.00    -0.456 OA
ENDBRANCH   2  14
ENDBRANCH   1   3
BRANCH   1  15
ATOM     15  C   UNL     1      -9.831  10.293  67.126  0.00  0.00    -0.016 A 
ATOM     16  C   UNL     1      -9.022  11.283  67.628  0.00  0.00    -0.004 A 
ATOM     17  C   UNL     1      -7.770  11.366  67.023  0.00  0.00    -0.000 A 
ATOM     18  C   UNL     1      -7.467  10.644  65.875  0.00  0.00    -0.000 A 
ATOM     19  C   UNL     1      -8.479   9.914  65.271  0.00  0.00    -0.000 A 
ATOM     20  C   UNL     1      -9.680   9.697  65.936  0.00  0.00    -0.004 A 
ENDBRANCH   1  15
BRANCH   1  21
ATOM     21  C   UNL     1     -10.563   9.500  69.284  0.00  0.00    +0.154 C 
ATOM     22  O   UNL     1      -9.440  10.290  69.489  0.00  0.00    -0.220 OA
BRANCH  21  23
ATOM     23  C   UNL     1     -10.045   8.178  68.833  0.00  0.00    +0.006 A 
ATOM     24  C   UNL     1      -8.691   7.872  68.933  0.00  0.00    -0.002 A 
ATOM     25  C   UNL     1      -8.118   7.133  67.907  0.00  0.00    -0.000 A 
ATOM     26  C   UNL     1      -6.747   6.969  67.857  0.00  0.00    -0.000 A 
ATOM     27  C   UNL     1      -6.003   7.547  68.873  0.00  0.00    -0.000 A 
ATOM     28  C   UNL     1      -6.603   8.098  70.000  0.00  0.00    -0.000 A 
ATOM     29  C   UNL     1      -8.941   6.381  67.077  0.00  0.00    -0.000 A 
ATOM     30  C   UNL     1     -10.278   6.267  67.444  0.00  0.00    -0.000 A 
ATOM     31  C   UNL     1      -7.931   8.501  69.908  0.00  0.00    -0.000 A 
ATOM     32  C   UNL     1     -10.823   7.151  68.344  0.00  0.00    -0.002 A 
ENDBRANCH  21  23
BRANCH  21  33
ATOM     33  C   UNL     1     -11.521   9.479  70.365  0.00  0.00    +0.053 C 
BRANCH  33  34
ATOM     34  C   UNL     1     -11.078   8.889  71.653  0.00  0.00    +0.075 C 
BRANCH  34  35
ATOM     35  N   UNL     1     -12.120   8.232  72.406  0.00  0.00    -0.270 NA
ATOM     36  C   UNL     1     -13.374   8.968  72.263  0.00  0.00    +0.090 C 
ATOM     37  C   UNL     1     -12.347   6.950  71.743  0.00  0.00    +0.090 C 
ENDBRANCH  34  35
ENDBRANCH  33  34
ENDBRANCH  21  33
ENDBRANCH   1  21
TORSDOF 8
ENDMDL
MODEL 2
REMARK VINA RESULT:      -6.7      3.023      5.522
REMARK  Name = 
REMARK  8 active torsions:
REMARK  status: ('A' for Active; 'I' for Inactive)
REMARK    1  A    between atoms: O_2  and  C_3
REMARK    2  A    between atoms: C_13  and  C_14
REMARK    3  A    between atoms: C_14  and  C_15
REMARK    4  A    between atoms: C_14  and  C_21
REMARK    5  A    between atoms: C_21  and  C_23
REMARK    6  A    between atoms: C_21  and  C_28
REMARK    7  A    between atoms: C_23  and  C_24
REMARK    8  A    between atoms: C_24  and  N_25
REMARK                            x       y       z     vdW  Elec       q    Type
REMARK                         _______ _______ _______ _____ _____    ______ ____
ROOT
ATOM      1  C   UNL     1     -11.436  13.457  67.434  0.00  0.00    +0.081 C 
ENDROOT
BRANCH   1   3
ATOM      2  C   UNL     1      -9.869  15.203  66.534  0.00  0.00    +0.221 A 
ATOM      3  C   UNL     1      -9.903  14.022  67.268  0.00  0.00    +0.037 A 
ATOM      4  C   UNL     1      -9.219  14.089  68.480  0.00  0.00    +0.002 A 
ATOM      5  C   UNL     1      -7.988  14.732  68.422  0.00  0.00    +0.018 A 
ATOM      6  C   UNL     1      -7.617  15.353  67.234  0.00  0.00    +0.084 A 
ATOM      7  C   UNL     1      -6.451  16.091  67.146  0.00  0.00    +0.020 A 
ATOM      8  C   UNL     1      -5.510  15.924  68.128  0.00  0.00    +0.008 A 
ATOM      9  C   UNL     1      -5.697  14.986  69.135  0.00  0.00    +0.035 A 
ATOM     10 BR   UNL     1      -4.410  14.952  70.548  0.00  0.00    -0.049 Br
ATOM     11  C   UNL     1      -6.925  14.365  69.237  0.00  0.00    +0.008 A 
ATOM     12  N   UNL     1      -8.637  15.764  66.440  0.00  0.00    -0.212 NA
BRANCH   2  14
ATOM     13  C   UNL     1     -11.112  16.232  64.665  0.00  0.00    +0.254 C 
ATOM     14  O   UNL     1     -11.000  15.824  66.025  0.00  0.00    -0.456 OA
ENDBRANCH   2  14
ENDBRANCH   1   3
BRANCH   1  15
ATOM     15  C   UNL     1     -11.431  12.809  65.935  0.00  0.00    -0.016 A 
ATOM     16  C   UNL     1     -10.182  12.572  65.416  0.00  0.00    -0.004 A 
ATOM     17  C   UNL     1     -10.186  11.935  64.177  0.00  0.00    -0.000 A 
ATOM     18  C   UNL     1     -11.358  11.759  63.453  0.00  0.00    -0.000 A 
ATOM     19  C   UNL     1     -12.524  12.330  63.938  0.00  0.00    -0.000 A 
ATOM     20  C   UNL     1     -12.572  12.831  65.234  0.00  0.00    -0.004 A 
ENDBRANCH   1  15
BRANCH   1  21
ATOM     21  C   UNL     1     -11.020  12.024  68.180  0.00  0.00    +0.154 C 
ATOM     22  O   UNL     1     -11.861  11.080  67.607  0.00  0.00    -0.220 OA
BRANCH  21  23
ATOM     23  C   UNL     1     -11.521  12.217  69.569  0.00  0.00    +0.006 A 
ATOM     24  C   UNL     1     -11.716  11.128  70.414  0.00  0.00    -0.002 A 
ATOM     25  C   UNL     1     -12.815  11.156  71.263  0.00  0.00    -0.000 A 
ATOM     26  C   UNL     1     -13.165  10.026  71.976  0.00  0.00    -0.000 A 
ATOM     27  C   UNL     1     -12.367   8.905  71.817  0.00  0.00    -0.000 A 
ATOM     28  C   UNL     1     -11.156   8.955  71.134  0.00  0.00    -0.000 A 
ATOM     29  C   UNL     1     -13.407  12.379  71.558  0.00  0.00    -0.000 A 
ATOM     30  C   UNL     1     -12.744  13.524  71.129  0.00  0.00    -0.000 A 
ATOM     31  C   UNL     1     -10.964   9.979  70.213  0.00  0.00    -0.000 A 
ATOM     32  C   UNL     1     -11.782  13.438  70.152  0.00  0.00    -0.002 A 
ENDBRANCH  21  23
BRANCH  21  33
ATOM     33  C   UNL     1      -9.604  11.773  68.039  0.00  0.00    +0.053 C 
BRANCH  33  34
ATOM     34  C   UNL     1      -9.193  10.390  67.686  0.00  0.00    +0.075 C 
BRANCH  34  35
ATOM     35  N   UNL     1      -7.770  10.155  67.729  0.00  0.00    -0.270 NA
ATOM     36  C   UNL     1      -7.076  11.163  66.931  0.00  0.00    +0.090 C 
ATOM     37  C   UNL     1      -7.362  10.409  69.109  0.00  0.00    +0.090 C 
ENDBRANCH  34  35
ENDBRANCH  33  34
ENDBRANCH  21  33
ENDBRANCH   1  21
TORSDOF 8
ENDMDL
MODEL 3
REMARK VINA RESULT:      -6.4      3.478      6.713
REMARK  Name = 
REMARK  8 active torsions:
REMARK  status: ('A' for Active; 'I' for Inactive)
REMARK    1  A    between atoms: O_2  and  C_3
REMARK    2  A    between atoms: C_13  and  C_14
REMARK    3  A    between atoms: C_14  and  C_15
REMARK    4  A    between atoms: C_14  and  C_21
REMARK    5  A    between atoms: C_21  and  C_23
REMARK    6  A    between atoms: C_21  and  C_28
REMARK    7  A    between atoms: C_23  and  C_24
REMARK    8  A    between atoms: C_24  and  N_25
REMARK                            x       y       z     vdW  Elec       q    Type
REMARK                         _______ _______ _______ _____ _____    ______ ____
ROOT
ATOM      1  C   UNL     1     -11.216  15.092  67.299  0.00  0.00    +0.081 C 
ENDROOT
BRANCH   1   3
ATOM      2  C   UNL     1      -9.458  16.522  66.211  0.00  0.00    +0.221 A 
ATOM      3  C   UNL     1      -9.628  15.398  67.014  0.00  0.00    +0.037 A 
ATOM      4  C   UNL     1      -8.865  15.416  68.180  0.00  0.00    +0.002 A 
ATOM      5  C   UNL     1      -7.555  15.852  68.017  0.00  0.00    +0.018 A 
ATOM      6  C   UNL     1      -7.170  16.347  66.775  0.00  0.00    +0.084 A 
ATOM      7  C   UNL     1      -5.911  16.886  66.579  0.00  0.00    +0.020 A 
ATOM      8  C   UNL     1      -4.947  16.621  67.515  0.00  0.00    +0.008 A 
ATOM      9  C   UNL     1      -5.212  15.775  68.584  0.00  0.00    +0.035 A 
ATOM     10 BR   UNL     1      -3.858  15.608  69.922  0.00  0.00    -0.049 Br
ATOM     11  C   UNL     1      -6.512  15.362  68.791  0.00  0.00    +0.008 A 
ATOM     12  N   UNL     1      -8.162  16.874  66.016  0.00  0.00    -0.212 NA
BRANCH   2  14
ATOM     13  C   UNL     1     -10.574  18.701  65.892  0.00  0.00    +0.254 C 
ATOM     14  O   UNL     1     -10.510  17.288  65.730  0.00  0.00    -0.456 OA
ENDBRANCH   2  14
ENDBRANCH   1   3
BRANCH   1  15
ATOM     15  C   UNL     1     -11.351  14.183  65.950  0.00  0.00    -0.016 A 
ATOM     16  C   UNL     1     -10.159  13.874  65.343  0.00  0.00    -0.004 A 
ATOM     17  C   UNL     1     -10.275  13.023  64.246  0.00  0.00    -0.000 A 
ATOM     18  C   UNL     1     -11.512  12.700  63.703  0.00  0.00    -0.000 A 
ATOM     19  C   UNL     1     -12.638  13.331  64.208  0.00  0.00    -0.000 A 
ATOM     20  C   UNL     1     -12.562  14.059  65.390  0.00  0.00    -0.004 A 
ENDBRANCH   1  15
BRANCH   1  21
ATOM     21  C   UNL     1     -10.970  13.779  68.299  0.00  0.00    +0.154 C 
ATOM     22  O   UNL     1     -12.003  12.907  67.983  0.00  0.00    -0.220 OA
BRANCH  21  23
ATOM     23  C   UNL     1     -11.302  14.322  69.645  0.00  0.00    +0.006 A 
ATOM     24  C   UNL     1     -12.039  13.569  70.555  0.00  0.00    -0.002 A 
ATOM     25  C   UNL     1     -12.965  14.236  71.347  0.00  0.00    -0.000 A 
ATOM     26  C   UNL     1     -13.855  13.519  72.121  0.00  0.00    -0.000 A 
ATOM     27  C   UNL     1     -13.759  12.137  72.080  0.00  0.00    -0.000 A 
ATOM     28  C   UNL     1     -12.698  11.492  71.453  0.00  0.00    -0.000 A 
ATOM     29  C   UNL     1     -12.832  15.608  71.526  0.00  0.00    -0.000 A 
ATOM     30  C   UNL     1     -11.668  16.201  71.049  0.00  0.00    -0.000 A 
ATOM     31  C   UNL     1     -11.996  12.185  70.471  0.00  0.00    -0.000 A 
ATOM     32  C   UNL     1     -10.889  15.545  70.127  0.00  0.00    -0.002 A 
ENDBRANCH  21  23
BRANCH  21  33
ATOM     33  C   UNL     1      -9.634  13.258  68.129  0.00  0.00    +0.053 C 
BRANCH  33  34
ATOM     34  C   UNL     1      -9.455  11.791  68.271  0.00  0.00    +0.075 C 
BRANCH  34  35
ATOM     35  N   UNL     1      -9.056  11.112  67.061  0.00  0.00    -0.270 NA
ATOM     36  C   UNL     1      -7.927  10.227  67.338  0.00  0.00    +0.090 C 
ATOM     37  C   UNL     1     -10.164  10.226  66.713  0.00  0.00    +0.090 C 
ENDBRANCH  34  35
ENDBRANCH  33  34
ENDBRANCH  21  33
ENDBRANCH   1  21
TORSDOF 8
ENDMDL
MODEL 4
REMARK VINA RESULT:      -6.3      5.325      8.614
REMARK  Name = 
REMARK  8 active torsions:
REMARK  status: ('A' for Active; 'I' for Inactive)
REMARK    1  A    between atoms: O_2  and  C_3
REMARK    2  A    between atoms: C_13  and  C_14
REMARK    3  A    between atoms: C_14  and  C_15
REMARK    4  A    between atoms: C_14  and  C_21
REMARK    5  A    between atoms: C_21  and  C_23
REMARK    6  A    between atoms: C_21  and  C_28
REMARK    7  A    between atoms: C_23  and  C_24
REMARK    8  A    between atoms: C_24  and  N_25
REMARK                            x       y       z     vdW  Elec       q    Type
REMARK                         _______ _______ _______ _____ _____    ______ ____
ROOT
ATOM      1  C   UNL     1      -7.924  16.416  66.348  0.00  0.00    +0.081 C 
ENDROOT
BRANCH   1   3
ATOM      2  C   UNL     1     -10.202  15.363  66.214  0.00  0.00    +0.221 A 
ATOM      3  C   UNL     1      -9.030  15.370  66.964  0.00  0.00    +0.037 A 
ATOM      4  C   UNL     1      -8.501  14.102  67.197  0.00  0.00    +0.002 A 
ATOM      5  C   UNL     1      -9.435  13.132  67.541  0.00  0.00    +0.018 A 
ATOM      6  C   UNL     1     -10.785  13.462  67.491  0.00  0.00    +0.084 A 
ATOM      7  C   UNL     1     -11.764  12.513  67.726  0.00  0.00    +0.020 A 
ATOM      8  C   UNL     1     -11.390  11.343  68.333  0.00  0.00    +0.008 A 
ATOM      9  C   UNL     1     -10.082  11.156  68.765  0.00  0.00    +0.035 A 
ATOM     10 BR   UNL     1      -9.625   9.429  69.442  0.00  0.00    -0.049 Br
ATOM     11  C   UNL     1      -9.130  12.085  68.400  0.00  0.00    +0.008 A 
ATOM     12  N   UNL     1     -11.119  14.451  66.625  0.00  0.00    -0.212 NA
BRANCH   2  14
ATOM     13  C   UNL     1     -11.582  16.087  64.299  0.00  0.00    +0.254 C 
ATOM     14  O   UNL     1     -10.393  16.139  65.080  0.00  0.00    -0.456 OA
ENDBRANCH   2  14
ENDBRANCH   1   3
BRANCH   1  15
ATOM     15  C   UNL     1      -8.674  17.705  67.013  0.00  0.00    -0.016 A 
ATOM     16  C   UNL     1      -9.439  17.418  68.117  0.00  0.00    -0.004 A 
ATOM     17  C   UNL     1     -10.002  18.533  68.733  0.00  0.00    -0.000 A 
ATOM     18  C   UNL     1      -9.955  19.790  68.145  0.00  0.00    -0.000 A 
ATOM     19  C   UNL     1      -9.430  19.900  66.867  0.00  0.00    -0.000 A 
ATOM     20  C   UNL     1      -8.732  18.839  66.303  0.00  0.00    -0.004 A 
ENDBRANCH   1  15
BRANCH   1  21
ATOM     21  C   UNL     1      -6.824  16.267  67.593  0.00  0.00    +0.154 C 
ATOM     22  O   UNL     1      -7.550  16.583  68.734  0.00  0.00    -0.220 OA
BRANCH  21  23
ATOM     23  C   UNL     1      -5.911  17.422  67.368  0.00  0.00    +0.006 A 
ATOM     24  C   UNL     1      -5.721  18.384  68.356  0.00  0.00    -0.002 A 
ATOM     25  C   UNL     1      -5.592  19.707  67.955  0.00  0.00    -0.000 A 
ATOM     26  C   UNL     1      -5.599  20.718  68.896  0.00  0.00    -0.000 A 
ATOM     27  C   UNL     1      -5.714  20.343  70.225  0.00  0.00    -0.000 A 
ATOM     28  C   UNL     1      -5.628  19.014  70.625  0.00  0.00    -0.000 A 
ATOM     29  C   UNL     1      -5.230  19.980  66.640  0.00  0.00    -0.000 A 
ATOM     30  C   UNL     1      -4.836  18.902  65.854  0.00  0.00    -0.000 A 
ATOM     31  C   UNL     1      -5.903  18.026  69.684  0.00  0.00    -0.000 A 
ATOM     32  C   UNL     1      -5.154  17.620  66.233  0.00  0.00    -0.002 A 
ENDBRANCH  21  23
BRANCH  21  33
ATOM     33  C   UNL     1      -6.216  14.957  67.578  0.00  0.00    +0.053 C 
BRANCH  33  34
ATOM     34  C   UNL     1      -5.345  14.599  68.725  0.00  0.00    +0.075 C 
BRANCH  34  35
ATOM     35  N   UNL     1      -6.006  13.866  69.779  0.00  0.00    -0.270 NA
ATOM     36  C   UNL     1      -5.592  12.465  69.743  0.00  0.00    +0.090 C 
ATOM     37  C   UNL     1      -5.472  14.394  71.032  0.00  0.00    +0.090 C 
ENDBRANCH  34  35
ENDBRANCH  33  34
ENDBRANCH  21  33
ENDBRANCH   1  21
TORSDOF 8
ENDMDL
MODEL 5
REMARK VINA RESULT:      -6.2      3.835      7.539
REMARK  Name = 
REMARK  8 active torsions:
REMARK  status: ('A' for Active; 'I' for Inactive)
REMARK    1  A    between atoms: O_2  and  C_3
REMARK    2  A    between atoms: C_13  and  C_14
REMARK    3  A    between atoms: C_14  and  C_15
REMARK    4  A    between atoms: C_14  and  C_21
REMARK    5  A    between atoms: C_21  and  C_23
REMARK    6  A    between atoms: C_21  and  C_28
REMARK    7  A    between atoms: C_23  and  C_24
REMARK    8  A    between atoms: C_24  and  N_25
REMARK                            x       y       z     vdW  Elec       q    Type
REMARK                         _______ _______ _______ _____ _____    ______ ____
ROOT
ATOM      1  C   UNL     1      -9.362  14.793  68.718  0.00  0.00    +0.081 C 
ENDROOT
BRANCH   1   3
ATOM      2  C   UNL     1      -6.912  14.234  68.715  0.00  0.00    +0.221 A 
ATOM      3  C   UNL     1      -8.106  13.969  68.053  0.00  0.00    +0.037 A 
ATOM      4  C   UNL     1      -8.376  12.612  67.894  0.00  0.00    +0.002 A 
ATOM      5  C   UNL     1      -7.285  11.839  67.511  0.00  0.00    +0.018 A 
ATOM      6  C   UNL     1      -6.032  12.440  67.453  0.00  0.00    +0.084 A 
ATOM      7  C   UNL     1      -4.896  11.702  67.174  0.00  0.00    +0.020 A 
ATOM      8  C   UNL     1      -5.059  10.455  66.629  0.00  0.00    +0.008 A 
ATOM      9  C   UNL     1      -6.325   9.987  66.300  0.00  0.00    +0.035 A 
ATOM     10 BR   UNL     1      -6.458   8.175  65.706  0.00  0.00    -0.049 Br
ATOM     11  C   UNL     1      -7.423  10.716  66.706  0.00  0.00    +0.008 A 
ATOM     12  N   UNL     1      -5.854  13.512  68.264  0.00  0.00    -0.212 NA
BRANCH   2  14
ATOM     13  C   UNL     1      -5.835  16.112  69.903  0.00  0.00    +0.254 C 
ATOM     14  O   UNL     1      -6.812  15.080  69.810  0.00  0.00    -0.456 OA
ENDBRANCH   2  14
ENDBRANCH   1   3
BRANCH   1  15
ATOM     15  C   UNL     1      -8.947  16.175  67.954  0.00  0.00    -0.016 A 
ATOM     16  C   UNL     1      -8.099  16.010  66.887  0.00  0.00    -0.004 A 
ATOM     17  C   UNL     1      -7.822  17.180  66.185  0.00  0.00    -0.000 A 
ATOM     18  C   UNL     1      -8.208  18.425  66.666  0.00  0.00    -0.000 A 
ATOM     19  C   UNL     1      -8.785  18.495  67.924  0.00  0.00    -0.000 A 
ATOM     20  C   UNL     1      -9.205  17.337  68.567  0.00  0.00    -0.004 A 
ENDBRANCH   1  15
BRANCH   1  21
ATOM     21  C   UNL     1     -10.490  14.360  67.567  0.00  0.00    +0.154 C 
ATOM     22  O   UNL     1     -11.243  15.510  67.373  0.00  0.00    -0.220 OA
BRANCH  21  23
ATOM     23  C   UNL     1     -11.377  13.421  68.310  0.00  0.00    +0.006 A 
ATOM     24  C   UNL     1     -12.027  13.825  69.472  0.00  0.00    -0.002 A 
ATOM     25  C   UNL     1     -12.144  12.900  70.502  0.00  0.00    -0.000 A 
ATOM     26  C   UNL     1     -12.602  13.301  71.742  0.00  0.00    -0.000 A 
ATOM     27  C   UNL     1     -12.948  14.635  71.886  0.00  0.00    -0.000 A 
ATOM     28  C   UNL     1     -13.027  15.497  70.797  0.00  0.00    -0.000 A 
ATOM     29  C   UNL     1     -12.020  11.547  70.209  0.00  0.00    -0.000 A 
ATOM     30  C   UNL     1     -11.969  11.191  68.865  0.00  0.00    -0.000 A 
ATOM     31  C   UNL     1     -12.314  15.171  69.648  0.00  0.00    -0.000 A 
ATOM     32  C   UNL     1     -11.673  12.136  67.913  0.00  0.00    -0.002 A 
ENDBRANCH  21  23
BRANCH  21  33
ATOM     33  C   UNL     1      -9.837  13.831  66.392  0.00  0.00    +0.053 C 
BRANCH  33  34
ATOM     34  C   UNL     1     -10.369  14.254  65.072  0.00  0.00    +0.075 C 
BRANCH  34  35
ATOM     35  N   UNL     1     -10.801  13.172  64.221  0.00  0.00    -0.270 NA
ATOM     36  C   UNL     1     -10.144  11.931  64.624  0.00  0.00    +0.090 C 
ATOM     37  C   UNL     1     -12.218  12.970  64.516  0.00  0.00    +0.090 C 
ENDBRANCH  34  35
ENDBRANCH  33  34
ENDBRANCH  21  33
ENDBRANCH   1  21
TORSDOF 8
ENDMDL
MODEL 6
REMARK VINA RESULT:      -6.2      3.617      5.897
REMARK  Name = 
REMARK  8 active torsions:
REMARK  status: ('A' for Active; 'I' for Inactive)
REMARK    1  A    between atoms: O_2  and  C_3
REMARK    2  A    between atoms: C_13  and  C_14
REMARK    3  A    between atoms: C_14  and  C_15
REMARK    4  A    between atoms: C_14  and  C_21
REMARK    5  A    between atoms: C_21  and  C_23
REMARK    6  A    between atoms: C_21  and  C_28
REMARK    7  A    between atoms: C_23  and  C_24
REMARK    8  A    between atoms: C_24  and  N_25
REMARK                            x       y       z     vdW  Elec       q    Type
REMARK                         _______ _______ _______ _____ _____    ______ ____
ROOT
ATOM      1  C   UNL     1     -10.420  14.081  68.124  0.00  0.00    +0.081 C 
ENDROOT
BRANCH   1   3
ATOM      2  C   UNL     1     -10.584  16.539  68.622  0.00  0.00    +0.221 A 
ATOM      3  C   UNL     1      -9.738  15.575  68.083  0.00  0.00    +0.037 A 
ATOM      4  C   UNL     1      -8.449  15.593  68.611  0.00  0.00    +0.002 A 
ATOM      5  C   UNL     1      -7.900  16.860  68.771  0.00  0.00    +0.018 A 
ATOM      6  C   UNL     1      -8.704  17.969  68.528  0.00  0.00    +0.084 A 
ATOM      7  C   UNL     1      -8.245  19.252  68.764  0.00  0.00    +0.020 A 
ATOM      8  C   UNL     1      -6.895  19.433  68.914  0.00  0.00    +0.008 A 
ATOM      9  C   UNL     1      -6.017  18.368  68.756  0.00  0.00    +0.035 A 
ATOM     10 BR   UNL     1      -4.175  18.689  69.154  0.00  0.00    -0.049 Br
ATOM     11  C   UNL     1      -6.538  17.096  68.638  0.00  0.00    +0.008 A 
ATOM     12  N   UNL     1     -10.037  17.779  68.696  0.00  0.00    -0.212 NA
BRANCH   2  14
ATOM     13  C   UNL     1     -12.048  15.886  70.500  0.00  0.00    +0.254 C 
ATOM     14  O   UNL     1     -11.839  16.257  69.141  0.00  0.00    -0.456 OA
ENDBRANCH   2  14
ENDBRANCH   1   3
BRANCH   1  15
ATOM     15  C   UNL     1     -11.153  14.303  66.682  0.00  0.00    -0.016 A 
ATOM     16  C   UNL     1     -10.647  15.337  65.933  0.00  0.00    -0.004 A 
ATOM     17  C   UNL     1     -11.214  15.462  64.667  0.00  0.00    -0.000 A 
ATOM     18  C   UNL     1     -12.336  14.732  64.297  0.00  0.00    -0.000 A 
ATOM     19  C   UNL     1     -12.956  13.947  65.256  0.00  0.00    -0.000 A 
ATOM     20  C   UNL     1     -12.325  13.691  66.468  0.00  0.00    -0.004 A 
ENDBRANCH   1  15
BRANCH   1  21
ATOM     21  C   UNL     1      -9.117  13.271  67.469  0.00  0.00    +0.154 C 
ATOM     22  O   UNL     1      -8.821  13.976  66.310  0.00  0.00    -0.220 OA
BRANCH  21  23
ATOM     23  C   UNL     1      -9.721  11.988  67.012  0.00  0.00    +0.006 A 
ATOM     24  C   UNL     1     -10.276  11.097  67.926  0.00  0.00    -0.002 A 
ATOM     25  C   UNL     1     -10.094   9.739  67.698  0.00  0.00    -0.000 A 
ATOM     26  C   UNL     1     -10.452   8.822  68.667  0.00  0.00    -0.000 A 
ATOM     27  C   UNL     1     -11.007   9.321  69.835  0.00  0.00    -0.000 A 
ATOM     28  C   UNL     1     -11.378  10.655  69.962  0.00  0.00    -0.000 A 
ATOM     29  C   UNL     1      -9.771   9.309  66.416  0.00  0.00    -0.000 A 
ATOM     30  C   UNL     1      -9.832  10.253  65.396  0.00  0.00    -0.000 A 
ATOM     31  C   UNL     1     -10.772  11.587  69.125  0.00  0.00    -0.000 A 
ATOM     32  C   UNL     1      -9.834  11.593  65.697  0.00  0.00    -0.002 A 
ENDBRANCH  21  23
BRANCH  21  33
ATOM     33  C   UNL     1      -8.047  13.169  68.433  0.00  0.00    +0.053 C 
BRANCH  33  34
ATOM     34  C   UNL     1      -6.930  12.246  68.112  0.00  0.00    +0.075 C 
BRANCH  34  35
ATOM     35  N   UNL     1      -5.911  12.806  67.256  0.00  0.00    -0.270 NA
ATOM     36  C   UNL     1      -5.046  13.694  68.030  0.00  0.00    +0.090 C 
ATOM     37  C   UNL     1      -5.059  11.687  66.860  0.00  0.00    +0.090 C 
ENDBRANCH  34  35
ENDBRANCH  33  34
ENDBRANCH  21  33
ENDBRANCH   1  21
TORSDOF 8
ENDMDL
MODEL 7
REMARK VINA RESULT:      -6.1      3.233      5.677
REMARK  Name = 
REMARK  8 active torsions:
REMARK  status: ('A' for Active; 'I' for Inactive)
REMARK    1  A    between atoms: O_2  and  C_3
REMARK    2  A    between atoms: C_13  and  C_14
REMARK    3  A    between atoms: C_14  and  C_15
REMARK    4  A    between atoms: C_14  and  C_21
REMARK    5  A    between atoms: C_21  and  C_23
REMARK    6  A    between atoms: C_21  and  C_28
REMARK    7  A    between atoms: C_23  and  C_24
REMARK    8  A    between atoms: C_24  and  N_25
REMARK                            x       y       z     vdW  Elec       q    Type
REMARK                         _______ _______ _______ _____ _____    ______ ____
ROOT
ATOM      1  C   UNL     1     -11.295  13.491  67.684  0.00  0.00    +0.081 C 
ENDROOT
BRANCH   1   3
ATOM      2  C   UNL     1     -11.473  15.763  68.744  0.00  0.00    +0.221 A 
ATOM      3  C   UNL     1     -11.068  15.115  67.582  0.00  0.00    +0.037 A 
ATOM      4  C   UNL     1      -9.783  15.454  67.163  0.00  0.00    +0.002 A 
ATOM      5  C   UNL     1      -9.481  16.809  67.239  0.00  0.00    +0.018 A 
ATOM      6  C   UNL     1     -10.405  17.664  67.832  0.00  0.00    +0.084 A 
ATOM      7  C   UNL     1     -10.120  19.003  68.025  0.00  0.00    +0.020 A 
ATOM      8  C   UNL     1      -9.070  19.543  67.328  0.00  0.00    +0.008 A 
ATOM      9  C   UNL     1      -8.369  18.779  66.402  0.00  0.00    +0.035 A 
ATOM     10 BR   UNL     1      -6.820  19.572  65.612  0.00  0.00    -0.049 Br
ATOM     11  C   UNL     1      -8.622  17.425  66.339  0.00  0.00    +0.008 A 
ATOM     12  N   UNL     1     -11.227  17.098  68.751  0.00  0.00    -0.212 NA
BRANCH   2  14
ATOM     13  C   UNL     1     -11.542  15.357  71.178  0.00  0.00    +0.254 C 
ATOM     14  O   UNL     1     -11.990  15.105  69.850  0.00  0.00    -0.456 OA
ENDBRANCH   2  14
ENDBRANCH   1   3
BRANCH   1  15
ATOM     15  C   UNL     1     -11.666  13.376  66.098  0.00  0.00    -0.016 A 
ATOM     16  C   UNL     1     -11.906  14.576  65.475  0.00  0.00    -0.004 A 
ATOM     17  C   UNL     1     -12.132  14.478  64.104  0.00  0.00    -0.000 A 
ATOM     18  C   UNL     1     -12.305  13.248  63.482  0.00  0.00    -0.000 A 
ATOM     19  C   UNL     1     -12.359  12.112  64.273  0.00  0.00    -0.000 A 
ATOM     20  C   UNL     1     -11.987  12.171  65.611  0.00  0.00    -0.004 A 
ENDBRANCH   1  15
BRANCH   1  21
ATOM     21  C   UNL     1      -9.696  13.072  67.459  0.00  0.00    +0.154 C 
ATOM     22  O   UNL     1      -9.458  13.332  66.116  0.00  0.00    -0.220 OA
BRANCH  21  23
ATOM     23  C   UNL     1      -9.722  11.588  67.582  0.00  0.00    +0.006 A 
ATOM     24  C   UNL     1     -10.352  10.973  68.660  0.00  0.00    -0.002 A 
ATOM     25  C   UNL     1      -9.758   9.837  69.194  0.00  0.00    -0.000 A 
ATOM     26  C   UNL     1     -10.228   9.303  70.378  0.00  0.00    -0.000 A 
ATOM     27  C   UNL     1     -11.309   9.936  70.971  0.00  0.00    -0.000 A 
ATOM     28  C   UNL     1     -12.023  10.937  70.321  0.00  0.00    -0.000 A 
ATOM     29  C   UNL     1      -8.853   9.122  68.417  0.00  0.00    -0.000 A 
ATOM     30  C   UNL     1      -8.738   9.487  67.080  0.00  0.00    -0.000 A 
ATOM     31  C   UNL     1     -11.391  11.636  69.298  0.00  0.00    -0.000 A 
ATOM     32  C   UNL     1      -9.198  10.711  66.658  0.00  0.00    -0.002 A 
ENDBRANCH  21  23
BRANCH  21  33
ATOM     33  C   UNL     1      -8.851  13.778  68.395  0.00  0.00    +0.053 C 
BRANCH  33  34
ATOM     34  C   UNL     1      -7.475  13.258  68.593  0.00  0.00    +0.075 C 
BRANCH  34  35
ATOM     35  N   UNL     1      -6.549  13.583  67.534  0.00  0.00    -0.270 NA
ATOM     36  C   UNL     1      -5.572  14.559  68.013  0.00  0.00    +0.090 C 
ATOM     37  C   UNL     1      -5.784  12.364  67.281  0.00  0.00    +0.090 C 
ENDBRANCH  34  35
ENDBRANCH  33  34
ENDBRANCH  21  33
ENDBRANCH   1  21
TORSDOF 8
ENDMDL
MODEL 8
REMARK VINA RESULT:      -6.0      3.711      7.540
REMARK  Name = 
REMARK  8 active torsions:
REMARK  status: ('A' for Active; 'I' for Inactive)
REMARK    1  A    between atoms: O_2  and  C_3
REMARK    2  A    between atoms: C_13  and  C_14
REMARK    3  A    between atoms: C_14  and  C_15
REMARK    4  A    between atoms: C_14  and  C_21
REMARK    5  A    between atoms: C_21  and  C_23
REMARK    6  A    between atoms: C_21  and  C_28
REMARK    7  A    between atoms: C_23  and  C_24
REMARK    8  A    between atoms: C_24  and  N_25
REMARK                            x       y       z     vdW  Elec       q    Type
REMARK                         _______ _______ _______ _____ _____    ______ ____
ROOT
ATOM      1  C   UNL     1      -9.853  16.210  69.474  0.00  0.00    +0.081 C 
ENDROOT
BRANCH   1   3
ATOM      2  C   UNL     1      -7.609  15.643  68.493  0.00  0.00    +0.221 A 
ATOM      3  C   UNL     1      -8.919  15.185  68.592  0.00  0.00    +0.037 A 
ATOM      4  C   UNL     1      -9.026  13.862  69.014  0.00  0.00    +0.002 A 
ATOM      5  C   UNL     1      -8.120  12.986  68.426  0.00  0.00    +0.018 A 
ATOM      6  C   UNL     1      -7.131  13.508  67.600  0.00  0.00    +0.084 A 
ATOM      7  C   UNL     1      -6.143  12.700  67.067  0.00  0.00    +0.020 A 
ATOM      8  C   UNL     1      -6.345  11.344  67.084  0.00  0.00    +0.008 A 
ATOM      9  C   UNL     1      -7.539  10.813  67.556  0.00  0.00    +0.035 A 
ATOM     10 BR   UNL     1      -7.651   8.910  67.696  0.00  0.00    -0.049 Br
ATOM     11  C   UNL     1      -8.434  11.656  68.180  0.00  0.00    +0.008 A 
ATOM     12  N   UNL     1      -6.771  14.792  67.849  0.00  0.00    -0.212 NA
BRANCH   2  14
ATOM     13  C   UNL     1      -6.404  17.795  68.378  0.00  0.00    +0.254 C 
ATOM     14  O   UNL     1      -7.158  16.814  69.083  0.00  0.00    -0.456 OA
ENDBRANCH   2  14
ENDBRANCH   1   3
BRANCH   1  15
ATOM     15  C   UNL     1     -10.089  17.200  68.198  0.00  0.00    -0.016 A 
ATOM     16  C   UNL     1      -9.898  16.612  66.971  0.00  0.00    -0.004 A 
ATOM     17  C   UNL     1     -10.190  17.436  65.887  0.00  0.00    -0.000 A 
ATOM     18  C   UNL     1     -10.444  18.792  66.051  0.00  0.00    -0.000 A 
ATOM     19  C   UNL     1     -10.293  19.342  67.314  0.00  0.00    -0.000 A 
ATOM     20  C   UNL     1     -10.154  18.518  68.424  0.00  0.00    -0.004 A 
ENDBRANCH   1  15
BRANCH   1  21
ATOM     21  C   UNL     1     -11.286  15.386  69.248  0.00  0.00    +0.154 C 
ATOM     22  O   UNL     1     -12.188  16.367  68.857  0.00  0.00    -0.220 OA
BRANCH  21  23
ATOM     23  C   UNL     1     -11.676  15.014  70.637  0.00  0.00    +0.006 A 
ATOM     24  C   UNL     1     -12.084  13.718  70.939  0.00  0.00    -0.002 A 
ATOM     25  C   UNL     1     -13.113  13.562  71.858  0.00  0.00    -0.000 A 
ATOM     26  C   UNL     1     -13.686  12.320  72.048  0.00  0.00    -0.000 A 
ATOM     27  C   UNL     1     -13.173  11.267  71.307  0.00  0.00    -0.000 A 
ATOM     28  C   UNL     1     -12.011  11.395  70.555  0.00  0.00    -0.000 A 
ATOM     29  C   UNL     1     -13.396  14.602  72.736  0.00  0.00    -0.000 A 
ATOM     30  C   UNL     1     -12.505  15.670  72.762  0.00  0.00    -0.000 A 
ATOM     31  C   UNL     1     -11.624  12.670  70.156  0.00  0.00    -0.000 A 
ATOM     32  C   UNL     1     -11.626  15.860  71.724  0.00  0.00    -0.002 A 
ENDBRANCH  21  23
BRANCH  21  33
ATOM     33  C   UNL     1     -11.102  14.296  68.320  0.00  0.00    +0.053 C 
BRANCH  33  34
ATOM     34  C   UNL     1     -12.088  14.170  67.217  0.00  0.00    +0.075 C 
BRANCH  34  35
ATOM     35  N   UNL     1     -11.544  13.676  65.975  0.00  0.00    -0.270 NA
ATOM     36  C   UNL     1     -11.582  12.215  65.962  0.00  0.00    +0.090 C 
ATOM     37  C   UNL     1     -12.478  14.095  64.932  0.00  0.00    +0.090 C 
ENDBRANCH  34  35
ENDBRANCH  33  34
ENDBRANCH  21  33
ENDBRANCH   1  21
TORSDOF 8
ENDMDL
MODEL 9
REMARK VINA RESULT:      -6.0      3.503      5.783
REMARK  Name = 
REMARK  8 active torsions:
REMARK  status: ('A' for Active; 'I' for Inactive)
REMARK    1  A    between atoms: O_2  and  C_3
REMARK    2  A    between atoms: C_13  and  C_14
REMARK    3  A    between atoms: C_14  and  C_15
REMARK    4  A    between atoms: C_14  and  C_21
REMARK    5  A    between atoms: C_21  and  C_23
REMARK    6  A    between atoms: C_21  and  C_28
REMARK    7  A    between atoms: C_23  and  C_24
REMARK    8  A    between atoms: C_24  and  N_25
REMARK                            x       y       z     vdW  Elec       q    Type
REMARK                         _______ _______ _______ _____ _____    ______ ____
ROOT
ATOM      1  C   UNL     1     -10.431  13.904  68.328  0.00  0.00    +0.081 C 
ENDROOT
BRANCH   1   3
ATOM      2  C   UNL     1     -10.890  16.361  68.595  0.00  0.00    +0.221 A 
ATOM      3  C   UNL     1      -9.940  15.459  68.128  0.00  0.00    +0.037 A 
ATOM      4  C   UNL     1      -8.655  15.685  68.618  0.00  0.00    +0.002 A 
ATOM      5  C   UNL     1      -8.265  17.019  68.643  0.00  0.00    +0.018 A 
ATOM      6  C   UNL     1      -9.204  17.992  68.317  0.00  0.00    +0.084 A 
ATOM      7  C   UNL     1      -8.904  19.339  68.418  0.00  0.00    +0.020 A 
ATOM      8  C   UNL     1      -7.584  19.696  68.515  0.00  0.00    +0.008 A 
ATOM      9  C   UNL     1      -6.583  18.736  68.436  0.00  0.00    +0.035 A 
ATOM     10 BR   UNL     1      -4.790  19.317  68.753  0.00  0.00    -0.049 Br
ATOM     11  C   UNL     1      -6.945  17.405  68.453  0.00  0.00    +0.008 A 
ATOM     12  N   UNL     1     -10.500  17.659  68.537  0.00  0.00    -0.212 NA
BRANCH   2  14
ATOM     13  C   UNL     1     -12.271  15.853  70.578  0.00  0.00    +0.254 C 
ATOM     14  O   UNL     1     -12.093  15.979  69.171  0.00  0.00    -0.456 OA
ENDBRANCH   2  14
ENDBRANCH   1   3
BRANCH   1  15
ATOM     15  C   UNL     1     -11.065  13.841  66.825  0.00  0.00    -0.016 A 
ATOM     16  C   UNL     1     -10.832  14.954  66.055  0.00  0.00    -0.004 A 
ATOM     17  C   UNL     1     -11.296  14.856  64.746  0.00  0.00    -0.000 A 
ATOM     18  C   UNL     1     -12.106  13.803  64.338  0.00  0.00    -0.000 A 
ATOM     19  C   UNL     1     -12.541  12.899  65.293  0.00  0.00    -0.000 A 
ATOM     20  C   UNL     1     -11.972  12.891  66.561  0.00  0.00    -0.004 A 
ENDBRANCH   1  15
BRANCH   1  21
ATOM     21  C   UNL     1      -8.988  13.200  67.875  0.00  0.00    +0.154 C 
ATOM     22  O   UNL     1      -8.876  13.486  66.520  0.00  0.00    -0.220 OA
BRANCH  21  23
ATOM     23  C   UNL     1      -9.291  11.744  67.953  0.00  0.00    +0.006 A 
ATOM     24  C   UNL     1      -9.002  10.898  66.886  0.00  0.00    -0.002 A 
ATOM     25  C   UNL     1      -9.902   9.878  66.607  0.00  0.00    -0.000 A 
ATOM     26  C   UNL     1      -9.768   9.136  65.450  0.00  0.00    -0.000 A 
ATOM     27  C   UNL     1      -8.701   9.444  64.621  0.00  0.00    -0.000 A 
ATOM     28  C   UNL     1      -7.693  10.318  65.015  0.00  0.00    -0.000 A 
ATOM     29  C   UNL     1     -10.784   9.468  67.600  0.00  0.00    -0.000 A 
ATOM     30  C   UNL     1     -10.585   9.981  68.877  0.00  0.00    -0.000 A 
ATOM     31  C   UNL     1      -7.977  11.241  66.016  0.00  0.00    -0.000 A 
ATOM     32  C   UNL     1      -9.815  11.105  69.056  0.00  0.00    -0.002 A 
ENDBRANCH  21  23
BRANCH  21  33
ATOM     33  C   UNL     1      -7.909  13.676  68.708  0.00  0.00    +0.053 C 
BRANCH  33  34
ATOM     34  C   UNL     1      -6.628  12.927  68.653  0.00  0.00    +0.075 C 
BRANCH  34  35
ATOM     35  N   UNL     1      -5.675  13.431  67.694  0.00  0.00    -0.270 NA
ATOM     36  C   UNL     1      -4.830  14.445  68.320  0.00  0.00    +0.090 C 
ATOM     37  C   UNL     1      -4.779  12.316  67.394  0.00  0.00    +0.090 C 
ENDBRANCH  34  35
ENDBRANCH  33  34
ENDBRANCH  21  33
ENDBRANCH   1  21
TORSDOF 8
ENDMDL
