MODEL 1
REMARK VINA RESULT:      -7.3      0.000      0.000
REMARK  Name = 
REMARK  0 active torsions:
REMARK  status: ('A' for Active; 'I' for Inactive)
REMARK                            x       y       z     vdW  Elec       q    Type
REMARK                         _______ _______ _______ _____ _____    ______ ____
ROOT
ATOM      1  C   UNL     1      -9.616  12.373  68.438  0.00  0.00    +0.090 C 
ATOM      2  N   UNL     1     -10.343  11.842  67.579  0.00  0.00    -0.269 NA
ATOM      3  C   UNL     1     -11.830  12.054  68.123  0.00  0.00    +0.084 C 
ATOM      4  C   UNL     1     -11.526  13.669  68.340  0.00  0.00    +0.047 C 
ATOM      5  C   UNL     1     -11.897  14.048  69.672  0.00  0.00    -0.017 A 
ATOM      6  C   UNL     1     -12.654  13.373  70.590  0.00  0.00    +0.038 A 
ATOM      7  C   UNL     1     -12.436  11.914  70.525  0.00  0.00    -0.000 A 
ATOM      8  C   UNL     1     -12.857  11.108  71.544  0.00  0.00    -0.000 A 
ATOM      9  C   UNL     1     -12.543   9.770  71.489  0.00  0.00    -0.000 A 
ATOM     10  C   UNL     1     -11.606   9.359  70.586  0.00  0.00    -0.004 A 
ATOM     11  C   UNL     1     -11.134  10.227  69.606  0.00  0.00    -0.023 A 
ATOM     12  C   UNL     1     -10.523   9.553  68.442  0.00  0.00    +0.043 C 
ATOM     13  C   UNL     1     -12.995  13.997  71.787  0.00  0.00    +0.234 A 
ATOM     14  O   UNL     1     -13.746  13.217  72.657  0.00  0.00    -0.283 OA
ATOM     15  C   UNL     1     -12.915  15.376  71.945  0.00  0.00    +0.234 A 
ATOM     16  O   UNL     1     -13.898  16.044  72.647  0.00  0.00    -0.283 OA
ATOM     17  C   UNL     1     -12.040  16.002  71.072  0.00  0.00    +0.045 A 
ATOM     18  C   UNL     1     -11.436  15.309  70.036  0.00  0.00    -0.001 A 
ATOM     19  C   UNL     1     -11.405  11.594  69.641  0.00  0.00    -0.011 A 
ATOM     20  C   UNL     1     -10.221  10.455  67.298  0.00  0.00    +0.077 C 
ENDROOT
TORSDOF 0
ENDMDL
MODEL 2
REMARK VINA RESULT:      -7.2      2.239      3.353
REMARK  Name = 
REMARK  0 active torsions:
REMARK  status: ('A' for Active; 'I' for Inactive)
REMARK                            x       y       z     vdW  Elec       q    Type
REMARK                         _______ _______ _______ _____ _____    ______ ____
ROOT
ATOM      1  C   UNL     1     -10.205  13.761  65.024  0.00  0.00    +0.090 C 
ATOM      2  N   UNL     1     -11.095  13.241  64.327  0.00  0.00    -0.269 NA
ATOM      3  C   UNL     1     -12.134  12.639  65.381  0.00  0.00    +0.084 C 
ATOM      4  C   UNL     1     -12.182  14.096  66.172  0.00  0.00    +0.047 C 
ATOM      5  C   UNL     1     -11.947  13.886  67.570  0.00  0.00    -0.017 A 
ATOM      6  C   UNL     1     -11.969  12.724  68.292  0.00  0.00    +0.038 A 
ATOM      7  C   UNL     1     -11.449  11.579  67.518  0.00  0.00    -0.000 A 
ATOM      8  C   UNL     1     -11.107  10.418  68.150  0.00  0.00    -0.000 A 
ATOM      9  C   UNL     1     -10.532   9.415  67.404  0.00  0.00    -0.000 A 
ATOM     10  C   UNL     1     -10.077   9.714  66.153  0.00  0.00    -0.004 A 
ATOM     11  C   UNL     1     -10.373  10.940  65.563  0.00  0.00    -0.023 A 
ATOM     12  C   UNL     1     -10.251  10.949  64.091  0.00  0.00    +0.043 C 
ATOM     13  C   UNL     1     -11.836  12.776  69.677  0.00  0.00    +0.234 A 
ATOM     14  O   UNL     1     -11.849  11.540  70.310  0.00  0.00    -0.283 OA
ATOM     15  C   UNL     1     -12.041  13.952  70.390  0.00  0.00    +0.234 A 
ATOM     16  O   UNL     1     -12.697  13.911  71.605  0.00  0.00    -0.283 OA
ATOM     17  C   UNL     1     -11.886  15.108  69.645  0.00  0.00    +0.045 A 
ATOM     18  C   UNL     1     -11.703  15.063  68.272  0.00  0.00    -0.001 A 
ATOM     19  C   UNL     1     -10.929  11.991  66.290  0.00  0.00    -0.011 A 
ATOM     20  C   UNL     1     -10.777  12.179  63.439  0.00  0.00    +0.077 C 
ENDROOT
TORSDOF 0
ENDMDL
MODEL 3
REMARK VINA RESULT:      -7.0      3.891      5.435
REMARK  Name = 
REMARK  0 active torsions:
REMARK  status: ('A' for Active; 'I' for Inactive)
REMARK                            x       y       z     vdW  Elec       q    Type
REMARK                         _______ _______ _______ _____ _____    ______ ____
ROOT
ATOM      1  C   UNL     1     -11.237  13.642  69.205  0.00  0.00    +0.090 C 
ATOM      2  N   UNL     1     -10.342  12.865  68.825  0.00  0.00    -0.269 NA
ATOM      3  C   UNL     1      -9.656  13.612  67.591  0.00  0.00    +0.084 C 
ATOM      4  C   UNL     1      -9.491  14.985  68.507  0.00  0.00    +0.047 C 
ATOM      5  C   UNL     1     -10.026  16.103  67.788  0.00  0.00    -0.017 A 
ATOM      6  C   UNL     1     -10.361  16.209  66.465  0.00  0.00    +0.038 A 
ATOM      7  C   UNL     1     -10.925  14.953  65.933  0.00  0.00    -0.000 A 
ATOM      8  C   UNL     1     -11.592  14.947  64.741  0.00  0.00    -0.000 A 
ATOM      9  C   UNL     1     -12.188  13.776  64.333  0.00  0.00    -0.000 A 
ATOM     10  C   UNL     1     -12.330  12.768  65.242  0.00  0.00    -0.004 A 
ATOM     11  C   UNL     1     -11.703  12.836  66.483  0.00  0.00    -0.023 A 
ATOM     12  C   UNL     1     -11.535  11.529  67.149  0.00  0.00    +0.043 C 
ATOM     13  C   UNL     1     -10.746  17.445  65.954  0.00  0.00    +0.234 A 
ATOM     14  O   UNL     1     -11.085  17.438  64.607  0.00  0.00    -0.283 OA
ATOM     15  C   UNL     1     -10.468  18.634  66.619  0.00  0.00    +0.234 A 
ATOM     16  O   UNL     1     -10.078  19.746  65.900  0.00  0.00    -0.283 OA
ATOM     17  C   UNL     1     -10.259  18.492  67.980  0.00  0.00    +0.045 A 
ATOM     18  C   UNL     1     -10.178  17.242  68.572  0.00  0.00    -0.001 A 
ATOM     19  C   UNL     1     -11.112  14.011  66.945  0.00  0.00    -0.011 A 
ATOM     20  C   UNL     1     -10.673  11.564  68.362  0.00  0.00    +0.077 C 
ENDROOT
TORSDOF 0
ENDMDL
MODEL 4
REMARK VINA RESULT:      -7.0      1.654      2.435
REMARK  Name = 
REMARK  0 active torsions:
REMARK  status: ('A' for Active; 'I' for Inactive)
REMARK                            x       y       z     vdW  Elec       q    Type
REMARK                         _______ _______ _______ _____ _____    ______ ____
ROOT
ATOM      1  C   UNL     1      -9.543  14.953  67.371  0.00  0.00    +0.090 C 
ATOM      2  N   UNL     1     -10.340  14.861  66.420  0.00  0.00    -0.269 NA
ATOM      3  C   UNL     1     -11.723  14.428  67.092  0.00  0.00    +0.084 C 
ATOM      4  C   UNL     1     -11.584  15.665  68.187  0.00  0.00    +0.047 C 
ATOM      5  C   UNL     1     -11.758  15.148  69.513  0.00  0.00    -0.017 A 
ATOM      6  C   UNL     1     -12.253  13.939  69.918  0.00  0.00    +0.038 A 
ATOM      7  C   UNL     1     -11.874  12.847  68.999  0.00  0.00    -0.000 A 
ATOM      8  C   UNL     1     -12.008  11.544  69.385  0.00  0.00    -0.000 A 
ATOM      9  C   UNL     1     -11.548  10.563  68.537  0.00  0.00    -0.000 A 
ATOM     10  C   UNL     1     -10.742  10.927  67.498  0.00  0.00    -0.004 A 
ATOM     11  C   UNL     1     -10.559  12.269  67.176  0.00  0.00    -0.023 A 
ATOM     12  C   UNL     1     -10.085  12.502  65.797  0.00  0.00    +0.043 C 
ATOM     13  C   UNL     1     -12.452  13.701  71.276  0.00  0.00    +0.234 A 
ATOM     14  O   UNL     1     -12.937  12.436  71.580  0.00  0.00    -0.283 OA
ATOM     15  C   UNL     1     -12.513  14.737  72.201  0.00  0.00    +0.234 A 
ATOM     16  O   UNL     1     -13.432  14.682  73.230  0.00  0.00    -0.283 OA
ATOM     17  C   UNL     1     -11.889  15.904  71.796  0.00  0.00    +0.045 A 
ATOM     18  C   UNL     1     -11.396  16.050  70.509  0.00  0.00    -0.001 A 
ATOM     19  C   UNL     1     -10.984  13.293  68.021  0.00  0.00    -0.011 A 
ATOM     20  C   UNL     1     -10.101  13.930  65.375  0.00  0.00    +0.077 C 
ENDROOT
TORSDOF 0
ENDMDL
MODEL 5
REMARK VINA RESULT:      -6.8      2.953      4.485
REMARK  Name = 
REMARK  0 active torsions:
REMARK  status: ('A' for Active; 'I' for Inactive)
REMARK                            x       y       z     vdW  Elec       q    Type
REMARK                         _______ _______ _______ _____ _____    ______ ____
ROOT
ATOM      1  C   UNL     1      -9.984  11.795  68.606  0.00  0.00    +0.090 C 
ATOM      2  N   UNL     1     -11.122  11.376  68.328  0.00  0.00    -0.269 NA
ATOM      3  C   UNL     1     -11.915  12.667  67.819  0.00  0.00    +0.084 C 
ATOM      4  C   UNL     1     -10.678  13.020  66.773  0.00  0.00    +0.047 C 
ATOM      5  C   UNL     1     -10.279  14.385  66.952  0.00  0.00    -0.017 A 
ATOM      6  C   UNL     1     -10.919  15.400  67.610  0.00  0.00    +0.038 A 
ATOM      7  C   UNL     1     -11.628  14.922  68.814  0.00  0.00    -0.000 A 
ATOM      8  C   UNL     1     -12.061  15.810  69.757  0.00  0.00    -0.000 A 
ATOM      9  C   UNL     1     -12.625  15.313  70.909  0.00  0.00    -0.000 A 
ATOM     10  C   UNL     1     -12.477  13.984  71.185  0.00  0.00    -0.004 A 
ATOM     11  C   UNL     1     -11.957  13.114  70.231  0.00  0.00    -0.023 A 
ATOM     12  C   UNL     1     -12.292  11.694  70.461  0.00  0.00    +0.043 C 
ATOM     13  C   UNL     1     -10.402  16.691  67.544  0.00  0.00    +0.234 A 
ATOM     14  O   UNL     1     -11.115  17.641  68.264  0.00  0.00    -0.283 OA
ATOM     15  C   UNL     1      -9.488  17.067  66.566  0.00  0.00    +0.234 A 
ATOM     16  O   UNL     1      -9.590  18.311  65.976  0.00  0.00    -0.283 OA
ATOM     17  C   UNL     1      -8.775  16.016  66.016  0.00  0.00    +0.045 A 
ATOM     18  C   UNL     1      -9.082  14.699  66.317  0.00  0.00    -0.001 A 
ATOM     19  C   UNL     1     -11.352  13.577  69.064  0.00  0.00    -0.011 A 
ATOM     20  C   UNL     1     -11.933  10.789  69.335  0.00  0.00    +0.077 C 
ENDROOT
TORSDOF 0
ENDMDL
MODEL 6
REMARK VINA RESULT:      -6.8      2.603      3.586
REMARK  Name = 
REMARK  0 active torsions:
REMARK  status: ('A' for Active; 'I' for Inactive)
REMARK                            x       y       z     vdW  Elec       q    Type
REMARK                         _______ _______ _______ _____ _____    ______ ____
ROOT
ATOM      1  C   UNL     1      -9.102  11.863  66.502  0.00  0.00    +0.090 C 
ATOM      2  N   UNL     1     -10.108  11.299  66.033  0.00  0.00    -0.269 NA
ATOM      3  C   UNL     1     -11.298  12.339  66.266  0.00  0.00    +0.084 C 
ATOM      4  C   UNL     1     -10.391  13.541  65.572  0.00  0.00    +0.047 C 
ATOM      5  C   UNL     1     -10.365  14.680  66.442  0.00  0.00    -0.017 A 
ATOM      6  C   UNL     1     -11.149  14.965  67.526  0.00  0.00    +0.038 A 
ATOM      7  C   UNL     1     -11.496  13.753  68.295  0.00  0.00    -0.000 A 
ATOM      8  C   UNL     1     -12.004  13.860  69.559  0.00  0.00    -0.000 A 
ATOM      9  C   UNL     1     -12.217  12.705  70.275  0.00  0.00    -0.000 A 
ATOM     10  C   UNL     1     -11.664  11.545  69.818  0.00  0.00    -0.004 A 
ATOM     11  C   UNL     1     -11.080  11.485  68.556  0.00  0.00    -0.023 A 
ATOM     12  C   UNL     1     -10.966  10.118  68.005  0.00  0.00    +0.043 C 
ATOM     13  C   UNL     1     -11.029  16.204  68.150  0.00  0.00    +0.234 A 
ATOM     14  O   UNL     1     -11.854  16.382  69.253  0.00  0.00    -0.283 OA
ATOM     15  C   UNL     1     -10.422  17.286  67.523  0.00  0.00    +0.234 A 
ATOM     16  O   UNL     1     -10.958  18.550  67.668  0.00  0.00    -0.283 OA
ATOM     17  C   UNL     1      -9.541  16.941  66.512  0.00  0.00    +0.045 A 
ATOM     18  C   UNL     1      -9.418  15.632  66.077  0.00  0.00    -0.001 A 
ATOM     19  C   UNL     1     -10.821  12.633  67.809  0.00  0.00    -0.011 A 
ATOM     20  C   UNL     1     -10.553  10.065  66.576  0.00  0.00    +0.077 C 
ENDROOT
TORSDOF 0
ENDMDL
MODEL 7
REMARK VINA RESULT:      -6.5      1.154      1.502
REMARK  Name = 
REMARK  0 active torsions:
REMARK  status: ('A' for Active; 'I' for Inactive)
REMARK                            x       y       z     vdW  Elec       q    Type
REMARK                         _______ _______ _______ _____ _____    ______ ____
ROOT
ATOM      1  C   UNL     1      -9.169  10.566  68.714  0.00  0.00    +0.090 C 
ATOM      2  N   UNL     1      -9.897   9.885  67.970  0.00  0.00    -0.269 NA
ATOM      3  C   UNL     1     -11.367  10.468  68.198  0.00  0.00    +0.084 C 
ATOM      4  C   UNL     1     -10.802  12.006  67.940  0.00  0.00    +0.047 C 
ATOM      5  C   UNL     1     -11.220  12.853  69.017  0.00  0.00    -0.017 A 
ATOM      6  C   UNL     1     -12.166  12.633  69.981  0.00  0.00    +0.038 A 
ATOM      7  C   UNL     1     -12.205  11.221  70.409  0.00  0.00    -0.000 A 
ATOM      8  C   UNL     1     -12.854  10.866  71.557  0.00  0.00    -0.000 A 
ATOM      9  C   UNL     1     -12.779   9.556  71.970  0.00  0.00    -0.000 A 
ATOM     10  C   UNL     1     -11.850   8.743  71.387  0.00  0.00    -0.004 A 
ATOM     11  C   UNL     1     -11.144   9.162  70.263  0.00  0.00    -0.023 A 
ATOM     12  C   UNL     1     -10.558   8.061  69.471  0.00  0.00    +0.043 C 
ATOM     13  C   UNL     1     -12.499  13.661  70.860  0.00  0.00    +0.234 A 
ATOM     14  O   UNL     1     -13.453  13.326  71.812  0.00  0.00    -0.283 OA
ATOM     15  C   UNL     1     -12.190  14.989  70.587  0.00  0.00    +0.234 A 
ATOM     16  O   UNL     1     -13.100  15.981  70.894  0.00  0.00    -0.283 OA
ATOM     17  C   UNL     1     -11.143  15.162  69.699  0.00  0.00    +0.045 A 
ATOM     18  C   UNL     1     -10.578  14.087  69.031  0.00  0.00    -0.001 A 
ATOM     19  C   UNL     1     -11.171  10.486  69.828  0.00  0.00    -0.011 A 
ATOM     20  C   UNL     1      -9.997   8.481  68.158  0.00  0.00    +0.077 C 
ENDROOT
TORSDOF 0
ENDMDL
MODEL 8
REMARK VINA RESULT:      -6.4      2.395      4.478
REMARK  Name = 
REMARK  0 active torsions:
REMARK  status: ('A' for Active; 'I' for Inactive)
REMARK                            x       y       z     vdW  Elec       q    Type
REMARK                         _______ _______ _______ _____ _____    ______ ____
ROOT
ATOM      1  C   UNL     1     -11.941  12.191  66.670  0.00  0.00    +0.090 C 
ATOM      2  N   UNL     1     -10.755  11.921  66.410  0.00  0.00    -0.269 NA
ATOM      3  C   UNL     1      -9.904  12.927  67.314  0.00  0.00    +0.084 C 
ATOM      4  C   UNL     1     -10.780  12.476  68.648  0.00  0.00    +0.047 C 
ATOM      5  C   UNL     1     -11.275  13.647  69.310  0.00  0.00    -0.017 A 
ATOM      6  C   UNL     1     -10.911  14.956  69.151  0.00  0.00    +0.038 A 
ATOM      7  C   UNL     1     -10.581  15.275  67.747  0.00  0.00    -0.000 A 
ATOM      8  C   UNL     1     -10.495  16.575  67.337  0.00  0.00    -0.000 A 
ATOM      9  C   UNL     1     -10.285  16.824  66.000  0.00  0.00    -0.000 A 
ATOM     10  C   UNL     1     -10.450  15.798  65.115  0.00  0.00    -0.004 A 
ATOM     11  C   UNL     1     -10.616  14.491  65.563  0.00  0.00    -0.023 A 
ATOM     12  C   UNL     1     -10.303  13.460  64.553  0.00  0.00    +0.043 C 
ATOM     13  C   UNL     1     -11.442  15.922  70.002  0.00  0.00    +0.234 A 
ATOM     14  O   UNL     1     -11.024  17.220  69.741  0.00  0.00    -0.283 OA
ATOM     15  C   UNL     1     -12.032  15.587  71.216  0.00  0.00    +0.234 A 
ATOM     16  O   UNL     1     -11.813  16.377  72.326  0.00  0.00    -0.283 OA
ATOM     17  C   UNL     1     -12.497  14.285  71.285  0.00  0.00    +0.045 A 
ATOM     18  C   UNL     1     -12.237  13.370  70.277  0.00  0.00    -0.001 A 
ATOM     19  C   UNL     1     -10.859  14.198  66.904  0.00  0.00    -0.011 A 
ATOM     20  C   UNL     1     -10.262  12.071  65.086  0.00  0.00    +0.077 C 
ENDROOT
TORSDOF 0
ENDMDL
MODEL 9
REMARK VINA RESULT:      -6.4      3.891      6.119
REMARK  Name = 
REMARK  0 active torsions:
REMARK  status: ('A' for Active; 'I' for Inactive)
REMARK                            x       y       z     vdW  Elec       q    Type
REMARK                         _______ _______ _______ _____ _____    ______ ____
ROOT
ATOM      1  C   UNL     1     -12.171  14.356  66.713  0.00  0.00    +0.090 C 
ATOM      2  N   UNL     1     -11.327  14.797  67.514  0.00  0.00    -0.269 NA
ATOM      3  C   UNL     1     -10.133  13.736  67.466  0.00  0.00    +0.084 C 
ATOM      4  C   UNL     1     -10.110  13.829  65.811  0.00  0.00    +0.047 C 
ATOM      5  C   UNL     1     -10.171  12.507  65.260  0.00  0.00    -0.017 A 
ATOM      6  C   UNL     1      -9.978  11.299  65.873  0.00  0.00    +0.038 A 
ATOM      7  C   UNL     1     -10.491  11.290  67.258  0.00  0.00    -0.000 A 
ATOM      8  C   UNL     1     -10.669  10.108  67.920  0.00  0.00    -0.000 A 
ATOM      9  C   UNL     1     -11.244  10.142  69.169  0.00  0.00    -0.000 A 
ATOM     10  C   UNL     1     -11.857  11.292  69.572  0.00  0.00    -0.004 A 
ATOM     11  C   UNL     1     -11.725  12.465  68.834  0.00  0.00    -0.023 A 
ATOM     12  C   UNL     1     -12.011  13.697  69.597  0.00  0.00    +0.043 C 
ATOM     13  C   UNL     1      -9.960  10.137  65.105  0.00  0.00    +0.234 A 
ATOM     14  O   UNL     1      -9.780   8.965  65.827  0.00  0.00    -0.283 OA
ATOM     15  C   UNL     1      -9.769  10.171  63.728  0.00  0.00    +0.234 A 
ATOM     16  O   UNL     1      -8.980   9.212  63.123  0.00  0.00    -0.283 OA
ATOM     17  C   UNL     1     -10.095  11.378  63.135  0.00  0.00    +0.045 A 
ATOM     18  C   UNL     1     -10.426  12.490  63.893  0.00  0.00    -0.001 A 
ATOM     19  C   UNL     1     -11.174  12.470  67.553  0.00  0.00    -0.011 A 
ATOM     20  C   UNL     1     -11.658  14.956  68.886  0.00  0.00    +0.077 C 
ENDROOT
TORSDOF 0
ENDMDL
