MODEL 1
REMARK VINA RESULT:      -6.3      0.000      0.000
REMARK  Name = 
REMARK  5 active torsions:
REMARK  status: ('A' for Active; 'I' for Inactive)
REMARK    1  A    between atoms: C_2  and  C_4
REMARK    2  A    between atoms: C_4  and  S_5
REMARK    3  A    between atoms: S_5  and  C_7
REMARK    4  A    between atoms: C_7  and  C_8
REMARK    5  A    between atoms: C_7  and  C_14
REMARK                            x       y       z     vdW  Elec       q    Type
REMARK                         _______ _______ _______ _____ _____    ______ ____
ROOT
ATOM      1  C   UNL     1     -11.893  15.685  69.018  0.00  0.00    +0.124 C 
ENDROOT
BRANCH   1   2
ATOM      2  C   UNL     1     -12.296  15.522  70.442  0.00  0.00    -0.006 A 
ATOM      3  C   UNL     1     -13.600  15.170  70.666  0.00  0.00    -0.003 A 
ATOM      4  C   UNL     1     -14.194  15.223  71.908  0.00  0.00    -0.000 A 
ATOM      5  C   UNL     1     -13.425  15.713  72.945  0.00  0.00    -0.000 A 
ATOM      6  C   UNL     1     -12.116  16.125  72.753  0.00  0.00    -0.000 A 
ATOM      7  C   UNL     1     -11.586  16.060  71.485  0.00  0.00    -0.003 A 
ENDBRANCH   1   2
BRANCH   1   8
ATOM      8  C   UNL     1     -11.756  14.324  68.449  0.00  0.00    -0.006 A 
ATOM      9  C   UNL     1     -12.080  14.164  67.111  0.00  0.00    -0.003 A 
ATOM     10  C   UNL     1     -11.933  12.946  66.471  0.00  0.00    -0.000 A 
ATOM     11  C   UNL     1     -11.416  11.908  67.230  0.00  0.00    -0.000 A 
ATOM     12  C   UNL     1     -11.424  11.992  68.599  0.00  0.00    -0.000 A 
ATOM     13  C   UNL     1     -11.499  13.211  69.220  0.00  0.00    -0.003 A 
ENDBRANCH   1   8
BRANCH   1  14
ATOM     14  S   UNL     1     -10.241  16.493  68.940  0.00  0.00    +0.059 S 
ATOM     15  O   UNL     1      -9.443  15.389  68.190  0.00  0.00    -0.255 OA
BRANCH  14  16
ATOM     16  C   UNL     1     -10.554  17.735  67.630  0.00  0.00    +0.180 C 
BRANCH  16  18
ATOM     17  N   UNL     1      -8.502  17.750  66.109  0.00  0.00    -0.087 NA
ATOM     18  C   UNL     1      -9.831  17.429  66.394  0.00  0.00    +0.274 C 
ATOM     19  O   UNL     1     -10.487  16.844  65.486  0.00  0.00    -0.271 OA
ENDBRANCH  16  18
ENDBRANCH  14  16
ENDBRANCH   1  14
TORSDOF 5
ENDMDL
MODEL 2
REMARK VINA RESULT:      -6.0      2.511      5.135
REMARK  Name = 
REMARK  5 active torsions:
REMARK  status: ('A' for Active; 'I' for Inactive)
REMARK    1  A    between atoms: C_2  and  C_4
REMARK    2  A    between atoms: C_4  and  S_5
REMARK    3  A    between atoms: S_5  and  C_7
REMARK    4  A    between atoms: C_7  and  C_8
REMARK    5  A    between atoms: C_7  and  C_14
REMARK                            x       y       z     vdW  Elec       q    Type
REMARK                         _______ _______ _______ _____ _____    ______ ____
ROOT
ATOM      1  C   UNL     1     -10.342  13.019  67.179  0.00  0.00    +0.124 C 
ENDROOT
BRANCH   1   2
ATOM      2  C   UNL     1     -11.024  12.457  65.980  0.00  0.00    -0.006 A 
ATOM      3  C   UNL     1     -10.223  11.827  65.066  0.00  0.00    -0.003 A 
ATOM      4  C   UNL     1     -10.646  11.479  63.803  0.00  0.00    -0.000 A 
ATOM      5  C   UNL     1     -11.930  11.848  63.453  0.00  0.00    -0.000 A 
ATOM      6  C   UNL     1     -12.759  12.530  64.331  0.00  0.00    -0.000 A 
ATOM      7  C   UNL     1     -12.270  12.860  65.573  0.00  0.00    -0.003 A 
ENDBRANCH   1   2
BRANCH   1   8
ATOM      8  C   UNL     1     -10.975  12.398  68.366  0.00  0.00    -0.006 A 
ATOM      9  C   UNL     1     -10.968  11.014  68.433  0.00  0.00    -0.003 A 
ATOM     10  C   UNL     1     -11.483  10.339  69.526  0.00  0.00    -0.000 A 
ATOM     11  C   UNL     1     -11.975  11.122  70.559  0.00  0.00    -0.000 A 
ATOM     12  C   UNL     1     -12.279  12.440  70.333  0.00  0.00    -0.000 A 
ATOM     13  C   UNL     1     -11.706  13.116  69.288  0.00  0.00    -0.003 A 
ENDBRANCH   1   8
BRANCH   1  14
ATOM     14  S   UNL     1     -10.650  14.830  67.263  0.00  0.00    +0.059 S 
ATOM     15  O   UNL     1      -9.478  15.255  68.192  0.00  0.00    -0.255 OA
BRANCH  14  16
ATOM     16  C   UNL     1     -10.059  15.332  65.602  0.00  0.00    +0.180 C 
BRANCH  16  18
ATOM     17  N   UNL     1     -10.314  17.863  65.839  0.00  0.00    -0.087 NA
ATOM     18  C   UNL     1     -10.572  16.645  65.206  0.00  0.00    +0.274 C 
ATOM     19  O   UNL     1     -11.351  16.670  64.210  0.00  0.00    -0.271 OA
ENDBRANCH  16  18
ENDBRANCH  14  16
ENDBRANCH   1  14
TORSDOF 5
ENDMDL
MODEL 3
REMARK VINA RESULT:      -5.9      1.889      4.692
REMARK  Name = 
REMARK  5 active torsions:
REMARK  status: ('A' for Active; 'I' for Inactive)
REMARK    1  A    between atoms: C_2  and  C_4
REMARK    2  A    between atoms: C_4  and  S_5
REMARK    3  A    between atoms: S_5  and  C_7
REMARK    4  A    between atoms: C_7  and  C_8
REMARK    5  A    between atoms: C_7  and  C_14
REMARK                            x       y       z     vdW  Elec       q    Type
REMARK                         _______ _______ _______ _____ _____    ______ ____
ROOT
ATOM      1  C   UNL     1     -10.544  13.893  67.896  0.00  0.00    +0.124 C 
ENDROOT
BRANCH   1   2
ATOM      2  C   UNL     1     -11.162  13.290  66.682  0.00  0.00    -0.006 A 
ATOM      3  C   UNL     1     -10.330  12.557  65.878  0.00  0.00    -0.003 A 
ATOM      4  C   UNL     1     -10.673  12.149  64.609  0.00  0.00    -0.000 A 
ATOM      5  C   UNL     1     -11.902  12.563  64.132  0.00  0.00    -0.000 A 
ATOM      6  C   UNL     1     -12.755  13.346  64.894  0.00  0.00    -0.000 A 
ATOM      7  C   UNL     1     -12.346  13.732  66.150  0.00  0.00    -0.003 A 
ENDBRANCH   1   2
BRANCH   1   8
ATOM      8  C   UNL     1     -11.329  13.421  69.059  0.00  0.00    -0.006 A 
ATOM      9  C   UNL     1     -11.438  12.050  69.232  0.00  0.00    -0.003 A 
ATOM     10  C   UNL     1     -12.102  11.508  70.319  0.00  0.00    -0.000 A 
ATOM     11  C   UNL     1     -12.621  12.407  71.236  0.00  0.00    -0.000 A 
ATOM     12  C   UNL     1     -12.798  13.720  70.884  0.00  0.00    -0.000 A 
ATOM     13  C   UNL     1     -12.081  14.264  69.850  0.00  0.00    -0.003 A 
ENDBRANCH   1   8
BRANCH   1  14
ATOM     14  S   UNL     1     -10.706  15.724  67.816  0.00  0.00    +0.059 S 
ATOM     15  O   UNL     1      -9.675  16.128  68.908  0.00  0.00    -0.255 OA
BRANCH  14  16
ATOM     16  C   UNL     1      -9.804  16.058  66.257  0.00  0.00    +0.180 C 
BRANCH  16  18
ATOM     17  N   UNL     1     -11.294  16.655  64.270  0.00  0.00    -0.087 NA
ATOM     18  C   UNL     1     -10.526  16.989  65.388  0.00  0.00    +0.274 C 
ATOM     19  O   UNL     1     -10.416  18.218  65.661  0.00  0.00    -0.271 OA
ENDBRANCH  16  18
ENDBRANCH  14  16
ENDBRANCH   1  14
TORSDOF 5
ENDMDL
MODEL 4
REMARK VINA RESULT:      -5.9      2.936      4.812
REMARK  Name = 
REMARK  5 active torsions:
REMARK  status: ('A' for Active; 'I' for Inactive)
REMARK    1  A    between atoms: C_2  and  C_4
REMARK    2  A    between atoms: C_4  and  S_5
REMARK    3  A    between atoms: S_5  and  C_7
REMARK    4  A    between atoms: C_7  and  C_8
REMARK    5  A    between atoms: C_7  and  C_14
REMARK                            x       y       z     vdW  Elec       q    Type
REMARK                         _______ _______ _______ _____ _____    ______ ____
ROOT
ATOM      1  C   UNL     1     -10.449  14.901  68.564  0.00  0.00    +0.124 C 
ENDROOT
BRANCH   1   2
ATOM      2  C   UNL     1      -9.941  16.301  68.546  0.00  0.00    -0.006 A 
ATOM      3  C   UNL     1     -10.746  17.230  67.943  0.00  0.00    -0.003 A 
ATOM      4  C   UNL     1     -10.322  18.500  67.620  0.00  0.00    -0.000 A 
ATOM      5  C   UNL     1      -9.000  18.800  67.880  0.00  0.00    -0.000 A 
ATOM      6  C   UNL     1      -8.138  17.874  68.445  0.00  0.00    -0.000 A 
ATOM      7  C   UNL     1      -8.620  16.617  68.731  0.00  0.00    -0.003 A 
ENDBRANCH   1   2
BRANCH   1   8
ATOM      8  C   UNL     1     -10.798  14.551  67.168  0.00  0.00    -0.006 A 
ATOM      9  C   UNL     1     -12.117  14.207  66.914  0.00  0.00    -0.003 A 
ATOM     10  C   UNL     1     -12.557  13.918  65.635  0.00  0.00    -0.000 A 
ATOM     11  C   UNL     1     -11.618  14.022  64.621  0.00  0.00    -0.000 A 
ATOM     12  C   UNL     1     -10.281  14.028  64.925  0.00  0.00    -0.000 A 
ATOM     13  C   UNL     1      -9.854  14.385  66.177  0.00  0.00    -0.003 A 
ENDBRANCH   1   8
BRANCH   1  14
ATOM     14  S   UNL     1     -11.993  14.826  69.563  0.00  0.00    +0.059 S 
ATOM     15  O   UNL     1     -11.874  13.381  70.124  0.00  0.00    -0.255 OA
BRANCH  14  16
ATOM     16  C   UNL     1     -11.501  15.862  70.991  0.00  0.00    +0.180 C 
BRANCH  16  18
ATOM     17  N   UNL     1     -13.898  15.681  71.853  0.00  0.00    -0.087 NA
ATOM     18  C   UNL     1     -12.530  15.894  72.032  0.00  0.00    +0.274 C 
ATOM     19  O   UNL     1     -12.141  16.172  73.202  0.00  0.00    -0.271 OA
ENDBRANCH  16  18
ENDBRANCH  14  16
ENDBRANCH   1  14
TORSDOF 5
ENDMDL
MODEL 5
REMARK VINA RESULT:      -5.8      1.072      4.339
REMARK  Name = 
REMARK  5 active torsions:
REMARK  status: ('A' for Active; 'I' for Inactive)
REMARK    1  A    between atoms: C_2  and  C_4
REMARK    2  A    between atoms: C_4  and  S_5
REMARK    3  A    between atoms: S_5  and  C_7
REMARK    4  A    between atoms: C_7  and  C_8
REMARK    5  A    between atoms: C_7  and  C_14
REMARK                            x       y       z     vdW  Elec       q    Type
REMARK                         _______ _______ _______ _____ _____    ______ ____
ROOT
ATOM      1  C   UNL     1     -10.927  14.812  69.568  0.00  0.00    +0.124 C 
ENDROOT
BRANCH   1   2
ATOM      2  C   UNL     1     -11.394  13.584  68.866  0.00  0.00    -0.006 A 
ATOM      3  C   UNL     1     -11.278  12.409  69.559  0.00  0.00    -0.003 A 
ATOM      4  C   UNL     1     -11.424  11.170  68.975  0.00  0.00    -0.000 A 
ATOM      5  C   UNL     1     -11.642  11.147  67.611  0.00  0.00    -0.000 A 
ATOM      6  C   UNL     1     -11.718  12.311  66.864  0.00  0.00    -0.000 A 
ATOM      7  C   UNL     1     -11.549  13.516  67.505  0.00  0.00    -0.003 A 
ENDBRANCH   1   2
BRANCH   1   8
ATOM      8  C   UNL     1     -11.902  15.088  70.649  0.00  0.00    -0.006 A 
ATOM      9  C   UNL     1     -11.399  15.222  71.934  0.00  0.00    -0.003 A 
ATOM     10  C   UNL     1     -12.219  15.536  73.003  0.00  0.00    -0.000 A 
ATOM     11  C   UNL     1     -13.559  15.739  72.715  0.00  0.00    -0.000 A 
ATOM     12  C   UNL     1     -14.082  15.279  71.534  0.00  0.00    -0.000 A 
ATOM     13  C   UNL     1     -13.267  15.040  70.459  0.00  0.00    -0.003 A 
ENDBRANCH   1   8
BRANCH   1  14
ATOM     14  S   UNL     1     -10.967  16.234  68.402  0.00  0.00    +0.059 S 
ATOM     15  O   UNL     1     -10.810  17.407  69.410  0.00  0.00    -0.255 OA
BRANCH  14  16
ATOM     16  C   UNL     1      -9.293  16.095  67.670  0.00  0.00    +0.180 C 
BRANCH  16  18
ATOM     17  N   UNL     1      -8.193  17.541  65.875  0.00  0.00    -0.087 NA
ATOM     18  C   UNL     1      -9.215  16.714  66.346  0.00  0.00    +0.274 C 
ATOM     19  O   UNL     1     -10.186  16.502  65.565  0.00  0.00    -0.271 OA
ENDBRANCH  16  18
ENDBRANCH  14  16
ENDBRANCH   1  14
TORSDOF 5
ENDMDL
MODEL 6
REMARK VINA RESULT:      -5.8      3.037      5.630
REMARK  Name = 
REMARK  5 active torsions:
REMARK  status: ('A' for Active; 'I' for Inactive)
REMARK    1  A    between atoms: C_2  and  C_4
REMARK    2  A    between atoms: C_4  and  S_5
REMARK    3  A    between atoms: S_5  and  C_7
REMARK    4  A    between atoms: C_7  and  C_8
REMARK    5  A    between atoms: C_7  and  C_14
REMARK                            x       y       z     vdW  Elec       q    Type
REMARK                         _______ _______ _______ _____ _____    ______ ____
ROOT
ATOM      1  C   UNL     1     -11.561  15.584  68.756  0.00  0.00    +0.124 C 
ENDROOT
BRANCH   1   2
ATOM      2  C   UNL     1     -11.385  14.362  67.923  0.00  0.00    -0.006 A 
ATOM      3  C   UNL     1     -11.885  14.419  66.649  0.00  0.00    -0.003 A 
ATOM      4  C   UNL     1     -12.031  13.311  65.844  0.00  0.00    -0.000 A 
ATOM      5  C   UNL     1     -11.698  12.091  66.398  0.00  0.00    -0.000 A 
ATOM      6  C   UNL     1     -11.233  11.982  67.700  0.00  0.00    -0.000 A 
ATOM      7  C   UNL     1     -11.125  13.126  68.457  0.00  0.00    -0.003 A 
ENDBRANCH   1   2
BRANCH   1   8
ATOM      8  C   UNL     1     -10.395  16.457  68.492  0.00  0.00    -0.006 A 
ATOM      9  C   UNL     1     -10.646  17.678  67.886  0.00  0.00    -0.003 A 
ATOM     10  C   UNL     1      -9.633  18.590  67.647  0.00  0.00    -0.000 A 
ATOM     11  C   UNL     1      -8.365  18.231  68.076  0.00  0.00    -0.000 A 
ATOM     12  C   UNL     1      -8.084  16.918  68.354  0.00  0.00    -0.000 A 
ATOM     13  C   UNL     1      -9.092  16.040  68.658  0.00  0.00    -0.003 A 
ENDBRANCH   1   8
BRANCH   1  14
ATOM     14  S   UNL     1     -11.522  15.119  70.536  0.00  0.00    +0.059 S 
ATOM     15  O   UNL     1     -11.388  16.530  71.174  0.00  0.00    -0.255 OA
BRANCH  14  16
ATOM     16  C   UNL     1     -13.289  14.714  70.801  0.00  0.00    +0.180 C 
BRANCH  16  18
ATOM     17  N   UNL     1     -13.252  14.633  73.353  0.00  0.00    -0.087 NA
ATOM     18  C   UNL     1     -13.751  15.100  72.135  0.00  0.00    +0.274 C 
ATOM     19  O   UNL     1     -14.717  15.913  72.186  0.00  0.00    -0.271 OA
ENDBRANCH  16  18
ENDBRANCH  14  16
ENDBRANCH   1  14
TORSDOF 5
ENDMDL
MODEL 7
REMARK VINA RESULT:      -5.8      3.835      5.915
REMARK  Name = 
REMARK  5 active torsions:
REMARK  status: ('A' for Active; 'I' for Inactive)
REMARK    1  A    between atoms: C_2  and  C_4
REMARK    2  A    between atoms: C_4  and  S_5
REMARK    3  A    between atoms: S_5  and  C_7
REMARK    4  A    between atoms: C_7  and  C_8
REMARK    5  A    between atoms: C_7  and  C_14
REMARK                            x       y       z     vdW  Elec       q    Type
REMARK                         _______ _______ _______ _____ _____    ______ ____
ROOT
ATOM      1  C   UNL     1      -9.300  16.526  65.903  0.00  0.00    +0.124 C 
ENDROOT
BRANCH   1   2
ATOM      2  C   UNL     1      -8.732  15.673  66.983  0.00  0.00    -0.006 A 
ATOM      3  C   UNL     1      -9.455  15.601  68.143  0.00  0.00    -0.003 A 
ATOM      4  C   UNL     1      -8.958  15.071  69.313  0.00  0.00    -0.000 A 
ATOM      5  C   UNL     1      -7.642  14.650  69.295  0.00  0.00    -0.000 A 
ATOM      6  C   UNL     1      -6.859  14.748  68.156  0.00  0.00    -0.000 A 
ATOM      7  C   UNL     1      -7.412  15.301  67.024  0.00  0.00    -0.003 A 
ENDBRANCH   1   2
BRANCH   1   8
ATOM      8  C   UNL     1      -9.384  17.903  66.440  0.00  0.00    -0.006 A 
ATOM      9  C   UNL     1      -8.217  18.652  66.440  0.00  0.00    -0.003 A 
ATOM     10  C   UNL     1      -8.201  19.968  66.868  0.00  0.00    -0.000 A 
ATOM     11  C   UNL     1      -9.417  20.503  67.265  0.00  0.00    -0.000 A 
ATOM     12  C   UNL     1     -10.462  19.671  67.573  0.00  0.00    -0.000 A 
ATOM     13  C   UNL     1     -10.500  18.391  67.084  0.00  0.00    -0.003 A 
ENDBRANCH   1   8
BRANCH   1  14
ATOM     14  S   UNL     1     -11.011  15.968  65.522  0.00  0.00    +0.059 S 
ATOM     15  O   UNL     1     -11.288  16.816  64.248  0.00  0.00    -0.255 OA
BRANCH  14  16
ATOM     16  C   UNL     1     -10.661  14.304  64.839  0.00  0.00    +0.180 C 
BRANCH  16  18
ATOM     17  N   UNL     1     -12.444  12.565  65.406  0.00  0.00    -0.087 NA
ATOM     18  C   UNL     1     -11.885  13.543  64.581  0.00  0.00    +0.274 C 
ATOM     19  O   UNL     1     -12.474  13.775  63.487  0.00  0.00    -0.271 OA
ENDBRANCH  16  18
ENDBRANCH  14  16
ENDBRANCH   1  14
TORSDOF 5
ENDMDL
MODEL 8
REMARK VINA RESULT:      -5.7      3.799      5.374
REMARK  Name = 
REMARK  5 active torsions:
REMARK  status: ('A' for Active; 'I' for Inactive)
REMARK    1  A    between atoms: C_2  and  C_4
REMARK    2  A    between atoms: C_4  and  S_5
REMARK    3  A    between atoms: S_5  and  C_7
REMARK    4  A    between atoms: C_7  and  C_8
REMARK    5  A    between atoms: C_7  and  C_14
REMARK                            x       y       z     vdW  Elec       q    Type
REMARK                         _______ _______ _______ _____ _____    ______ ____
ROOT
ATOM      1  C   UNL     1      -9.856  15.878  67.654  0.00  0.00    +0.124 C 
ENDROOT
BRANCH   1   2
ATOM      2  C   UNL     1     -10.167  17.331  67.553  0.00  0.00    -0.006 A 
ATOM      3  C   UNL     1     -10.339  17.827  66.288  0.00  0.00    -0.003 A 
ATOM      4  C   UNL     1     -10.380  19.174  66.005  0.00  0.00    -0.000 A 
ATOM      5  C   UNL     1     -10.179  20.039  67.062  0.00  0.00    -0.000 A 
ATOM      6  C   UNL     1      -9.953  19.579  68.350  0.00  0.00    -0.000 A 
ATOM      7  C   UNL     1      -9.910  18.221  68.564  0.00  0.00    -0.003 A 
ENDBRANCH   1   2
BRANCH   1   8
ATOM      8  C   UNL     1      -8.406  15.765  67.930  0.00  0.00    -0.006 A 
ATOM      9  C   UNL     1      -8.036  15.303  69.184  0.00  0.00    -0.003 A 
ATOM     10  C   UNL     1      -6.709  15.108  69.523  0.00  0.00    -0.000 A 
ATOM     11  C   UNL     1      -5.775  15.369  68.532  0.00  0.00    -0.000 A 
ATOM     12  C   UNL     1      -6.124  16.128  67.445  0.00  0.00    -0.000 A 
ATOM     13  C   UNL     1      -7.439  16.255  67.079  0.00  0.00    -0.003 A 
ENDBRANCH   1   8
BRANCH   1  14
ATOM     14  S   UNL     1     -10.182  15.070  66.033  0.00  0.00    +0.059 S 
ATOM     15  O   UNL     1      -9.368  13.759  66.223  0.00  0.00    -0.255 OA
BRANCH  14  16
ATOM     16  C   UNL     1     -11.911  14.520  66.291  0.00  0.00    +0.180 C 
BRANCH  16  18
ATOM     17  N   UNL     1     -12.961  12.678  64.868  0.00  0.00    -0.087 NA
ATOM     18  C   UNL     1     -12.509  13.984  65.068  0.00  0.00    +0.274 C 
ATOM     19  O   UNL     1     -12.596  14.777  64.087  0.00  0.00    -0.271 OA
ENDBRANCH  16  18
ENDBRANCH  14  16
ENDBRANCH   1  14
TORSDOF 5
ENDMDL
MODEL 9
REMARK VINA RESULT:      -5.7      2.280      3.660
REMARK  Name = 
REMARK  5 active torsions:
REMARK  status: ('A' for Active; 'I' for Inactive)
REMARK    1  A    between atoms: C_2  and  C_4
REMARK    2  A    between atoms: C_4  and  S_5
REMARK    3  A    between atoms: S_5  and  C_7
REMARK    4  A    between atoms: C_7  and  C_8
REMARK    5  A    between atoms: C_7  and  C_14
REMARK                            x       y       z     vdW  Elec       q    Type
REMARK                         _______ _______ _______ _____ _____    ______ ____
ROOT
ATOM      1  C   UNL     1     -11.699  14.419  66.569  0.00  0.00    +0.124 C 
ENDROOT
BRANCH   1   2
ATOM      2  C   UNL     1     -11.576  13.611  67.814  0.00  0.00    -0.006 A 
ATOM      3  C   UNL     1     -11.401  12.263  67.648  0.00  0.00    -0.003 A 
ATOM      4  C   UNL     1     -11.521  11.353  68.674  0.00  0.00    -0.000 A 
ATOM      5  C   UNL     1     -11.892  11.852  69.908  0.00  0.00    -0.000 A 
ATOM      6  C   UNL     1     -12.126  13.203  70.109  0.00  0.00    -0.000 A 
ATOM      7  C   UNL     1     -12.002  14.058  69.039  0.00  0.00    -0.003 A 
ENDBRANCH   1   2
BRANCH   1   8
ATOM      8  C   UNL     1     -11.633  13.472  65.432  0.00  0.00    -0.006 A 
ATOM      9  C   UNL     1     -10.383  13.231  64.884  0.00  0.00    -0.003 A 
ATOM     10  C   UNL     1     -10.206  12.321  63.856  0.00  0.00    -0.000 A 
ATOM     11  C   UNL     1     -11.337  11.644  63.430  0.00  0.00    -0.000 A 
ATOM     12  C   UNL     1     -12.582  12.129  63.738  0.00  0.00    -0.000 A 
ATOM     13  C   UNL     1     -12.754  12.975  64.803  0.00  0.00    -0.003 A 
ENDBRANCH   1   8
BRANCH   1  14
ATOM     14  S   UNL     1     -10.258  15.555  66.435  0.00  0.00    +0.059 S 
ATOM     15  O   UNL     1     -10.675  16.364  65.174  0.00  0.00    -0.255 OA
BRANCH  14  16
ATOM     16  C   UNL     1     -10.634  16.712  67.806  0.00  0.00    +0.180 C 
BRANCH  16  18
ATOM     17  N   UNL     1     -10.919  19.219  67.407  0.00  0.00    -0.087 NA
ATOM     18  C   UNL     1     -10.143  18.065  67.539  0.00  0.00    +0.274 C 
ATOM     19  O   UNL     1      -8.895  18.192  67.381  0.00  0.00    -0.271 OA
ENDBRANCH  16  18
ENDBRANCH  14  16
ENDBRANCH   1  14
TORSDOF 5
ENDMDL
