MODEL 1
REMARK VINA RESULT:      -7.7      0.000      0.000
REMARK  Name = 
REMARK  2 active torsions:
REMARK  status: ('A' for Active; 'I' for Inactive)
REMARK    1  A    between atoms: S_2  and  C_5
REMARK    2  A    between atoms: C_10  and  C_11
REMARK                            x       y       z     vdW  Elec       q    Type
REMARK                         _______ _______ _______ _____ _____    ______ ____
ROOT
ATOM      1  C   UNL     1     -11.050  14.015  65.408  0.00  0.00    +0.138 A 
ATOM      2  C   UNL     1     -11.032  13.529  66.707  0.00  0.00    +0.042 A 
ATOM      3  C   UNL     1     -10.921  14.381  67.801  0.00  0.00    +0.102 A 
ATOM      4  C   UNL     1     -10.819  15.749  67.596  0.00  0.00    +0.101 A 
ATOM      5  N   UNL     1     -11.442  16.360  68.627  0.00  0.00    -0.225 NA
ATOM      6  C   UNL     1     -11.570  15.470  69.617  0.00  0.00    +0.162 A 
ATOM      7  C   UNL     1     -10.585  16.194  66.322  0.00  0.00    +0.022 A 
ATOM      8  N   UNL     1     -11.318  14.270  69.091  0.00  0.00    -0.225 NA
ATOM      9  C   UNL     1     -10.602  15.320  65.241  0.00  0.00    +0.023 A 
ENDROOT
BRANCH   6  10
ATOM     10  C   UNL     1     -12.338  15.704  70.844  0.00  0.00    +0.036 A 
ATOM     11  C   UNL     1     -11.778  16.361  71.934  0.00  0.00    +0.003 A 
ATOM     12  C   UNL     1     -12.185  16.047  73.224  0.00  0.00    +0.000 A 
ATOM     13  C   UNL     1     -13.157  15.072  73.407  0.00  0.00    +0.000 A 
ATOM     14  C   UNL     1     -14.001  14.849  72.344  0.00  0.00    +0.000 A 
ATOM     15  C   UNL     1     -13.590  15.163  71.055  0.00  0.00    +0.003 A 
ENDBRANCH   6  10
BRANCH   1  17
ATOM     16  O   UNL     1     -13.125  12.413  64.786  0.00  0.00    -0.140 OA
ATOM     17  S   UNL     1     -11.993  13.197  64.167  0.00  0.00    +0.141 S 
ATOM     18  O   UNL     1     -11.017  12.172  63.250  0.00  0.00    -0.043 OA
ATOM     19  O   UNL     1     -12.607  14.218  63.251  0.00  0.00    -0.140 OA
ENDBRANCH   1  17
TORSDOF 2
ENDMDL
MODEL 2
REMARK VINA RESULT:      -7.0      3.887      4.562
REMARK  Name = 
REMARK  2 active torsions:
REMARK  status: ('A' for Active; 'I' for Inactive)
REMARK    1  A    between atoms: S_2  and  C_5
REMARK    2  A    between atoms: C_10  and  C_11
REMARK                            x       y       z     vdW  Elec       q    Type
REMARK                         _______ _______ _______ _____ _____    ______ ____
ROOT
ATOM      1  C   UNL     1     -11.425  13.307  66.202  0.00  0.00    +0.138 A 
ATOM      2  C   UNL     1     -10.855  12.186  66.789  0.00  0.00    +0.042 A 
ATOM      3  C   UNL     1     -10.903  11.981  68.163  0.00  0.00    +0.102 A 
ATOM      4  C   UNL     1     -11.526  12.917  68.974  0.00  0.00    +0.101 A 
ATOM      5  N   UNL     1     -12.090  12.249  70.004  0.00  0.00    -0.225 NA
ATOM      6  C   UNL     1     -11.525  11.039  70.069  0.00  0.00    +0.162 A 
ATOM      7  C   UNL     1     -11.858  14.127  68.424  0.00  0.00    +0.022 A 
ATOM      8  N   UNL     1     -10.864  10.860  68.922  0.00  0.00    -0.225 NA
ATOM      9  C   UNL     1     -11.717  14.359  67.061  0.00  0.00    +0.023 A 
ENDROOT
BRANCH   6  10
ATOM     10  C   UNL     1     -11.981   9.960  70.951  0.00  0.00    +0.036 A 
ATOM     11  C   UNL     1     -11.404   8.696  70.906  0.00  0.00    +0.003 A 
ATOM     12  C   UNL     1     -12.160   7.570  71.203  0.00  0.00    +0.000 A 
ATOM     13  C   UNL     1     -13.497   7.727  71.545  0.00  0.00    +0.000 A 
ATOM     14  C   UNL     1     -13.853   8.952  72.058  0.00  0.00    +0.000 A 
ATOM     15  C   UNL     1     -13.095  10.076  71.757  0.00  0.00    +0.003 A 
ENDBRANCH   6  10
BRANCH   1  17
ATOM     16  O   UNL     1     -11.149  12.600  63.616  0.00  0.00    -0.140 OA
ATOM     17  S   UNL     1     -12.130  13.206  64.592  0.00  0.00    +0.141 S 
ATOM     18  O   UNL     1     -12.613  14.729  64.052  0.00  0.00    -0.043 OA
ATOM     19  O   UNL     1     -13.333  12.308  64.629  0.00  0.00    -0.140 OA
ENDBRANCH   1  17
TORSDOF 2
ENDMDL
MODEL 3
REMARK VINA RESULT:      -6.7      4.509      6.579
REMARK  Name = 
REMARK  2 active torsions:
REMARK  status: ('A' for Active; 'I' for Inactive)
REMARK    1  A    between atoms: S_2  and  C_5
REMARK    2  A    between atoms: C_10  and  C_11
REMARK                            x       y       z     vdW  Elec       q    Type
REMARK                         _______ _______ _______ _____ _____    ______ ____
ROOT
ATOM      1  C   UNL     1     -12.268  14.380  71.177  0.00  0.00    +0.138 A 
ATOM      2  C   UNL     1     -11.189  15.246  71.060  0.00  0.00    +0.042 A 
ATOM      3  C   UNL     1     -10.607  15.518  69.827  0.00  0.00    +0.102 A 
ATOM      4  C   UNL     1     -11.104  14.910  68.685  0.00  0.00    +0.101 A 
ATOM      5  N   UNL     1     -10.960  15.785  67.665  0.00  0.00    -0.225 NA
ATOM      6  C   UNL     1     -10.070  16.710  68.039  0.00  0.00    +0.162 A 
ATOM      7  C   UNL     1     -11.991  13.878  68.838  0.00  0.00    +0.022 A 
ATOM      8  N   UNL     1      -9.914  16.584  69.359  0.00  0.00    -0.225 NA
ATOM      9  C   UNL     1     -12.498  13.547  70.090  0.00  0.00    +0.023 A 
ENDROOT
BRANCH   6  10
ATOM     10  C   UNL     1      -9.765  17.921  67.271  0.00  0.00    +0.036 A 
ATOM     11  C   UNL     1      -8.635  17.999  66.462  0.00  0.00    +0.003 A 
ATOM     12  C   UNL     1      -8.000  19.218  66.264  0.00  0.00    +0.000 A 
ATOM     13  C   UNL     1      -8.510  20.353  66.882  0.00  0.00    +0.000 A 
ATOM     14  C   UNL     1      -9.844  20.316  67.216  0.00  0.00    +0.000 A 
ATOM     15  C   UNL     1     -10.475  19.095  67.414  0.00  0.00    +0.003 A 
ENDBRANCH   6  10
BRANCH   1  17
ATOM     16  O   UNL     1     -14.448  15.746  71.979  0.00  0.00    -0.140 OA
ATOM     17  S   UNL     1     -13.496  14.655  72.408  0.00  0.00    +0.141 S 
ATOM     18  O   UNL     1     -12.787  15.057  73.884  0.00  0.00    -0.043 OA
ATOM     19  O   UNL     1     -14.308  13.404  72.592  0.00  0.00    -0.140 OA
ENDBRANCH   1  17
TORSDOF 2
ENDMDL
MODEL 4
REMARK VINA RESULT:      -6.6      5.754      6.815
REMARK  Name = 
REMARK  2 active torsions:
REMARK  status: ('A' for Active; 'I' for Inactive)
REMARK    1  A    between atoms: S_2  and  C_5
REMARK    2  A    between atoms: C_10  and  C_11
REMARK                            x       y       z     vdW  Elec       q    Type
REMARK                         _______ _______ _______ _____ _____    ______ ____
ROOT
ATOM      1  C   UNL     1     -11.132   8.510  71.487  0.00  0.00    +0.138 A 
ATOM      2  C   UNL     1     -11.070   9.647  70.694  0.00  0.00    +0.042 A 
ATOM      3  C   UNL     1     -12.054  10.628  70.751  0.00  0.00    +0.102 A 
ATOM      4  C   UNL     1     -13.129  10.471  71.612  0.00  0.00    +0.101 A 
ATOM      5  N   UNL     1     -13.484  11.701  72.046  0.00  0.00    -0.225 NA
ATOM      6  C   UNL     1     -12.949  12.601  71.214  0.00  0.00    +0.162 A 
ATOM      7  C   UNL     1     -13.313   9.246  72.197  0.00  0.00    +0.022 A 
ATOM      8  N   UNL     1     -12.039  11.955  70.481  0.00  0.00    -0.225 NA
ATOM      9  C   UNL     1     -12.369   8.235  72.057  0.00  0.00    +0.023 A 
ENDROOT
BRANCH   6  10
ATOM     10  C   UNL     1     -12.971  14.049  71.439  0.00  0.00    +0.036 A 
ATOM     11  C   UNL     1     -12.124  14.903  70.741  0.00  0.00    +0.003 A 
ATOM     12  C   UNL     1     -11.670  16.075  71.330  0.00  0.00    +0.000 A 
ATOM     13  C   UNL     1     -12.076  16.381  72.623  0.00  0.00    +0.000 A 
ATOM     14  C   UNL     1     -13.255  15.810  73.041  0.00  0.00    +0.000 A 
ATOM     15  C   UNL     1     -13.705  14.637  72.450  0.00  0.00    +0.003 A 
ENDBRANCH   6  10
BRANCH   1  17
ATOM     16  O   UNL     1      -8.548   8.777  72.199  0.00  0.00    -0.140 OA
ATOM     17  S   UNL     1      -9.655   7.758  72.078  0.00  0.00    +0.141 S 
ATOM     18  O   UNL     1      -9.172   6.503  71.060  0.00  0.00    -0.043 OA
ATOM     19  O   UNL     1      -9.895   7.195  73.450  0.00  0.00    -0.140 OA
ENDBRANCH   1  17
TORSDOF 2
ENDMDL
MODEL 5
REMARK VINA RESULT:      -6.6      3.787      4.306
REMARK  Name = 
REMARK  2 active torsions:
REMARK  status: ('A' for Active; 'I' for Inactive)
REMARK    1  A    between atoms: S_2  and  C_5
REMARK    2  A    between atoms: C_10  and  C_11
REMARK                            x       y       z     vdW  Elec       q    Type
REMARK                         _______ _______ _______ _____ _____    ______ ____
ROOT
ATOM      1  C   UNL     1      -8.898  17.336  66.537  0.00  0.00    +0.138 A 
ATOM      2  C   UNL     1     -10.106  17.570  67.179  0.00  0.00    +0.042 A 
ATOM      3  C   UNL     1     -10.815  16.542  67.791  0.00  0.00    +0.102 A 
ATOM      4  C   UNL     1     -10.314  15.250  67.759  0.00  0.00    +0.101 A 
ATOM      5  N   UNL     1     -10.670  14.647  68.914  0.00  0.00    -0.225 NA
ATOM      6  C   UNL     1     -11.666  15.356  69.458  0.00  0.00    +0.162 A 
ATOM      7  C   UNL     1      -9.264  14.986  66.918  0.00  0.00    +0.022 A 
ATOM      8  N   UNL     1     -11.701  16.526  68.815  0.00  0.00    -0.225 NA
ATOM      9  C   UNL     1      -8.620  16.009  66.232  0.00  0.00    +0.023 A 
ENDROOT
BRANCH   6  10
ATOM     10  C   UNL     1     -12.216  15.117  70.795  0.00  0.00    +0.036 A 
ATOM     11  C   UNL     1     -13.566  14.841  70.984  0.00  0.00    +0.003 A 
ATOM     12  C   UNL     1     -14.203  15.233  72.153  0.00  0.00    +0.000 A 
ATOM     13  C   UNL     1     -13.473  15.900  73.129  0.00  0.00    +0.000 A 
ATOM     14  C   UNL     1     -12.114  15.689  73.121  0.00  0.00    +0.000 A 
ATOM     15  C   UNL     1     -11.480  15.299  71.949  0.00  0.00    +0.003 A 
ENDBRANCH   6  10
BRANCH   1  17
ATOM     16  O   UNL     1      -8.222  19.925  66.857  0.00  0.00    -0.140 OA
ATOM     17  S   UNL     1      -7.641  18.568  66.536  0.00  0.00    +0.141 S 
ATOM     18  O   UNL     1      -6.852  18.618  65.046  0.00  0.00    -0.043 OA
ATOM     19  O   UNL     1      -6.631  18.252  67.601  0.00  0.00    -0.140 OA
ENDBRANCH   1  17
TORSDOF 2
ENDMDL
MODEL 6
REMARK VINA RESULT:      -6.5      4.370      7.325
REMARK  Name = 
REMARK  2 active torsions:
REMARK  status: ('A' for Active; 'I' for Inactive)
REMARK    1  A    between atoms: S_2  and  C_5
REMARK    2  A    between atoms: C_10  and  C_11
REMARK                            x       y       z     vdW  Elec       q    Type
REMARK                         _______ _______ _______ _____ _____    ______ ____
ROOT
ATOM      1  C   UNL     1     -12.553  13.410  71.250  0.00  0.00    +0.138 A 
ATOM      2  C   UNL     1     -11.740  13.944  70.260  0.00  0.00    +0.042 A 
ATOM      3  C   UNL     1     -11.324  13.185  69.173  0.00  0.00    +0.102 A 
ATOM      4  C   UNL     1     -11.719  11.860  69.071  0.00  0.00    +0.101 A 
ATOM      5  N   UNL     1     -11.866  11.580  67.757  0.00  0.00    -0.225 NA
ATOM      6  C   UNL     1     -11.220  12.523  67.061  0.00  0.00    +0.162 A 
ATOM      7  C   UNL     1     -12.302  11.275  70.164  0.00  0.00    +0.022 A 
ATOM      8  N   UNL     1     -10.956  13.517  67.912  0.00  0.00    -0.225 NA
ATOM      9  C   UNL     1     -12.629  12.023  71.289  0.00  0.00    +0.023 A 
ENDROOT
BRANCH   6  10
ATOM     10  C   UNL     1     -11.283  12.661  65.603  0.00  0.00    +0.036 A 
ATOM     11  C   UNL     1     -12.501  12.708  64.933  0.00  0.00    +0.003 A 
ATOM     12  C   UNL     1     -12.608  12.210  63.641  0.00  0.00    +0.000 A 
ATOM     13  C   UNL     1     -11.485  11.667  63.031  0.00  0.00    +0.000 A 
ATOM     14  C   UNL     1     -10.268  12.099  63.505  0.00  0.00    +0.000 A 
ATOM     15  C   UNL     1     -10.164  12.596  64.798  0.00  0.00    +0.003 A 
ENDBRANCH   6  10
BRANCH   1  17
ATOM     16  O   UNL     1     -14.144  15.583  71.200  0.00  0.00    -0.140 OA
ATOM     17  S   UNL     1     -13.732  14.423  72.074  0.00  0.00    +0.141 S 
ATOM     18  O   UNL     1     -13.114  14.996  73.535  0.00  0.00    -0.043 OA
ATOM     19  O   UNL     1     -14.969  13.620  72.360  0.00  0.00    -0.140 OA
ENDBRANCH   1  17
TORSDOF 2
ENDMDL
MODEL 7
REMARK VINA RESULT:      -6.5      3.113      4.418
REMARK  Name = 
REMARK  2 active torsions:
REMARK  status: ('A' for Active; 'I' for Inactive)
REMARK    1  A    between atoms: S_2  and  C_5
REMARK    2  A    between atoms: C_10  and  C_11
REMARK                            x       y       z     vdW  Elec       q    Type
REMARK                         _______ _______ _______ _____ _____    ______ ____
ROOT
ATOM      1  C   UNL     1     -11.469  13.197  65.788  0.00  0.00    +0.138 A 
ATOM      2  C   UNL     1     -11.891  14.305  66.509  0.00  0.00    +0.042 A 
ATOM      3  C   UNL     1     -11.033  14.985  67.365  0.00  0.00    +0.102 A 
ATOM      4  C   UNL     1      -9.726  14.548  67.515  0.00  0.00    +0.101 A 
ATOM      5  N   UNL     1      -8.955  15.639  67.721  0.00  0.00    -0.225 NA
ATOM      6  C   UNL     1      -9.756  16.646  68.086  0.00  0.00    +0.162 A 
ATOM      7  C   UNL     1      -9.394  13.321  67.003  0.00  0.00    +0.022 A 
ATOM      8  N   UNL     1     -11.005  16.266  67.804  0.00  0.00    -0.225 NA
ATOM      9  C   UNL     1     -10.292  12.601  66.225  0.00  0.00    +0.023 A 
ENDROOT
BRANCH   6  10
ATOM     10  C   UNL     1      -9.317  18.036  68.241  0.00  0.00    +0.036 A 
ATOM     11  C   UNL     1     -10.156  19.099  67.926  0.00  0.00    +0.003 A 
ATOM     12  C   UNL     1      -9.627  20.294  67.458  0.00  0.00    +0.000 A 
ATOM     13  C   UNL     1      -8.250  20.410  67.310  0.00  0.00    +0.000 A 
ATOM     14  C   UNL     1      -7.483  19.572  68.086  0.00  0.00    +0.000 A 
ATOM     15  C   UNL     1      -8.016  18.378  68.552  0.00  0.00    +0.003 A 
ENDBRANCH   6  10
BRANCH   1  17
ATOM     16  O   UNL     1     -13.360  12.002  64.285  0.00  0.00    -0.140 OA
ATOM     17  S   UNL     1     -12.130  12.873  64.189  0.00  0.00    +0.141 S 
ATOM     18  O   UNL     1     -10.979  12.134  63.203  0.00  0.00    -0.043 OA
ATOM     19  O   UNL     1     -12.549  14.166  63.550  0.00  0.00    -0.140 OA
ENDBRANCH   1  17
TORSDOF 2
ENDMDL
MODEL 8
REMARK VINA RESULT:      -6.5      4.132      5.218
REMARK  Name = 
REMARK  2 active torsions:
REMARK  status: ('A' for Active; 'I' for Inactive)
REMARK    1  A    between atoms: S_2  and  C_5
REMARK    2  A    between atoms: C_10  and  C_11
REMARK                            x       y       z     vdW  Elec       q    Type
REMARK                         _______ _______ _______ _____ _____    ______ ____
ROOT
ATOM      1  C   UNL     1     -11.032  14.388  65.515  0.00  0.00    +0.138 A 
ATOM      2  C   UNL     1     -11.815  13.812  66.505  0.00  0.00    +0.042 A 
ATOM      3  C   UNL     1     -11.729  12.456  66.803  0.00  0.00    +0.102 A 
ATOM      4  C   UNL     1     -10.849  11.653  66.094  0.00  0.00    +0.101 A 
ATOM      5  N   UNL     1     -10.396  10.703  66.941  0.00  0.00    -0.225 NA
ATOM      6  C   UNL     1     -11.230  10.651  67.985  0.00  0.00    +0.162 A 
ATOM      7  C   UNL     1     -10.272  12.170  64.964  0.00  0.00    +0.022 A 
ATOM      8  N   UNL     1     -11.986  11.749  67.930  0.00  0.00    -0.225 NA
ATOM      9  C   UNL     1     -10.441  13.506  64.619  0.00  0.00    +0.023 A 
ENDROOT
BRANCH   6  10
ATOM     10  C   UNL     1     -10.989   9.858  69.195  0.00  0.00    +0.036 A 
ATOM     11  C   UNL     1     -10.579   8.531  69.121  0.00  0.00    +0.003 A 
ATOM     12  C   UNL     1     -10.949   7.628  70.108  0.00  0.00    +0.000 A 
ATOM     13  C   UNL     1     -11.731   8.070  71.168  0.00  0.00    +0.000 A 
ATOM     14  C   UNL     1     -11.667   9.414  71.451  0.00  0.00    +0.000 A 
ATOM     15  C   UNL     1     -11.298  10.315  70.460  0.00  0.00    +0.003 A 
ENDBRANCH   6  10
BRANCH   1  17
ATOM     16  O   UNL     1     -10.816  16.596  67.044  0.00  0.00    -0.140 OA
ATOM     17  S   UNL     1     -10.478  16.051  65.677  0.00  0.00    +0.141 S 
ATOM     18  O   UNL     1     -11.157  17.029  64.483  0.00  0.00    -0.043 OA
ATOM     19  O   UNL     1      -8.983  16.095  65.538  0.00  0.00    -0.140 OA
ENDBRANCH   1  17
TORSDOF 2
ENDMDL
MODEL 9
REMARK VINA RESULT:      -6.3      5.885      7.156
REMARK  Name = 
REMARK  2 active torsions:
REMARK  status: ('A' for Active; 'I' for Inactive)
REMARK    1  A    between atoms: S_2  and  C_5
REMARK    2  A    between atoms: C_10  and  C_11
REMARK                            x       y       z     vdW  Elec       q    Type
REMARK                         _______ _______ _______ _____ _____    ______ ____
ROOT
ATOM      1  C   UNL     1      -8.196  19.723  67.836  0.00  0.00    +0.138 A 
ATOM      2  C   UNL     1      -8.531  18.428  68.209  0.00  0.00    +0.042 A 
ATOM      3  C   UNL     1      -9.551  17.729  67.573  0.00  0.00    +0.102 A 
ATOM      4  C   UNL     1     -10.260  18.334  66.547  0.00  0.00    +0.101 A 
ATOM      5  N   UNL     1     -10.596  17.369  65.663  0.00  0.00    -0.225 NA
ATOM      6  C   UNL     1     -10.473  16.187  66.277  0.00  0.00    +0.162 A 
ATOM      7  C   UNL     1     -10.097  19.681  66.357  0.00  0.00    +0.022 A 
ATOM      8  N   UNL     1      -9.781  16.406  67.398  0.00  0.00    -0.225 NA
ATOM      9  C   UNL     1      -9.138  20.395  67.067  0.00  0.00    +0.023 A 
ENDROOT
BRANCH   6  10
ATOM     10  C   UNL     1     -10.590  14.891  65.603  0.00  0.00    +0.036 A 
ATOM     11  C   UNL     1     -11.583  14.654  64.658  0.00  0.00    +0.003 A 
ATOM     12  C   UNL     1     -12.110  13.379  64.500  0.00  0.00    +0.000 A 
ATOM     13  C   UNL     1     -11.630  12.348  65.298  0.00  0.00    +0.000 A 
ATOM     14  C   UNL     1     -10.364  12.513  65.809  0.00  0.00    +0.000 A 
ATOM     15  C   UNL     1      -9.841  13.790  65.966  0.00  0.00    +0.003 A 
ENDBRANCH   6  10
BRANCH   1  17
ATOM     16  O   UNL     1      -5.594  19.291  67.287  0.00  0.00    -0.140 OA
ATOM     17  S   UNL     1      -6.529  20.275  67.947  0.00  0.00    +0.141 S 
ATOM     18  O   UNL     1      -6.079  20.505  69.556  0.00  0.00    -0.043 OA
ATOM     19  O   UNL     1      -6.386  21.582  67.220  0.00  0.00    -0.140 OA
ENDBRANCH   1  17
TORSDOF 2
ENDMDL
