MODEL 1
REMARK VINA RESULT:      -5.5      0.000      0.000
REMARK  Name = 
REMARK  5 active torsions:
REMARK  status: ('A' for Active; 'I' for Inactive)
REMARK    1  A    between atoms: O_2  and  C_3
REMARK    2  A    between atoms: C_6  and  C_7
REMARK    3  A    between atoms: C_7  and  C_8
REMARK    4  A    between atoms: C_7  and  C_12
REMARK    5  A    between atoms: C_8  and  N_9
REMARK                            x       y       z     vdW  Elec       q    Type
REMARK                         _______ _______ _______ _____ _____    ______ ____
ROOT
ATOM      1  C   UNL     1     -10.950  14.417  70.087  0.00  0.00    +0.066 C 
ENDROOT
BRANCH   1   2
ATOM      2  C   UNL     1     -12.189  15.389  70.540  0.00  0.00    +0.132 C 
ATOM      3  C   UNL     1     -11.584  16.155  71.659  0.00  0.00    +0.031 C 
ATOM      4  C   UNL     1     -12.267  16.126  72.965  0.00  0.00    +0.003 C 
ATOM      5  C   UNL     1     -13.006  14.878  73.301  0.00  0.00    +0.000 C 
ATOM      6  C   UNL     1     -13.986  14.654  72.191  0.00  0.00    +0.003 C 
ATOM      7  C   UNL     1     -13.306  14.519  70.916  0.00  0.00    +0.031 C 
ATOM      8  O   UNL     1     -12.511  16.156  69.435  0.00  0.00    -0.225 OA
ENDBRANCH   1   2
BRANCH   1  12
ATOM      9  C   UNL     1     -11.257  11.082  67.773  0.00  0.00    +0.139 A 
ATOM     10  C   UNL     1     -11.547  12.292  67.154  0.00  0.00    +0.037 A 
ATOM     11  C   UNL     1     -11.750  13.431  67.919  0.00  0.00    -0.001 A 
ATOM     12  C   UNL     1     -11.897  13.376  69.304  0.00  0.00    -0.019 A 
ATOM     13  C   UNL     1     -11.910  12.092  69.801  0.00  0.00    -0.001 A 
ATOM     14  C   UNL     1     -11.602  10.960  69.108  0.00  0.00    +0.037 A 
BRANCH   9  16
ATOM     15  C   UNL     1     -10.455   8.956  67.128  0.00  0.00    +0.252 C 
ATOM     16  O   UNL     1     -10.275  10.251  67.224  0.00  0.00    -0.471 OA
ENDBRANCH   9  16
ENDBRANCH   1  12
BRANCH   1  17
ATOM     17  C   UNL     1     -10.633  15.280  68.732  0.00  0.00    +0.079 C 
BRANCH  17  18
ATOM     18  N   UNL     1      -9.280  15.710  68.977  0.00  0.00    -0.270 NA
ATOM     19  C   UNL     1      -9.011  16.997  68.356  0.00  0.00    +0.090 C 
ATOM     20  C   UNL     1      -8.280  14.729  68.648  0.00  0.00    +0.090 C 
ENDBRANCH  17  18
ENDBRANCH   1  17
TORSDOF 5
ENDMDL
MODEL 2
REMARK VINA RESULT:      -5.3      2.515      4.967
REMARK  Name = 
REMARK  5 active torsions:
REMARK  status: ('A' for Active; 'I' for Inactive)
REMARK    1  A    between atoms: O_2  and  C_3
REMARK    2  A    between atoms: C_6  and  C_7
REMARK    3  A    between atoms: C_7  and  C_8
REMARK    4  A    between atoms: C_7  and  C_12
REMARK    5  A    between atoms: C_8  and  N_9
REMARK                            x       y       z     vdW  Elec       q    Type
REMARK                         _______ _______ _______ _____ _____    ______ ____
ROOT
ATOM      1  C   UNL     1     -10.685  16.314  67.784  0.00  0.00    +0.066 C 
ENDROOT
BRANCH   1   2
ATOM      2  C   UNL     1      -9.376  17.256  68.074  0.00  0.00    +0.132 C 
ATOM      3  C   UNL     1      -9.998  18.476  68.649  0.00  0.00    +0.031 C 
ATOM      4  C   UNL     1      -9.709  19.769  68.003  0.00  0.00    +0.003 C 
ATOM      5  C   UNL     1      -9.474  19.740  66.533  0.00  0.00    +0.000 C 
ATOM      6  C   UNL     1      -8.352  18.776  66.303  0.00  0.00    +0.003 C 
ATOM      7  C   UNL     1      -8.693  17.453  66.793  0.00  0.00    +0.031 C 
ATOM      8  O   UNL     1      -8.576  16.556  68.958  0.00  0.00    -0.225 OA
ENDBRANCH   1   2
BRANCH   1  12
ATOM      9  C   UNL     1     -10.872  13.236  65.127  0.00  0.00    +0.139 A 
ATOM     10  C   UNL     1     -10.100  13.025  66.262  0.00  0.00    +0.037 A 
ATOM     11  C   UNL     1      -9.744  14.097  67.069  0.00  0.00    -0.001 A 
ATOM     12  C   UNL     1      -9.941  15.418  66.672  0.00  0.00    -0.019 A 
ATOM     13  C   UNL     1     -10.427  15.536  65.389  0.00  0.00    -0.001 A 
ATOM     14  C   UNL     1     -10.894  14.520  64.610  0.00  0.00    +0.037 A 
BRANCH   9  16
ATOM     15  C   UNL     1     -12.241  12.079  63.588  0.00  0.00    +0.252 C 
ATOM     16  O   UNL     1     -11.906  12.341  64.827  0.00  0.00    -0.471 OA
ENDBRANCH   9  16
ENDBRANCH   1  12
BRANCH   1  17
ATOM     17  C   UNL     1     -10.326  15.267  68.990  0.00  0.00    +0.079 C 
BRANCH  17  18
ATOM     18  N   UNL     1     -11.588  15.182  69.680  0.00  0.00    -0.270 NA
ATOM     19  C   UNL     1     -11.575  15.960  70.908  0.00  0.00    +0.090 C 
ATOM     20  C   UNL     1     -12.054  13.837  69.894  0.00  0.00    +0.090 C 
ENDBRANCH  17  18
ENDBRANCH   1  17
TORSDOF 5
ENDMDL
MODEL 3
REMARK VINA RESULT:      -5.2      1.961      5.619
REMARK  Name = 
REMARK  5 active torsions:
REMARK  status: ('A' for Active; 'I' for Inactive)
REMARK    1  A    between atoms: O_2  and  C_3
REMARK    2  A    between atoms: C_6  and  C_7
REMARK    3  A    between atoms: C_7  and  C_8
REMARK    4  A    between atoms: C_7  and  C_12
REMARK    5  A    between atoms: C_8  and  N_9
REMARK                            x       y       z     vdW  Elec       q    Type
REMARK                         _______ _______ _______ _____ _____    ______ ____
ROOT
ATOM      1  C   UNL     1     -10.780  14.138  69.010  0.00  0.00    +0.066 C 
ENDROOT
BRANCH   1   2
ATOM      2  C   UNL     1     -10.892  14.884  67.556  0.00  0.00    +0.132 C 
ATOM      3  C   UNL     1      -9.635  14.452  66.892  0.00  0.00    +0.031 C 
ATOM      4  C   UNL     1      -8.726  15.497  66.389  0.00  0.00    +0.003 C 
ATOM      5  C   UNL     1      -8.702  16.780  67.146  0.00  0.00    +0.000 C 
ATOM      6  C   UNL     1     -10.113  17.280  67.172  0.00  0.00    +0.003 C 
ATOM      7  C   UNL     1     -10.994  16.322  67.815  0.00  0.00    +0.031 C 
ATOM      8  O   UNL     1     -12.043  14.407  66.957  0.00  0.00    -0.225 OA
ENDBRANCH   1   2
BRANCH   1  12
ATOM      9  C   UNL     1     -12.695  15.295  72.410  0.00  0.00    +0.139 A 
ATOM     10  C   UNL     1     -13.430  14.521  71.521  0.00  0.00    +0.037 A 
ATOM     11  C   UNL     1     -12.970  14.326  70.227  0.00  0.00    -0.001 A 
ATOM     12  C   UNL     1     -11.907  15.057  69.702  0.00  0.00    -0.019 A 
ATOM     13  C   UNL     1     -11.439  16.031  70.556  0.00  0.00    -0.001 A 
ATOM     14  C   UNL     1     -11.781  16.181  71.866  0.00  0.00    +0.037 A 
BRANCH   9  16
ATOM     15  C   UNL     1     -12.451  15.727  74.720  0.00  0.00    +0.252 C 
ATOM     16  O   UNL     1     -12.556  14.868  73.735  0.00  0.00    -0.471 OA
ENDBRANCH   9  16
ENDBRANCH   1  12
BRANCH   1  17
ATOM     17  C   UNL     1     -11.856  12.971  68.610  0.00  0.00    +0.079 C 
BRANCH  17  18
ATOM     18  N   UNL     1     -11.076  11.778  68.820  0.00  0.00    -0.270 NA
ATOM     19  C   UNL     1     -10.940  11.010  67.593  0.00  0.00    +0.090 C 
ATOM     20  C   UNL     1     -11.523  10.967  69.921  0.00  0.00    +0.090 C 
ENDBRANCH  17  18
ENDBRANCH   1  17
TORSDOF 5
ENDMDL
MODEL 4
REMARK VINA RESULT:      -5.2      2.369      4.979
REMARK  Name = 
REMARK  5 active torsions:
REMARK  status: ('A' for Active; 'I' for Inactive)
REMARK    1  A    between atoms: O_2  and  C_3
REMARK    2  A    between atoms: C_6  and  C_7
REMARK    3  A    between atoms: C_7  and  C_8
REMARK    4  A    between atoms: C_7  and  C_12
REMARK    5  A    between atoms: C_8  and  N_9
REMARK                            x       y       z     vdW  Elec       q    Type
REMARK                         _______ _______ _______ _____ _____    ______ ____
ROOT
ATOM      1  C   UNL     1      -9.225  16.307  67.750  0.00  0.00    +0.066 C 
ENDROOT
BRANCH   1   2
ATOM      2  C   UNL     1      -9.439  17.357  66.511  0.00  0.00    +0.132 C 
ATOM      3  C   UNL     1      -8.111  18.019  66.438  0.00  0.00    +0.031 C 
ATOM      4  C   UNL     1      -8.065  19.488  66.538  0.00  0.00    +0.003 C 
ATOM      5  C   UNL     1      -9.112  20.130  67.381  0.00  0.00    +0.000 C 
ATOM      6  C   UNL     1     -10.430  19.683  66.831  0.00  0.00    +0.003 C 
ATOM      7  C   UNL     1     -10.551  18.238  66.878  0.00  0.00    +0.031 C 
ATOM      8  O   UNL     1      -9.757  16.596  65.401  0.00  0.00    -0.225 OA
ENDBRANCH   1   2
BRANCH   1  12
ATOM      9  C   UNL     1     -12.138  14.041  69.468  0.00  0.00    +0.139 A 
ATOM     10  C   UNL     1     -11.895  13.815  68.119  0.00  0.00    +0.037 A 
ATOM     11  C   UNL     1     -11.139  14.721  67.388  0.00  0.00    -0.001 A 
ATOM     12  C   UNL     1     -10.794  15.972  67.894  0.00  0.00    -0.019 A 
ATOM     13  C   UNL     1     -11.349  16.237  69.126  0.00  0.00    -0.001 A 
ATOM     14  C   UNL     1     -11.996  15.341  69.923  0.00  0.00    +0.037 A 
BRANCH   9  16
ATOM     15  C   UNL     1     -11.922  11.738  69.944  0.00  0.00    +0.252 C 
ATOM     16  O   UNL     1     -12.061  12.970  70.365  0.00  0.00    -0.471 OA
ENDBRANCH   9  16
ENDBRANCH   1  12
BRANCH   1  17
ATOM     17  C   UNL     1      -8.957  15.032  66.759  0.00  0.00    +0.079 C 
BRANCH  17  18
ATOM     18  N   UNL     1      -7.733  14.500  67.302  0.00  0.00    -0.270 NA
ATOM     19  C   UNL     1      -7.762  13.047  67.352  0.00  0.00    +0.090 C 
ATOM     20  C   UNL     1      -7.345  15.079  68.560  0.00  0.00    +0.090 C 
ENDBRANCH  17  18
ENDBRANCH   1  17
TORSDOF 5
ENDMDL
MODEL 5
REMARK VINA RESULT:      -5.2      2.175      6.047
REMARK  Name = 
REMARK  5 active torsions:
REMARK  status: ('A' for Active; 'I' for Inactive)
REMARK    1  A    between atoms: O_2  and  C_3
REMARK    2  A    between atoms: C_6  and  C_7
REMARK    3  A    between atoms: C_7  and  C_8
REMARK    4  A    between atoms: C_7  and  C_12
REMARK    5  A    between atoms: C_8  and  N_9
REMARK                            x       y       z     vdW  Elec       q    Type
REMARK                         _______ _______ _______ _____ _____    ______ ____
ROOT
ATOM      1  C   UNL     1     -10.284  12.788  67.161  0.00  0.00    +0.066 C 
ENDROOT
BRANCH   1   2
ATOM      2  C   UNL     1     -11.131  11.702  66.273  0.00  0.00    +0.132 C 
ATOM      3  C   UNL     1     -10.075  11.126  65.403  0.00  0.00    +0.031 C 
ATOM      4  C   UNL     1     -10.277  11.179  63.944  0.00  0.00    +0.003 C 
ATOM      5  C   UNL     1     -11.047  12.341  63.421  0.00  0.00    +0.000 C 
ATOM      6  C   UNL     1     -12.364  12.331  64.133  0.00  0.00    +0.003 C 
ATOM      7  C   UNL     1     -12.180  12.443  65.569  0.00  0.00    +0.031 C 
ATOM      8  O   UNL     1     -11.680  10.803  67.171  0.00  0.00    -0.225 OA
ENDBRANCH   1   2
BRANCH   1  12
ATOM      9  C   UNL     1     -11.863  15.097  70.118  0.00  0.00    +0.139 A 
ATOM     10  C   UNL     1     -12.095  13.730  70.211  0.00  0.00    +0.037 A 
ATOM     11  C   UNL     1     -11.852  12.909  69.120  0.00  0.00    -0.001 A 
ATOM     12  C   UNL     1     -11.594  13.423  67.851  0.00  0.00    -0.019 A 
ATOM     13  C   UNL     1     -11.696  14.794  67.786  0.00  0.00    -0.001 A 
ATOM     14  C   UNL     1     -11.817  15.641  68.846  0.00  0.00    +0.037 A 
BRANCH   9  16
ATOM     15  C   UNL     1     -11.952  16.164  72.223  0.00  0.00    +0.252 C 
ATOM     16  O   UNL     1     -11.256  15.762  71.189  0.00  0.00    -0.471 OA
ENDBRANCH   9  16
ENDBRANCH   1  12
BRANCH   1  17
ATOM     17  C   UNL     1     -10.038  11.741  68.395  0.00  0.00    +0.079 C 
BRANCH  17  18
ATOM     18  N   UNL     1      -8.613  11.851  68.583  0.00  0.00    -0.270 NA
ATOM     19  C   UNL     1      -8.073  13.002  67.879  0.00  0.00    +0.090 C 
ATOM     20  C   UNL     1      -7.884  10.645  68.291  0.00  0.00    +0.090 C 
ENDBRANCH  17  18
ENDBRANCH   1  17
TORSDOF 5
ENDMDL
MODEL 6
REMARK VINA RESULT:      -5.2      2.920      6.481
REMARK  Name = 
REMARK  5 active torsions:
REMARK  status: ('A' for Active; 'I' for Inactive)
REMARK    1  A    between atoms: O_2  and  C_3
REMARK    2  A    between atoms: C_6  and  C_7
REMARK    3  A    between atoms: C_7  and  C_8
REMARK    4  A    between atoms: C_7  and  C_12
REMARK    5  A    between atoms: C_8  and  N_9
REMARK                            x       y       z     vdW  Elec       q    Type
REMARK                         _______ _______ _______ _____ _____    ______ ____
ROOT
ATOM      1  C   UNL     1      -9.985  13.243  66.598  0.00  0.00    +0.066 C 
ENDROOT
BRANCH   1   2
ATOM      2  C   UNL     1     -11.145  12.252  66.002  0.00  0.00    +0.132 C 
ATOM      3  C   UNL     1     -10.339  11.133  65.451  0.00  0.00    +0.031 C 
ATOM      4  C   UNL     1     -10.525  10.782  64.032  0.00  0.00    +0.003 C 
ATOM      5  C   UNL     1     -10.880  11.897  63.111  0.00  0.00    +0.000 C 
ATOM      6  C   UNL     1     -12.123  12.521  63.664  0.00  0.00    +0.003 C 
ATOM      7  C   UNL     1     -11.902  13.019  65.010  0.00  0.00    +0.031 C 
ATOM      8  O   UNL     1     -11.948  11.900  67.072  0.00  0.00    -0.225 OA
ENDBRANCH   1   2
BRANCH   1  12
ATOM      9  C   UNL     1     -10.554  17.070  67.863  0.00  0.00    +0.139 A 
ATOM     10  C   UNL     1     -11.247  16.083  68.552  0.00  0.00    +0.037 A 
ATOM     11  C   UNL     1     -11.344  14.804  68.022  0.00  0.00    -0.001 A 
ATOM     12  C   UNL     1     -10.965  14.516  66.712  0.00  0.00    -0.019 A 
ATOM     13  C   UNL     1     -10.582  15.629  65.997  0.00  0.00    -0.001 A 
ATOM     14  C   UNL     1     -10.364  16.874  66.505  0.00  0.00    +0.037 A 
BRANCH   9  16
ATOM     15  C   UNL     1      -9.826  19.239  68.449  0.00  0.00    +0.252 C 
ATOM     16  O   UNL     1      -9.717  17.939  68.570  0.00  0.00    -0.471 OA
ENDBRANCH   9  16
ENDBRANCH   1  12
BRANCH   1  17
ATOM     17  C   UNL     1     -10.251  12.792  68.149  0.00  0.00    +0.079 C 
BRANCH  17  18
ATOM     18  N   UNL     1      -8.938  12.349  68.547  0.00  0.00    -0.270 NA
ATOM     19  C   UNL     1      -7.908  12.900  67.683  0.00  0.00    +0.090 C 
ATOM     20  C   UNL     1      -8.817  10.923  68.696  0.00  0.00    +0.090 C 
ENDBRANCH  17  18
ENDBRANCH   1  17
TORSDOF 5
ENDMDL
MODEL 7
REMARK VINA RESULT:      -5.2      2.032      5.499
REMARK  Name = 
REMARK  5 active torsions:
REMARK  status: ('A' for Active; 'I' for Inactive)
REMARK    1  A    between atoms: O_2  and  C_3
REMARK    2  A    between atoms: C_6  and  C_7
REMARK    3  A    between atoms: C_7  and  C_8
REMARK    4  A    between atoms: C_7  and  C_12
REMARK    5  A    between atoms: C_8  and  N_9
REMARK                            x       y       z     vdW  Elec       q    Type
REMARK                         _______ _______ _______ _____ _____    ______ ____
ROOT
ATOM      1  C   UNL     1     -10.972  15.447  67.335  0.00  0.00    +0.066 C 
ENDROOT
BRANCH   1   2
ATOM      2  C   UNL     1     -10.262  14.217  66.518  0.00  0.00    +0.132 C 
ATOM      3  C   UNL     1     -10.661  14.509  65.117  0.00  0.00    +0.031 C 
ATOM      4  C   UNL     1     -11.366  13.455  64.366  0.00  0.00    +0.003 C 
ATOM      5  C   UNL     1     -12.238  12.544  65.158  0.00  0.00    +0.000 C 
ATOM      6  C   UNL     1     -11.368  11.941  66.216  0.00  0.00    +0.003 C 
ATOM      7  C   UNL     1     -10.795  12.968  67.067  0.00  0.00    +0.031 C 
ATOM      8  O   UNL     1      -8.903  14.321  66.754  0.00  0.00    -0.225 OA
ENDBRANCH   1   2
BRANCH   1  12
ATOM      9  C   UNL     1     -12.349  15.162  71.156  0.00  0.00    +0.139 A 
ATOM     10  C   UNL     1     -11.043  15.611  71.002  0.00  0.00    +0.037 A 
ATOM     11  C   UNL     1     -10.399  15.467  69.781  0.00  0.00    -0.001 A 
ATOM     12  C   UNL     1     -10.926  14.687  68.754  0.00  0.00    -0.019 A 
ATOM     13  C   UNL     1     -12.077  14.020  69.111  0.00  0.00    -0.001 A 
ATOM     14  C   UNL     1     -12.801  14.219  70.248  0.00  0.00    +0.037 A 
BRANCH   9  16
ATOM     15  C   UNL     1     -13.360  15.871  73.169  0.00  0.00    +0.252 C 
ATOM     16  O   UNL     1     -13.263  15.949  71.865  0.00  0.00    -0.471 OA
ENDBRANCH   9  16
ENDBRANCH   1  12
BRANCH   1  17
ATOM     17  C   UNL     1      -9.555  16.220  67.608  0.00  0.00    +0.079 C 
BRANCH  17  18
ATOM     18  N   UNL     1      -9.737  17.427  66.841  0.00  0.00    -0.270 NA
ATOM     19  C   UNL     1      -8.461  18.007  66.455  0.00  0.00    +0.090 C 
ATOM     20  C   UNL     1     -10.608  18.392  67.458  0.00  0.00    +0.090 C 
ENDBRANCH  17  18
ENDBRANCH   1  17
TORSDOF 5
ENDMDL
MODEL 8
REMARK VINA RESULT:      -5.1      1.955      5.685
REMARK  Name = 
REMARK  5 active torsions:
REMARK  status: ('A' for Active; 'I' for Inactive)
REMARK    1  A    between atoms: O_2  and  C_3
REMARK    2  A    between atoms: C_6  and  C_7
REMARK    3  A    between atoms: C_7  and  C_8
REMARK    4  A    between atoms: C_7  and  C_12
REMARK    5  A    between atoms: C_8  and  N_9
REMARK                            x       y       z     vdW  Elec       q    Type
REMARK                         _______ _______ _______ _____ _____    ______ ____
ROOT
ATOM      1  C   UNL     1     -11.175  12.834  67.250  0.00  0.00    +0.066 C 
ENDROOT
BRANCH   1   2
ATOM      2  C   UNL     1      -9.849  11.885  67.088  0.00  0.00    +0.132 C 
ATOM      3  C   UNL     1     -10.200  11.067  65.899  0.00  0.00    +0.031 C 
ATOM      4  C   UNL     1     -10.170   9.600  66.037  0.00  0.00    +0.003 C 
ATOM      5  C   UNL     1     -10.509   9.051  67.379  0.00  0.00    +0.000 C 
ATOM      6  C   UNL     1      -9.562   9.688  68.348  0.00  0.00    +0.003 C 
ATOM      7  C   UNL     1      -9.700  11.133  68.337  0.00  0.00    +0.031 C 
ATOM      8  O   UNL     1      -8.777  12.738  66.894  0.00  0.00    -0.225 OA
ENDBRANCH   1   2
BRANCH   1  12
ATOM      9  C   UNL     1     -12.288  14.828  70.620  0.00  0.00    +0.139 A 
ATOM     10  C   UNL     1     -11.208  15.352  69.920  0.00  0.00    +0.037 A 
ATOM     11  C   UNL     1     -10.582  14.595  68.940  0.00  0.00    -0.001 A 
ATOM     12  C   UNL     1     -10.846  13.237  68.774  0.00  0.00    -0.019 A 
ATOM     13  C   UNL     1     -11.702  12.726  69.723  0.00  0.00    -0.001 A 
ATOM     14  C   UNL     1     -12.424  13.450  70.626  0.00  0.00    +0.037 A 
BRANCH   9  16
ATOM     15  C   UNL     1     -14.315  15.284  71.742  0.00  0.00    +0.252 C 
ATOM     16  O   UNL     1     -13.394  15.643  70.883  0.00  0.00    -0.471 OA
ENDBRANCH   9  16
ENDBRANCH   1  12
BRANCH   1  17
ATOM     17  C   UNL     1     -10.426  14.159  66.648  0.00  0.00    +0.079 C 
BRANCH  17  18
ATOM     18  N   UNL     1     -11.185  14.395  65.445  0.00  0.00    -0.270 NA
ATOM     19  C   UNL     1     -11.012  15.756  64.967  0.00  0.00    +0.090 C 
ATOM     20  C   UNL     1     -12.572  14.024  65.541  0.00  0.00    +0.090 C 
ENDBRANCH  17  18
ENDBRANCH   1  17
TORSDOF 5
ENDMDL
MODEL 9
REMARK VINA RESULT:      -5.0      3.276      4.596
REMARK  Name = 
REMARK  5 active torsions:
REMARK  status: ('A' for Active; 'I' for Inactive)
REMARK    1  A    between atoms: O_2  and  C_3
REMARK    2  A    between atoms: C_6  and  C_7
REMARK    3  A    between atoms: C_7  and  C_8
REMARK    4  A    between atoms: C_7  and  C_12
REMARK    5  A    between atoms: C_8  and  N_9
REMARK                            x       y       z     vdW  Elec       q    Type
REMARK                         _______ _______ _______ _____ _____    ______ ____
ROOT
ATOM      1  C   UNL     1      -9.070  16.065  67.685  0.00  0.00    +0.066 C 
ENDROOT
BRANCH   1   2
ATOM      2  C   UNL     1      -8.818  17.461  66.864  0.00  0.00    +0.132 C 
ATOM      3  C   UNL     1      -8.101  18.284  67.872  0.00  0.00    +0.031 C 
ATOM      4  C   UNL     1      -8.668  19.600  68.219  0.00  0.00    +0.003 C 
ATOM      5  C   UNL     1     -10.151  19.724  68.153  0.00  0.00    +0.000 C 
ATOM      6  C   UNL     1     -10.546  19.332  66.764  0.00  0.00    +0.003 C 
ATOM      7  C   UNL     1     -10.133  17.972  66.468  0.00  0.00    +0.031 C 
ATOM      8  O   UNL     1      -8.060  17.134  65.755  0.00  0.00    -0.225 OA
ENDBRANCH   1   2
BRANCH   1  12
ATOM      9  C   UNL     1     -11.603  13.086  66.555  0.00  0.00    +0.139 A 
ATOM     10  C   UNL     1     -10.590  13.408  65.660  0.00  0.00    +0.037 A 
ATOM     11  C   UNL     1      -9.868  14.581  65.821  0.00  0.00    -0.001 A 
ATOM     12  C   UNL     1     -10.260  15.573  66.718  0.00  0.00    -0.019 A 
ATOM     13  C   UNL     1     -11.460  15.306  67.339  0.00  0.00    -0.001 A 
ATOM     14  C   UNL     1     -12.139  14.125  67.298  0.00  0.00    +0.037 A 
BRANCH   9  16
ATOM     15  C   UNL     1     -10.774  11.188  67.689  0.00  0.00    +0.252 C 
ATOM     16  O   UNL     1     -11.728  11.766  67.002  0.00  0.00    -0.471 OA
ENDBRANCH   9  16
ENDBRANCH   1  12
BRANCH   1  17
ATOM     17  C   UNL     1      -7.931  15.245  66.841  0.00  0.00    +0.079 C 
BRANCH  17  18
ATOM     18  N   UNL     1      -7.089  14.752  67.902  0.00  0.00    -0.270 NA
ATOM     19  C   UNL     1      -7.751  14.848  69.192  0.00  0.00    +0.090 C 
ATOM     20  C   UNL     1      -5.770  15.326  67.924  0.00  0.00    +0.090 C 
ENDBRANCH  17  18
ENDBRANCH   1  17
TORSDOF 5
ENDMDL
