MODEL 1
REMARK VINA RESULT:      -5.2      0.000      0.000
REMARK  Name = 
REMARK  1 active torsions:
REMARK  status: ('A' for Active; 'I' for Inactive)
REMARK    1  A    between atoms: C_8  and  N_9
REMARK                            x       y       z     vdW  Elec       q    Type
REMARK                         _______ _______ _______ _____ _____    ______ ____
ROOT
ATOM      1 CL   UNL     1     -11.880  13.213  68.408  0.00  0.00    -0.079 Cl
ATOM      2  C   UNL     1     -11.355  14.621  67.493  0.00  0.00    +0.093 A 
ATOM      3  C   UNL     1     -11.179  15.801  68.209  0.00  0.00    +0.179 A 
ATOM      4  C   UNL     1     -10.370  16.802  67.706  0.00  0.00    +0.093 A 
ATOM      5 CL   UNL     1      -9.898  18.084  68.813  0.00  0.00    -0.079 Cl
ATOM      6  C   UNL     1      -9.676  16.542  66.535  0.00  0.00    +0.014 A 
ATOM      7  C   UNL     1     -10.080  15.498  65.711  0.00  0.00    +0.002 A 
ATOM      8  C   UNL     1     -10.928  14.507  66.188  0.00  0.00    +0.014 A 
ENDROOT
BRANCH   3   9
ATOM      9  N   UNL     1     -12.220  16.150  69.129  0.00  0.00    -0.069 NA
ATOM     10  C   UNL     1     -12.324  15.623  70.300  0.00  0.00    +0.439 C 
ATOM     11  N   UNL     1     -13.529  15.427  71.048  0.00  0.00    -0.060 NA
ATOM     12  C   UNL     1     -13.310  15.755  72.431  0.00  0.00    +0.251 C 
ATOM     13  C   UNL     1     -11.842  15.444  72.606  0.00  0.00    +0.251 C 
ATOM     14  N   UNL     1     -11.277  15.470  71.262  0.00  0.00    -0.060 NA
ENDBRANCH   3   9
TORSDOF 1
ENDMDL
MODEL 2
REMARK VINA RESULT:      -5.2      2.701      5.404
REMARK  Name = 
REMARK  1 active torsions:
REMARK  status: ('A' for Active; 'I' for Inactive)
REMARK    1  A    between atoms: C_8  and  N_9
REMARK                            x       y       z     vdW  Elec       q    Type
REMARK                         _______ _______ _______ _____ _____    ______ ____
ROOT
ATOM      1 CL   UNL     1      -9.554  15.542  69.363  0.00  0.00    -0.079 Cl
ATOM      2  C   UNL     1     -11.153  15.051  69.912  0.00  0.00    +0.093 A 
ATOM      3  C   UNL     1     -11.431  13.688  69.886  0.00  0.00    +0.179 A 
ATOM      4  C   UNL     1     -12.433  13.171  70.684  0.00  0.00    +0.093 A 
ATOM      5 CL   UNL     1     -12.481  11.424  70.882  0.00  0.00    -0.079 Cl
ATOM      6  C   UNL     1     -13.064  14.033  71.566  0.00  0.00    +0.014 A 
ATOM      7  C   UNL     1     -12.971  15.406  71.374  0.00  0.00    +0.002 A 
ATOM      8  C   UNL     1     -11.997  15.940  70.541  0.00  0.00    +0.014 A 
ENDROOT
BRANCH   3   9
ATOM      9  N   UNL     1     -11.064  12.985  68.694  0.00  0.00    -0.069 NA
ATOM     10  C   UNL     1     -11.778  13.007  67.621  0.00  0.00    +0.439 C 
ATOM     11  N   UNL     1     -11.868  11.979  66.629  0.00  0.00    -0.060 NA
ATOM     12  C   UNL     1     -11.868  12.560  65.314  0.00  0.00    +0.251 C 
ATOM     13  C   UNL     1     -12.500  13.911  65.561  0.00  0.00    +0.251 C 
ATOM     14  N   UNL     1     -12.326  14.165  66.987  0.00  0.00    -0.060 NA
ENDBRANCH   3   9
TORSDOF 1
ENDMDL
MODEL 3
REMARK VINA RESULT:      -5.2      2.339      5.050
REMARK  Name = 
REMARK  1 active torsions:
REMARK  status: ('A' for Active; 'I' for Inactive)
REMARK    1  A    between atoms: C_8  and  N_9
REMARK                            x       y       z     vdW  Elec       q    Type
REMARK                         _______ _______ _______ _____ _____    ______ ____
ROOT
ATOM      1 CL   UNL     1     -12.036  16.308  72.452  0.00  0.00    -0.079 Cl
ATOM      2  C   UNL     1     -12.636  14.800  71.773  0.00  0.00    +0.093 A 
ATOM      3  C   UNL     1     -12.055  14.377  70.581  0.00  0.00    +0.179 A 
ATOM      4  C   UNL     1     -12.119  13.047  70.214  0.00  0.00    +0.093 A 
ATOM      5 CL   UNL     1     -11.061  12.522  68.911  0.00  0.00    -0.079 Cl
ATOM      6  C   UNL     1     -12.683  12.156  71.114  0.00  0.00    +0.014 A 
ATOM      7  C   UNL     1     -13.491  12.631  72.140  0.00  0.00    +0.002 A 
ATOM      8  C   UNL     1     -13.471  13.974  72.493  0.00  0.00    +0.014 A 
ENDROOT
BRANCH   3   9
ATOM      9  N   UNL     1     -11.900  15.369  69.560  0.00  0.00    -0.069 NA
ATOM     10  C   UNL     1     -10.834  16.081  69.433  0.00  0.00    +0.439 C 
ATOM     11  N   UNL     1     -10.747  17.407  68.900  0.00  0.00    -0.060 NA
ATOM     12  C   UNL     1      -9.590  17.524  68.053  0.00  0.00    +0.251 C 
ATOM     13  C   UNL     1      -8.643  16.517  68.665  0.00  0.00    +0.251 C 
ATOM     14  N   UNL     1      -9.487  15.604  69.427  0.00  0.00    -0.060 NA
ENDBRANCH   3   9
TORSDOF 1
ENDMDL
MODEL 4
REMARK VINA RESULT:      -5.2      3.060      5.644
REMARK  Name = 
REMARK  1 active torsions:
REMARK  status: ('A' for Active; 'I' for Inactive)
REMARK    1  A    between atoms: C_8  and  N_9
REMARK                            x       y       z     vdW  Elec       q    Type
REMARK                         _______ _______ _______ _____ _____    ______ ____
ROOT
ATOM      1 CL   UNL     1     -10.348  16.245  65.827  0.00  0.00    -0.079 Cl
ATOM      2  C   UNL     1     -11.055  15.748  67.360  0.00  0.00    +0.093 A 
ATOM      3  C   UNL     1     -11.544  14.447  67.429  0.00  0.00    +0.179 A 
ATOM      4  C   UNL     1     -11.696  13.829  68.656  0.00  0.00    +0.093 A 
ATOM      5 CL   UNL     1     -11.955  12.090  68.652  0.00  0.00    -0.079 Cl
ATOM      6  C   UNL     1     -11.252  14.508  69.779  0.00  0.00    +0.014 A 
ATOM      7  C   UNL     1     -11.040  15.881  69.717  0.00  0.00    +0.002 A 
ATOM      8  C   UNL     1     -10.929  16.524  68.491  0.00  0.00    +0.014 A 
ENDROOT
BRANCH   3   9
ATOM      9  N   UNL     1     -12.352  14.010  66.331  0.00  0.00    -0.069 NA
ATOM     10  C   UNL     1     -11.863  13.423  65.293  0.00  0.00    +0.439 C 
ATOM     11  N   UNL     1     -12.389  13.456  63.962  0.00  0.00    -0.060 NA
ATOM     12  C   UNL     1     -12.308  12.149  63.367  0.00  0.00    +0.251 C 
ATOM     13  C   UNL     1     -11.105  11.555  64.062  0.00  0.00    +0.251 C 
ATOM     14  N   UNL     1     -10.944  12.329  65.287  0.00  0.00    -0.060 NA
ENDBRANCH   3   9
TORSDOF 1
ENDMDL
MODEL 5
REMARK VINA RESULT:      -5.1      3.481      4.783
REMARK  Name = 
REMARK  1 active torsions:
REMARK  status: ('A' for Active; 'I' for Inactive)
REMARK    1  A    between atoms: C_8  and  N_9
REMARK                            x       y       z     vdW  Elec       q    Type
REMARK                         _______ _______ _______ _____ _____    ______ ____
ROOT
ATOM      1 CL   UNL     1      -7.830  14.664  67.251  0.00  0.00    -0.079 Cl
ATOM      2  C   UNL     1      -9.582  14.503  67.300  0.00  0.00    +0.093 A 
ATOM      3  C   UNL     1     -10.284  14.971  66.193  0.00  0.00    +0.179 A 
ATOM      4  C   UNL     1     -11.558  14.504  65.933  0.00  0.00    +0.093 A 
ATOM      5 CL   UNL     1     -12.228  14.843  64.343  0.00  0.00    -0.079 Cl
ATOM      6  C   UNL     1     -12.053  13.498  66.747  0.00  0.00    +0.014 A 
ATOM      7  C   UNL     1     -11.467  13.258  67.984  0.00  0.00    +0.002 A 
ATOM      8  C   UNL     1     -10.205  13.757  68.277  0.00  0.00    +0.014 A 
ENDROOT
BRANCH   3   9
ATOM      9  N   UNL     1      -9.904  16.259  65.694  0.00  0.00    -0.069 NA
ATOM     10  C   UNL     1     -10.363  17.360  66.181  0.00  0.00    +0.439 C 
ATOM     11  N   UNL     1     -10.542  18.597  65.483  0.00  0.00    -0.060 NA
ATOM     12  C   UNL     1     -10.127  19.696  66.312  0.00  0.00    +0.251 C 
ATOM     13  C   UNL     1     -10.394  19.167  67.702  0.00  0.00    +0.251 C 
ATOM     14  N   UNL     1     -10.434  17.716  67.563  0.00  0.00    -0.060 NA
ENDBRANCH   3   9
TORSDOF 1
ENDMDL
MODEL 6
REMARK VINA RESULT:      -5.0      3.020      4.582
REMARK  Name = 
REMARK  1 active torsions:
REMARK  status: ('A' for Active; 'I' for Inactive)
REMARK    1  A    between atoms: C_8  and  N_9
REMARK                            x       y       z     vdW  Elec       q    Type
REMARK                         _______ _______ _______ _____ _____    ______ ____
ROOT
ATOM      1 CL   UNL     1     -11.298  15.608  64.647  0.00  0.00    -0.079 Cl
ATOM      2  C   UNL     1     -11.158  14.734  66.167  0.00  0.00    +0.093 A 
ATOM      3  C   UNL     1     -10.805  15.481  67.287  0.00  0.00    +0.179 A 
ATOM      4  C   UNL     1     -11.099  15.011  68.553  0.00  0.00    +0.093 A 
ATOM      5 CL   UNL     1     -10.969  16.154  69.883  0.00  0.00    -0.079 Cl
ATOM      6  C   UNL     1     -11.835  13.841  68.652  0.00  0.00    +0.014 A 
ATOM      7  C   UNL     1     -11.923  12.987  67.559  0.00  0.00    +0.002 A 
ATOM      8  C   UNL     1     -11.590  13.431  66.285  0.00  0.00    +0.014 A 
ENDROOT
BRANCH   3   9
ATOM      9  N   UNL     1      -9.718  16.398  67.125  0.00  0.00    -0.069 NA
ATOM     10  C   UNL     1      -9.889  17.641  66.831  0.00  0.00    +0.439 C 
ATOM     11  N   UNL     1      -8.985  18.484  66.107  0.00  0.00    -0.060 NA
ATOM     12  C   UNL     1      -8.923  19.783  66.721  0.00  0.00    +0.251 C 
ATOM     13  C   UNL     1     -10.298  19.912  67.335  0.00  0.00    +0.251 C 
ATOM     14  N   UNL     1     -10.797  18.548  67.460  0.00  0.00    -0.060 NA
ENDBRANCH   3   9
TORSDOF 1
ENDMDL
MODEL 7
REMARK VINA RESULT:      -5.0      3.380      4.380
REMARK  Name = 
REMARK  1 active torsions:
REMARK  status: ('A' for Active; 'I' for Inactive)
REMARK    1  A    between atoms: C_8  and  N_9
REMARK                            x       y       z     vdW  Elec       q    Type
REMARK                         _______ _______ _______ _____ _____    ______ ____
ROOT
ATOM      1 CL   UNL     1      -9.189  10.725  67.140  0.00  0.00    -0.079 Cl
ATOM      2  C   UNL     1     -10.336  11.029  65.841  0.00  0.00    +0.093 A 
ATOM      3  C   UNL     1     -11.339  11.958  66.097  0.00  0.00    +0.179 A 
ATOM      4  C   UNL     1     -11.987  12.584  65.050  0.00  0.00    +0.093 A 
ATOM      5 CL   UNL     1     -12.961  13.997  65.437  0.00  0.00    -0.079 Cl
ATOM      6  C   UNL     1     -11.533  12.328  63.766  0.00  0.00    +0.014 A 
ATOM      7  C   UNL     1     -10.745  11.209  63.523  0.00  0.00    +0.002 A 
ATOM      8  C   UNL     1     -10.122  10.542  64.570  0.00  0.00    +0.014 A 
ENDROOT
BRANCH   3   9
ATOM      9  N   UNL     1     -12.014  11.838  67.354  0.00  0.00    -0.069 NA
ATOM     10  C   UNL     1     -11.672  12.510  68.399  0.00  0.00    +0.439 C 
ATOM     11  N   UNL     1     -11.832  12.112  69.765  0.00  0.00    -0.060 NA
ATOM     12  C   UNL     1     -12.276  13.229  70.556  0.00  0.00    +0.251 C 
ATOM     13  C   UNL     1     -11.684  14.403  69.812  0.00  0.00    +0.251 C 
ATOM     14  N   UNL     1     -11.421  13.916  68.463  0.00  0.00    -0.060 NA
ENDBRANCH   3   9
TORSDOF 1
ENDMDL
MODEL 8
REMARK VINA RESULT:      -5.0      4.013      6.231
REMARK  Name = 
REMARK  1 active torsions:
REMARK  status: ('A' for Active; 'I' for Inactive)
REMARK    1  A    between atoms: C_8  and  N_9
REMARK                            x       y       z     vdW  Elec       q    Type
REMARK                         _______ _______ _______ _____ _____    ______ ____
ROOT
ATOM      1 CL   UNL     1     -11.933  13.369  69.620  0.00  0.00    -0.079 Cl
ATOM      2  C   UNL     1     -11.753  11.638  69.357  0.00  0.00    +0.093 A 
ATOM      3  C   UNL     1     -11.383  11.236  68.077  0.00  0.00    +0.179 A 
ATOM      4  C   UNL     1     -10.794  10.001  67.883  0.00  0.00    +0.093 A 
ATOM      5 CL   UNL     1     -10.021   9.716  66.330  0.00  0.00    -0.079 Cl
ATOM      6  C   UNL     1     -10.502   9.243  69.006  0.00  0.00    +0.014 A 
ATOM      7  C   UNL     1     -11.125   9.531  70.214  0.00  0.00    +0.002 A 
ATOM      8  C   UNL     1     -11.759  10.751  70.411  0.00  0.00    +0.014 A 
ENDROOT
BRANCH   3   9
ATOM      9  N   UNL     1     -12.085  11.846  66.989  0.00  0.00    -0.069 NA
ATOM     10  C   UNL     1     -11.709  12.952  66.446  0.00  0.00    +0.439 C 
ATOM     11  N   UNL     1     -12.547  13.924  65.811  0.00  0.00    -0.060 NA
ATOM     12  C   UNL     1     -11.919  14.409  64.611  0.00  0.00    +0.251 C 
ATOM     13  C   UNL     1     -10.451  14.266  64.940  0.00  0.00    +0.251 C 
ATOM     14  N   UNL     1     -10.387  13.284  66.016  0.00  0.00    -0.060 NA
ENDBRANCH   3   9
TORSDOF 1
ENDMDL
MODEL 9
REMARK VINA RESULT:      -4.9      2.288      3.180
REMARK  Name = 
REMARK  1 active torsions:
REMARK  status: ('A' for Active; 'I' for Inactive)
REMARK    1  A    between atoms: C_8  and  N_9
REMARK                            x       y       z     vdW  Elec       q    Type
REMARK                         _______ _______ _______ _____ _____    ______ ____
ROOT
ATOM      1 CL   UNL     1      -9.147  12.335  67.297  0.00  0.00    -0.079 Cl
ATOM      2  C   UNL     1     -10.556  12.821  66.362  0.00  0.00    +0.093 A 
ATOM      3  C   UNL     1     -10.713  14.185  66.133  0.00  0.00    +0.179 A 
ATOM      4  C   UNL     1     -11.489  14.624  65.078  0.00  0.00    +0.093 A 
ATOM      5 CL   UNL     1     -11.343  16.317  64.625  0.00  0.00    -0.079 Cl
ATOM      6  C   UNL     1     -12.007  13.670  64.217  0.00  0.00    +0.014 A 
ATOM      7  C   UNL     1     -12.075  12.341  64.620  0.00  0.00    +0.002 A 
ATOM      8  C   UNL     1     -11.334  11.893  65.706  0.00  0.00    +0.014 A 
ENDROOT
BRANCH   3   9
ATOM      9  N   UNL     1     -10.528  15.047  67.262  0.00  0.00    -0.069 NA
ATOM     10  C   UNL     1     -11.399  15.160  68.204  0.00  0.00    +0.439 C 
ATOM     11  N   UNL     1     -11.632  16.313  69.022  0.00  0.00    -0.060 NA
ATOM     12  C   UNL     1     -11.840  15.914  70.389  0.00  0.00    +0.251 C 
ATOM     13  C   UNL     1     -12.438  14.535  70.232  0.00  0.00    +0.251 C 
ATOM     14  N   UNL     1     -12.049  14.093  68.898  0.00  0.00    -0.060 NA
ENDBRANCH   3   9
TORSDOF 1
ENDMDL
