MODEL 1
REMARK VINA RESULT:      -6.2      0.000      0.000
REMARK  Name = 
REMARK  8 active torsions:
REMARK  status: ('A' for Active; 'I' for Inactive)
REMARK    1  A    between atoms: C_2  and  C_3
REMARK    2  A    between atoms: N_5  and  C_6
REMARK    3  A    between atoms: N_5  and  C_12
REMARK    4  A    between atoms: C_12  and  C_13
REMARK    5  A    between atoms: C_13  and  O_14
REMARK    6  A    between atoms: N_18  and  C_19
REMARK    7  A    between atoms: C_19  and  C_20
REMARK    8  A    between atoms: C_20  and  C_21
REMARK                            x       y       z     vdW  Elec       q    Type
REMARK                         _______ _______ _______ _____ _____    ______ ____
ROOT
ATOM      1  C   UNL     1      -8.156  17.248  67.260  0.00  0.00    +0.094 C 
ATOM      2  C   UNL     1      -9.197  16.784  66.279  0.00  0.00    +0.038 C 
ATOM      3  C   UNL     1     -10.057  15.670  66.807  0.00  0.00    +0.074 C 
ATOM      4  N   UNL     1      -9.304  14.536  67.278  0.00  0.00    -0.272 NA
ATOM      5  C   UNL     1      -7.942  14.852  67.628  0.00  0.00    +0.074 C 
ATOM      6  C   UNL     1      -7.966  16.197  68.326  0.00  0.00    +0.038 C 
ENDROOT
BRANCH   1   8
ATOM      7  C   UNL     1      -9.776  18.885  68.052  0.00  0.00    +0.229 C 
ATOM      8  N   UNL     1      -8.405  18.561  67.788  0.00  0.00    -0.259 N 
ATOM      9  O   UNL     1     -10.310  18.294  69.012  0.00  0.00    -0.275 OA
BRANCH   8  10
ATOM     10  C   UNL     1      -7.405  19.463  68.212  0.00  0.00    +0.054 A 
ATOM     11  C   UNL     1      -7.059  20.593  67.500  0.00  0.00    +0.015 A 
ATOM     12  C   UNL     1      -5.843  21.211  67.759  0.00  0.00    +0.001 A 
ATOM     13  C   UNL     1      -5.158  20.933  68.932  0.00  0.00    +0.000 A 
ATOM     14  C   UNL     1      -5.800  20.156  69.888  0.00  0.00    +0.001 A 
ATOM     15  C   UNL     1      -6.768  19.295  69.427  0.00  0.00    +0.015 A 
ENDBRANCH   8  10
BRANCH   7  17
ATOM     16  C   UNL     1     -10.461  19.686  65.884  0.00  0.00    +0.010 C 
ATOM     17  C   UNL     1     -10.376  20.042  67.341  0.00  0.00    +0.086 C 
ENDBRANCH   7  17
ENDBRANCH   1   8
BRANCH   4  18
ATOM     18  C   UNL     1      -9.958  14.080  68.503  0.00  0.00    +0.077 C 
BRANCH  18  19
ATOM     19  C   UNL     1     -11.308  14.734  68.657  0.00  0.00    +0.050 C 
BRANCH  19  20
ATOM     20  C   UNL     1     -11.747  14.572  70.075  0.00  0.00    +0.009 A 
ATOM     21  S   UNL     1     -11.832  15.693  71.370  0.00  0.00    -0.091 S 
ATOM     22  C   UNL     1     -12.800  14.780  72.456  0.00  0.00    +0.035 A 
ATOM     23  C   UNL     1     -13.220  13.759  71.611  0.00  0.00    +0.007 A 
ATOM     24  C   UNL     1     -12.259  13.438  70.695  0.00  0.00    +0.003 A 
ENDBRANCH  19  20
ENDBRANCH  18  19
ENDBRANCH   4  18
BRANCH   1  25
ATOM     25  C   UNL     1      -6.841  17.319  66.490  0.00  0.00    +0.161 C 
BRANCH  25  26
ATOM     26  O   UNL     1      -7.046  17.934  65.264  0.00  0.00    -0.349 OA
ATOM     27  C   UNL     1      -5.850  18.508  64.852  0.00  0.00    +0.174 C 
ENDBRANCH  25  26
ENDBRANCH   1  25
TORSDOF 8
ENDMDL
MODEL 2
REMARK VINA RESULT:      -6.1      2.636      3.676
REMARK  Name = 
REMARK  8 active torsions:
REMARK  status: ('A' for Active; 'I' for Inactive)
REMARK    1  A    between atoms: C_2  and  C_3
REMARK    2  A    between atoms: N_5  and  C_6
REMARK    3  A    between atoms: N_5  and  C_12
REMARK    4  A    between atoms: C_12  and  C_13
REMARK    5  A    between atoms: C_13  and  O_14
REMARK    6  A    between atoms: N_18  and  C_19
REMARK    7  A    between atoms: C_19  and  C_20
REMARK    8  A    between atoms: C_20  and  C_21
REMARK                            x       y       z     vdW  Elec       q    Type
REMARK                         _______ _______ _______ _____ _____    ______ ____
ROOT
ATOM      1  C   UNL     1      -8.267  17.341  67.802  0.00  0.00    +0.094 C 
ATOM      2  C   UNL     1      -7.987  16.540  66.560  0.00  0.00    +0.038 C 
ATOM      3  C   UNL     1      -9.173  15.749  66.083  0.00  0.00    +0.074 C 
ATOM      4  N   UNL     1      -9.733  14.887  67.091  0.00  0.00    -0.272 NA
ATOM      5  C   UNL     1      -9.416  15.292  68.438  0.00  0.00    +0.074 C 
ATOM      6  C   UNL     1      -9.505  16.804  68.477  0.00  0.00    +0.038 C 
ENDROOT
BRANCH   1   8
ATOM      7  C   UNL     1      -9.489  19.437  68.018  0.00  0.00    +0.229 C 
ATOM      8  N   UNL     1      -8.305  18.759  67.577  0.00  0.00    -0.259 N 
ATOM      9  O   UNL     1      -9.647  19.531  69.252  0.00  0.00    -0.275 OA
BRANCH   8  10
ATOM     10  C   UNL     1      -7.215  19.533  67.122  0.00  0.00    +0.054 A 
ATOM     11  C   UNL     1      -6.783  19.528  65.812  0.00  0.00    +0.015 A 
ATOM     12  C   UNL     1      -5.510  19.994  65.516  0.00  0.00    +0.001 A 
ATOM     13  C   UNL     1      -4.825  20.774  66.435  0.00  0.00    +0.000 A 
ATOM     14  C   UNL     1      -5.512  21.197  67.566  0.00  0.00    +0.001 A 
ATOM     15  C   UNL     1      -6.567  20.413  67.969  0.00  0.00    +0.015 A 
ENDBRANCH   8  10
BRANCH   7  17
ATOM     16  C   UNL     1     -10.614  19.207  65.898  0.00  0.00    +0.010 C 
ATOM     17  C   UNL     1     -10.298  20.166  67.011  0.00  0.00    +0.086 C 
ENDBRANCH   7  17
ENDBRANCH   1   8
BRANCH   4  18
ATOM     18  C   UNL     1     -11.186  14.975  66.957  0.00  0.00    +0.077 C 
BRANCH  18  19
ATOM     19  C   UNL     1     -11.796  13.597  66.910  0.00  0.00    +0.050 C 
BRANCH  19  20
ATOM     20  C   UNL     1     -11.495  12.998  65.576  0.00  0.00    +0.009 A 
ATOM     21  S   UNL     1     -10.446  11.720  65.118  0.00  0.00    -0.091 S 
ATOM     22  C   UNL     1     -11.027  11.450  63.525  0.00  0.00    +0.035 A 
ATOM     23  C   UNL     1     -12.194  12.203  63.558  0.00  0.00    +0.007 A 
ATOM     24  C   UNL     1     -12.053  13.313  64.342  0.00  0.00    +0.003 A 
ENDBRANCH  19  20
ENDBRANCH  18  19
ENDBRANCH   4  18
BRANCH   1  25
ATOM     25  C   UNL     1      -7.108  17.072  68.757  0.00  0.00    +0.161 C 
BRANCH  25  26
ATOM     26  O   UNL     1      -6.066  16.463  68.074  0.00  0.00    -0.349 OA
ATOM     27  C   UNL     1      -4.869  17.020  68.505  0.00  0.00    +0.174 C 
ENDBRANCH  25  26
ENDBRANCH   1  25
TORSDOF 8
ENDMDL
MODEL 3
REMARK VINA RESULT:      -6.1      4.627      7.484
REMARK  Name = 
REMARK  8 active torsions:
REMARK  status: ('A' for Active; 'I' for Inactive)
REMARK    1  A    between atoms: C_2  and  C_3
REMARK    2  A    between atoms: N_5  and  C_6
REMARK    3  A    between atoms: N_5  and  C_12
REMARK    4  A    between atoms: C_12  and  C_13
REMARK    5  A    between atoms: C_13  and  O_14
REMARK    6  A    between atoms: N_18  and  C_19
REMARK    7  A    between atoms: C_19  and  C_20
REMARK    8  A    between atoms: C_20  and  C_21
REMARK                            x       y       z     vdW  Elec       q    Type
REMARK                         _______ _______ _______ _____ _____    ______ ____
ROOT
ATOM      1  C   UNL     1     -10.419  12.477  66.682  0.00  0.00    +0.094 C 
ATOM      2  C   UNL     1      -9.303  13.442  66.972  0.00  0.00    +0.038 C 
ATOM      3  C   UNL     1      -9.698  14.543  67.916  0.00  0.00    +0.074 C 
ATOM      4  N   UNL     1     -10.864  15.275  67.490  0.00  0.00    -0.272 NA
ATOM      5  C   UNL     1     -11.702  14.543  66.573  0.00  0.00    +0.074 C 
ATOM      6  C   UNL     1     -11.737  13.107  67.058  0.00  0.00    +0.038 C 
ENDROOT
BRANCH   1   8
ATOM      7  C   UNL     1      -9.405  10.270  66.502  0.00  0.00    +0.229 C 
ATOM      8  N   UNL     1     -10.220  11.175  67.257  0.00  0.00    -0.259 N 
ATOM      9  O   UNL     1      -8.187  10.536  66.446  0.00  0.00    -0.275 OA
BRANCH   8  10
ATOM     10  C   UNL     1     -10.620  10.799  68.557  0.00  0.00    +0.054 A 
ATOM     11  C   UNL     1      -9.743  10.307  69.502  0.00  0.00    +0.015 A 
ATOM     12  C   UNL     1     -10.244   9.613  70.595  0.00  0.00    +0.001 A 
ATOM     13  C   UNL     1     -11.585   9.718  70.929  0.00  0.00    +0.000 A 
ATOM     14  C   UNL     1     -12.353  10.650  70.243  0.00  0.00    +0.001 A 
ATOM     15  C   UNL     1     -11.922  10.986  68.981  0.00  0.00    +0.015 A 
ENDBRANCH   8  10
BRANCH   7  17
ATOM     16  C   UNL     1      -9.231   7.874  66.701  0.00  0.00    +0.010 C 
ATOM     17  C   UNL     1     -10.005   8.988  66.056  0.00  0.00    +0.086 C 
ENDBRANCH   7  17
ENDBRANCH   1   8
BRANCH   4  18
ATOM     18  C   UNL     1     -11.664  15.520  68.688  0.00  0.00    +0.077 C 
BRANCH  18  19
ATOM     19  C   UNL     1     -10.887  15.154  69.927  0.00  0.00    +0.050 C 
BRANCH  19  20
ATOM     20  C   UNL     1     -11.841  15.080  71.073  0.00  0.00    +0.009 A 
ATOM     21  S   UNL     1     -12.047  16.091  72.443  0.00  0.00    -0.091 S 
ATOM     22  C   UNL     1     -13.574  15.516  72.977  0.00  0.00    +0.035 A 
ATOM     23  C   UNL     1     -13.947  14.752  71.878  0.00  0.00    +0.007 A 
ATOM     24  C   UNL     1     -12.866  14.164  71.285  0.00  0.00    +0.003 A 
ENDBRANCH  19  20
ENDBRANCH  18  19
ENDBRANCH   4  18
BRANCH   1  25
ATOM     25  C   UNL     1     -10.448  12.296  65.167  0.00  0.00    +0.161 C 
BRANCH  25  26
ATOM     26  O   UNL     1     -11.707  11.879  64.766  0.00  0.00    -0.349 OA
ATOM     27  C   UNL     1     -11.939  12.345  63.479  0.00  0.00    +0.174 C 
ENDBRANCH  25  26
ENDBRANCH   1  25
TORSDOF 8
ENDMDL
MODEL 4
REMARK VINA RESULT:      -6.0      1.528      2.098
REMARK  Name = 
REMARK  8 active torsions:
REMARK  status: ('A' for Active; 'I' for Inactive)
REMARK    1  A    between atoms: C_2  and  C_3
REMARK    2  A    between atoms: N_5  and  C_6
REMARK    3  A    between atoms: N_5  and  C_12
REMARK    4  A    between atoms: C_12  and  C_13
REMARK    5  A    between atoms: C_13  and  O_14
REMARK    6  A    between atoms: N_18  and  C_19
REMARK    7  A    between atoms: C_19  and  C_20
REMARK    8  A    between atoms: C_20  and  C_21
REMARK                            x       y       z     vdW  Elec       q    Type
REMARK                         _______ _______ _______ _____ _____    ______ ____
ROOT
ATOM      1  C   UNL     1      -8.360  17.224  67.724  0.00  0.00    +0.094 C 
ATOM      2  C   UNL     1      -8.679  16.370  66.528  0.00  0.00    +0.038 C 
ATOM      3  C   UNL     1     -10.001  15.663  66.637  0.00  0.00    +0.074 C 
ATOM      4  N   UNL     1     -10.135  14.876  67.835  0.00  0.00    -0.272 NA
ATOM      5  C   UNL     1      -9.255  15.290  68.900  0.00  0.00    +0.074 C 
ATOM      6  C   UNL     1      -9.228  16.806  68.885  0.00  0.00    +0.038 C 
ENDROOT
BRANCH   1   8
ATOM      7  C   UNL     1      -9.516  19.349  68.007  0.00  0.00    +0.229 C 
ATOM      8  N   UNL     1      -8.403  18.635  67.454  0.00  0.00    -0.259 N 
ATOM      9  O   UNL     1      -9.526  19.488  69.246  0.00  0.00    -0.275 OA
BRANCH   8  10
ATOM     10  C   UNL     1      -7.364  19.372  66.847  0.00  0.00    +0.054 A 
ATOM     11  C   UNL     1      -6.961  19.171  65.543  0.00  0.00    +0.015 A 
ATOM     12  C   UNL     1      -5.719  19.639  65.136  0.00  0.00    +0.001 A 
ATOM     13  C   UNL     1      -5.053  20.590  65.895  0.00  0.00    +0.000 A 
ATOM     14  C   UNL     1      -5.735  21.161  66.962  0.00  0.00    +0.001 A 
ATOM     15  C   UNL     1      -6.740  20.406  67.519  0.00  0.00    +0.015 A 
ENDBRANCH   8  10
BRANCH   7  17
ATOM     16  C   UNL     1     -10.680  19.153  65.905  0.00  0.00    +0.010 C 
ATOM     17  C   UNL     1     -10.428  20.059  67.076  0.00  0.00    +0.086 C 
ENDBRANCH   7  17
ENDBRANCH   1   8
BRANCH   4  18
ATOM     18  C   UNL     1     -11.500  15.075  68.316  0.00  0.00    +0.077 C 
BRANCH  18  19
ATOM     19  C   UNL     1     -11.910  13.945  69.226  0.00  0.00    +0.050 C 
BRANCH  19  20
ATOM     20  C   UNL     1     -12.421  14.532  70.500  0.00  0.00    +0.009 A 
ATOM     21  S   UNL     1     -13.278  13.830  71.809  0.00  0.00    -0.091 S 
ATOM     22  C   UNL     1     -13.086  15.086  72.964  0.00  0.00    +0.035 A 
ATOM     23  C   UNL     1     -12.122  15.859  72.329  0.00  0.00    +0.007 A 
ATOM     24  C   UNL     1     -12.273  15.832  70.971  0.00  0.00    +0.003 A 
ENDBRANCH  19  20
ENDBRANCH  18  19
ENDBRANCH   4  18
BRANCH   1  25
ATOM     25  C   UNL     1      -6.925  16.889  68.120  0.00  0.00    +0.161 C 
BRANCH  25  26
ATOM     26  O   UNL     1      -6.677  17.331  69.410  0.00  0.00    -0.349 OA
ATOM     27  C   UNL     1      -5.311  17.536  69.553  0.00  0.00    +0.174 C 
ENDBRANCH  25  26
ENDBRANCH   1  25
TORSDOF 8
ENDMDL
MODEL 5
REMARK VINA RESULT:      -6.0      2.920      4.700
REMARK  Name = 
REMARK  8 active torsions:
REMARK  status: ('A' for Active; 'I' for Inactive)
REMARK    1  A    between atoms: C_2  and  C_3
REMARK    2  A    between atoms: N_5  and  C_6
REMARK    3  A    between atoms: N_5  and  C_12
REMARK    4  A    between atoms: C_12  and  C_13
REMARK    5  A    between atoms: C_13  and  O_14
REMARK    6  A    between atoms: N_18  and  C_19
REMARK    7  A    between atoms: C_19  and  C_20
REMARK    8  A    between atoms: C_20  and  C_21
REMARK                            x       y       z     vdW  Elec       q    Type
REMARK                         _______ _______ _______ _____ _____    ______ ____
ROOT
ATOM      1  C   UNL     1     -10.190  14.666  66.984  0.00  0.00    +0.094 C 
ATOM      2  C   UNL     1     -11.561  14.848  67.574  0.00  0.00    +0.038 C 
ATOM      3  C   UNL     1     -11.922  13.789  68.578  0.00  0.00    +0.074 C 
ATOM      4  N   UNL     1     -11.795  12.447  68.070  0.00  0.00    -0.272 NA
ATOM      5  C   UNL     1     -10.903  12.339  66.943  0.00  0.00    +0.074 C 
ATOM      6  C   UNL     1      -9.725  13.250  67.222  0.00  0.00    +0.038 C 
ENDROOT
BRANCH   1   8
ATOM      7  C   UNL     1      -8.003  15.167  67.932  0.00  0.00    +0.229 C 
ATOM      8  N   UNL     1      -9.242  15.659  67.407  0.00  0.00    -0.259 N 
ATOM      9  O   UNL     1      -7.225  14.637  67.113  0.00  0.00    -0.275 OA
BRANCH   8  10
ATOM     10  C   UNL     1      -9.378  17.047  67.187  0.00  0.00    +0.054 A 
ATOM     11  C   UNL     1     -10.360  17.812  67.781  0.00  0.00    +0.015 A 
ATOM     12  C   UNL     1     -10.673  19.053  67.243  0.00  0.00    +0.001 A 
ATOM     13  C   UNL     1      -9.793  19.671  66.367  0.00  0.00    +0.000 A 
ATOM     14  C   UNL     1      -8.545  19.089  66.183  0.00  0.00    +0.001 A 
ATOM     15  C   UNL     1      -8.463  17.735  66.412  0.00  0.00    +0.015 A 
ENDBRANCH   8  10
BRANCH   7  17
ATOM     16  C   UNL     1      -6.276  16.160  69.289  0.00  0.00    +0.010 C 
ATOM     17  C   UNL     1      -7.637  15.526  69.325  0.00  0.00    +0.086 C 
ENDBRANCH   7  17
ENDBRANCH   1   8
BRANCH   4  18
ATOM     18  C   UNL     1     -11.213  11.647  69.146  0.00  0.00    +0.077 C 
BRANCH  18  19
ATOM     19  C   UNL     1     -12.081  11.707  70.377  0.00  0.00    +0.050 C 
BRANCH  19  20
ATOM     20  C   UNL     1     -12.188  10.327  70.940  0.00  0.00    +0.009 A 
ATOM     21  S   UNL     1     -10.990   9.158  71.311  0.00  0.00    -0.091 S 
ATOM     22  C   UNL     1     -11.941   8.087  72.259  0.00  0.00    +0.035 A 
ATOM     23  C   UNL     1     -13.075   8.867  72.448  0.00  0.00    +0.007 A 
ATOM     24  C   UNL     1     -13.330   9.654  71.360  0.00  0.00    +0.003 A 
ENDBRANCH  19  20
ENDBRANCH  18  19
ENDBRANCH   4  18
BRANCH   1  25
ATOM     25  C   UNL     1     -10.348  14.815  65.474  0.00  0.00    +0.161 C 
BRANCH  25  26
ATOM     26  O   UNL     1     -11.640  15.220  65.174  0.00  0.00    -0.349 OA
ATOM     27  C   UNL     1     -12.151  14.377  64.195  0.00  0.00    +0.174 C 
ENDBRANCH  25  26
ENDBRANCH   1  25
TORSDOF 8
ENDMDL
MODEL 6
REMARK VINA RESULT:      -5.9      2.369      3.074
REMARK  Name = 
REMARK  8 active torsions:
REMARK  status: ('A' for Active; 'I' for Inactive)
REMARK    1  A    between atoms: C_2  and  C_3
REMARK    2  A    between atoms: N_5  and  C_6
REMARK    3  A    between atoms: N_5  and  C_12
REMARK    4  A    between atoms: C_12  and  C_13
REMARK    5  A    between atoms: C_13  and  O_14
REMARK    6  A    between atoms: N_18  and  C_19
REMARK    7  A    between atoms: C_19  and  C_20
REMARK    8  A    between atoms: C_20  and  C_21
REMARK                            x       y       z     vdW  Elec       q    Type
REMARK                         _______ _______ _______ _____ _____    ______ ____
ROOT
ATOM      1  C   UNL     1      -7.820  17.282  67.512  0.00  0.00    +0.094 C 
ATOM      2  C   UNL     1      -8.346  17.001  66.132  0.00  0.00    +0.038 C 
ATOM      3  C   UNL     1      -9.544  16.093  66.125  0.00  0.00    +0.074 C 
ATOM      4  N   UNL     1      -9.327  14.849  66.816  0.00  0.00    -0.272 NA
ATOM      5  C   UNL     1      -8.255  14.902  67.779  0.00  0.00    +0.074 C 
ATOM      6  C   UNL     1      -8.351  16.246  68.472  0.00  0.00    +0.038 C 
ENDROOT
BRANCH   1   8
ATOM      7  C   UNL     1      -9.403  19.064  68.014  0.00  0.00    +0.229 C 
ATOM      8  N   UNL     1      -8.037  18.634  67.949  0.00  0.00    -0.259 N 
ATOM      9  O   UNL     1     -10.100  18.559  68.916  0.00  0.00    -0.275 OA
BRANCH   8  10
ATOM     10  C   UNL     1      -7.036  19.484  68.467  0.00  0.00    +0.054 A 
ATOM     11  C   UNL     1      -6.409  20.455  67.714  0.00  0.00    +0.015 A 
ATOM     12  C   UNL     1      -5.202  20.981  68.154  0.00  0.00    +0.001 A 
ATOM     13  C   UNL     1      -4.813  20.813  69.474  0.00  0.00    +0.000 A 
ATOM     14  C   UNL     1      -5.730  20.256  70.355  0.00  0.00    +0.001 A 
ATOM     15  C   UNL     1      -6.687  19.437  69.803  0.00  0.00    +0.015 A 
ENDBRANCH   8  10
BRANCH   7  17
ATOM     16  C   UNL     1     -10.563  19.687  65.995  0.00  0.00    +0.010 C 
ATOM     17  C   UNL     1      -9.816  20.222  67.183  0.00  0.00    +0.086 C 
ENDBRANCH   7  17
ENDBRANCH   1   8
BRANCH   4  18
ATOM     18  C   UNL     1     -10.550  14.566  67.564  0.00  0.00    +0.077 C 
BRANCH  18  19
ATOM     19  C   UNL     1     -11.699  14.313  66.621  0.00  0.00    +0.050 C 
BRANCH  19  20
ATOM     20  C   UNL     1     -11.437  13.032  65.900  0.00  0.00    +0.009 A 
ATOM     21  S   UNL     1     -11.162  12.702  64.239  0.00  0.00    -0.091 S 
ATOM     22  C   UNL     1     -10.567  11.097  64.377  0.00  0.00    +0.035 A 
ATOM     23  C   UNL     1     -10.366  11.026  65.750  0.00  0.00    +0.007 A 
ATOM     24  C   UNL     1     -11.300  11.755  66.432  0.00  0.00    +0.003 A 
ENDBRANCH  19  20
ENDBRANCH  18  19
ENDBRANCH   4  18
BRANCH   1  25
ATOM     25  C   UNL     1      -6.310  17.071  67.448  0.00  0.00    +0.161 C 
BRANCH  25  26
ATOM     26  O   UNL     1      -5.892  17.063  66.126  0.00  0.00    -0.349 OA
ATOM     27  C   UNL     1      -4.625  17.630  66.060  0.00  0.00    +0.174 C 
ENDBRANCH  25  26
ENDBRANCH   1  25
TORSDOF 8
ENDMDL
MODEL 7
REMARK VINA RESULT:      -5.9      2.905      4.257
REMARK  Name = 
REMARK  8 active torsions:
REMARK  status: ('A' for Active; 'I' for Inactive)
REMARK    1  A    between atoms: C_2  and  C_3
REMARK    2  A    between atoms: N_5  and  C_6
REMARK    3  A    between atoms: N_5  and  C_12
REMARK    4  A    between atoms: C_12  and  C_13
REMARK    5  A    between atoms: C_13  and  O_14
REMARK    6  A    between atoms: N_18  and  C_19
REMARK    7  A    between atoms: C_19  and  C_20
REMARK    8  A    between atoms: C_20  and  C_21
REMARK                            x       y       z     vdW  Elec       q    Type
REMARK                         _______ _______ _______ _____ _____    ______ ____
ROOT
ATOM      1  C   UNL     1     -10.346  14.736  66.904  0.00  0.00    +0.094 C 
ATOM      2  C   UNL     1     -11.792  14.633  67.303  0.00  0.00    +0.038 C 
ATOM      3  C   UNL     1     -12.051  13.571  68.334  0.00  0.00    +0.074 C 
ATOM      4  N   UNL     1     -11.567  12.269  67.953  0.00  0.00    -0.272 NA
ATOM      5  C   UNL     1     -10.526  12.309  66.957  0.00  0.00    +0.074 C 
ATOM      6  C   UNL     1      -9.623  13.475  67.309  0.00  0.00    +0.038 C 
ENDROOT
BRANCH   1   8
ATOM      7  C   UNL     1     -10.560  17.065  67.584  0.00  0.00    +0.229 C 
ATOM      8  N   UNL     1      -9.704  15.937  67.362  0.00  0.00    -0.259 N 
ATOM      9  O   UNL     1     -11.332  16.991  68.560  0.00  0.00    -0.275 OA
BRANCH   8  10
ATOM     10  C   UNL     1      -8.353  16.027  67.762  0.00  0.00    +0.054 A 
ATOM     11  C   UNL     1      -7.943  15.870  69.070  0.00  0.00    +0.015 A 
ATOM     12  C   UNL     1      -6.692  16.338  69.449  0.00  0.00    +0.001 A 
ATOM     13  C   UNL     1      -5.737  16.625  68.486  0.00  0.00    +0.000 A 
ATOM     14  C   UNL     1      -6.017  16.277  67.171  0.00  0.00    +0.001 A 
ATOM     15  C   UNL     1      -7.347  16.200  66.830  0.00  0.00    +0.015 A 
ENDBRANCH   8  10
BRANCH   7  17
ATOM     16  C   UNL     1     -10.272  19.450  67.775  0.00  0.00    +0.010 C 
ATOM     17  C   UNL     1     -10.308  18.303  66.806  0.00  0.00    +0.086 C 
ENDBRANCH   7  17
ENDBRANCH   1   8
BRANCH   4  18
ATOM     18  C   UNL     1     -10.981  11.674  69.152  0.00  0.00    +0.077 C 
BRANCH  18  19
ATOM     19  C   UNL     1     -11.950  11.744  70.305  0.00  0.00    +0.050 C 
BRANCH  19  20
ATOM     20  C   UNL     1     -12.088  10.374  70.882  0.00  0.00    +0.009 A 
ATOM     21  S   UNL     1     -10.915   9.194  71.295  0.00  0.00    -0.091 S 
ATOM     22  C   UNL     1     -11.900   8.148  72.235  0.00  0.00    +0.035 A 
ATOM     23  C   UNL     1     -13.027   8.946  72.389  0.00  0.00    +0.007 A 
ATOM     24  C   UNL     1     -13.248   9.721  71.286  0.00  0.00    +0.003 A 
ENDBRANCH  19  20
ENDBRANCH  18  19
ENDBRANCH   4  18
BRANCH   1  25
ATOM     25  C   UNL     1     -10.322  14.772  65.379  0.00  0.00    +0.161 C 
BRANCH  25  26
ATOM     26  O   UNL     1     -11.604  14.975  64.892  0.00  0.00    -0.349 OA
ATOM     27  C   UNL     1     -11.924  13.929  64.037  0.00  0.00    +0.174 C 
ENDBRANCH  25  26
ENDBRANCH   1  25
TORSDOF 8
ENDMDL
MODEL 8
REMARK VINA RESULT:      -5.8      3.339      7.639
REMARK  Name = 
REMARK  8 active torsions:
REMARK  status: ('A' for Active; 'I' for Inactive)
REMARK    1  A    between atoms: C_2  and  C_3
REMARK    2  A    between atoms: N_5  and  C_6
REMARK    3  A    between atoms: N_5  and  C_12
REMARK    4  A    between atoms: C_12  and  C_13
REMARK    5  A    between atoms: C_13  and  O_14
REMARK    6  A    between atoms: N_18  and  C_19
REMARK    7  A    between atoms: C_19  and  C_20
REMARK    8  A    between atoms: C_20  and  C_21
REMARK                            x       y       z     vdW  Elec       q    Type
REMARK                         _______ _______ _______ _____ _____    ______ ____
ROOT
ATOM      1  C   UNL     1      -9.569  14.072  67.301  0.00  0.00    +0.094 C 
ATOM      2  C   UNL     1      -9.550  14.834  68.597  0.00  0.00    +0.038 C 
ATOM      3  C   UNL     1      -9.851  16.297  68.431  0.00  0.00    +0.074 C 
ATOM      4  N   UNL     1      -8.996  16.956  67.477  0.00  0.00    -0.272 NA
ATOM      5  C   UNL     1      -8.393  16.056  66.526  0.00  0.00    +0.074 C 
ATOM      6  C   UNL     1      -9.450  15.039  66.148  0.00  0.00    +0.038 C 
ENDROOT
BRANCH   1   8
ATOM      7  C   UNL     1     -11.493  13.006  68.347  0.00  0.00    +0.229 C 
ATOM      8  N   UNL     1     -10.679  13.167  67.178  0.00  0.00    -0.259 N 
ATOM      9  O   UNL     1     -12.200  13.982  68.668  0.00  0.00    -0.275 OA
BRANCH   8  10
ATOM     10  C   UNL     1     -11.109  12.578  65.970  0.00  0.00    +0.054 A 
ATOM     11  C   UNL     1     -10.471  11.502  65.388  0.00  0.00    +0.015 A 
ATOM     12  C   UNL     1     -10.699  11.222  64.048  0.00  0.00    +0.001 A 
ATOM     13  C   UNL     1     -11.797  11.768  63.401  0.00  0.00    +0.000 A 
ATOM     14  C   UNL     1     -12.726  12.455  64.171  0.00  0.00    +0.001 A 
ATOM     15  C   UNL     1     -12.261  13.010  65.340  0.00  0.00    +0.015 A 
ENDBRANCH   8  10
BRANCH   7  17
ATOM     16  C   UNL     1     -12.110  11.809  70.345  0.00  0.00    +0.010 C 
ATOM     17  C   UNL     1     -11.617  11.650  68.936  0.00  0.00    +0.086 C 
ENDBRANCH   7  17
ENDBRANCH   1   8
BRANCH   4  18
ATOM     18  C   UNL     1      -9.845  17.868  66.714  0.00  0.00    +0.077 C 
BRANCH  18  19
ATOM     19  C   UNL     1      -9.661  19.286  67.192  0.00  0.00    +0.050 C 
BRANCH  19  20
ATOM     20  C   UNL     1      -8.217  19.642  67.051  0.00  0.00    +0.009 A 
ATOM     21  S   UNL     1      -7.196  19.711  65.675  0.00  0.00    -0.091 S 
ATOM     22  C   UNL     1      -5.879  20.577  66.357  0.00  0.00    +0.035 A 
ATOM     23  C   UNL     1      -6.453  20.994  67.552  0.00  0.00    +0.007 A 
ATOM     24  C   UNL     1      -7.333  20.068  68.036  0.00  0.00    +0.003 A 
ENDBRANCH  19  20
ENDBRANCH  18  19
ENDBRANCH   4  18
BRANCH   1  25
ATOM     25  C   UNL     1      -8.300  13.226  67.282  0.00  0.00    +0.161 C 
BRANCH  25  26
ATOM     26  O   UNL     1      -7.991  12.811  68.568  0.00  0.00    -0.349 OA
ATOM     27  C   UNL     1      -7.688  11.456  68.535  0.00  0.00    +0.174 C 
ENDBRANCH  25  26
ENDBRANCH   1  25
TORSDOF 8
ENDMDL
MODEL 9
REMARK VINA RESULT:      -5.8      3.734      7.618
REMARK  Name = 
REMARK  8 active torsions:
REMARK  status: ('A' for Active; 'I' for Inactive)
REMARK    1  A    between atoms: C_2  and  C_3
REMARK    2  A    between atoms: N_5  and  C_6
REMARK    3  A    between atoms: N_5  and  C_12
REMARK    4  A    between atoms: C_12  and  C_13
REMARK    5  A    between atoms: C_13  and  O_14
REMARK    6  A    between atoms: N_18  and  C_19
REMARK    7  A    between atoms: C_19  and  C_20
REMARK    8  A    between atoms: C_20  and  C_21
REMARK                            x       y       z     vdW  Elec       q    Type
REMARK                         _______ _______ _______ _____ _____    ______ ____
ROOT
ATOM      1  C   UNL     1     -11.121  14.787  68.979  0.00  0.00    +0.094 C 
ATOM      2  C   UNL     1     -12.046  14.868  67.795  0.00  0.00    +0.038 C 
ATOM      3  C   UNL     1     -11.736  13.855  66.729  0.00  0.00    +0.074 C 
ATOM      4  N   UNL     1     -10.370  13.899  66.273  0.00  0.00    -0.272 NA
ATOM      5  C   UNL     1      -9.465  14.503  67.219  0.00  0.00    +0.074 C 
ATOM      6  C   UNL     1      -9.879  14.022  68.595  0.00  0.00    +0.038 C 
ENDROOT
BRANCH   1   8
ATOM      7  C   UNL     1     -12.273  15.286  71.067  0.00  0.00    +0.229 C 
ATOM      8  N   UNL     1     -11.753  14.295  70.172  0.00  0.00    -0.259 N 
ATOM      9  O   UNL     1     -13.280  15.911  70.677  0.00  0.00    -0.275 OA
BRANCH   8  10
ATOM     10  C   UNL     1     -12.040  12.937  70.430  0.00  0.00    +0.054 A 
ATOM     11  C   UNL     1     -11.454  11.899  69.736  0.00  0.00    +0.015 A 
ATOM     12  C   UNL     1     -12.045  10.642  69.768  0.00  0.00    +0.001 A 
ATOM     13  C   UNL     1     -12.980  10.340  70.746  0.00  0.00    +0.000 A 
ATOM     14  C   UNL     1     -13.174  11.264  71.765  0.00  0.00    +0.001 A 
ATOM     15  C   UNL     1     -12.879  12.573  71.467  0.00  0.00    +0.015 A 
ENDBRANCH   8  10
BRANCH   7  17
ATOM     16  C   UNL     1     -12.870  15.728  73.360  0.00  0.00    +0.010 C 
ATOM     17  C   UNL     1     -11.741  15.333  72.451  0.00  0.00    +0.086 C 
ENDBRANCH   7  17
ENDBRANCH   1   8
BRANCH   4  18
ATOM     18  C   UNL     1      -9.940  12.513  66.104  0.00  0.00    +0.077 C 
BRANCH  18  19
ATOM     19  C   UNL     1     -10.757  11.833  65.035  0.00  0.00    +0.050 C 
BRANCH  19  20
ATOM     20  C   UNL     1      -9.845  10.965  64.232  0.00  0.00    +0.009 A 
ATOM     21  S   UNL     1      -8.996   9.532  64.638  0.00  0.00    -0.091 S 
ATOM     22  C   UNL     1      -8.558   9.019  63.058  0.00  0.00    +0.035 A 
ATOM     23  C   UNL     1      -9.349   9.870  62.296  0.00  0.00    +0.007 A 
ATOM     24  C   UNL     1      -9.492  11.091  62.893  0.00  0.00    +0.003 A 
ENDBRANCH  19  20
ENDBRANCH  18  19
ENDBRANCH   4  18
BRANCH   1  25
ATOM     25  C   UNL     1     -10.671  16.216  69.270  0.00  0.00    +0.161 C 
BRANCH  25  26
ATOM     26  O   UNL     1     -11.229  17.084  68.344  0.00  0.00    -0.349 OA
ATOM     27  C   UNL     1     -10.293  18.062  68.035  0.00  0.00    +0.174 C 
ENDBRANCH  25  26
ENDBRANCH   1  25
TORSDOF 8
ENDMDL
