MODEL 1
REMARK VINA RESULT:      -7.6      0.000      0.000
REMARK  Name = 
REMARK  12 active torsions:
REMARK  status: ('A' for Active; 'I' for Inactive)
REMARK    1  A    between atoms: C_2  and  N_5
REMARK    2  A    between atoms: C_6  and  C_8
REMARK    3  A    between atoms: N_10  and  C_11
REMARK    4  A    between atoms: C_11  and  C_12
REMARK    5  A    between atoms: N_20  and  C_21
REMARK    6  A    between atoms: C_21  and  C_22
REMARK    7  A    between atoms: C_22  and  C_24
REMARK    8  A    between atoms: C_24  and  C_25
REMARK    9  A    between atoms: C_25  and  C_26
REMARK   10  A    between atoms: C_25  and  C_33
REMARK   11  A    between atoms: C_26  and  C_27
REMARK   12  A    between atoms: N_35  and  C_36
REMARK                            x       y       z     vdW  Elec       q    Type
REMARK                         _______ _______ _______ _____ _____    ______ ____
ROOT
ATOM      1  C   UNL     1     -11.571  11.352  67.575  0.00  0.00    +0.168 C 
ATOM      2  O   UNL     1     -12.280  10.697  68.783  0.00  0.00    -0.222 OA
ENDROOT
BRANCH   1   3
ATOM      3  C   UNL     1     -10.416  10.144  67.585  0.00  0.00    +0.106 C 
BRANCH   3   5
ATOM      4  C   UNL     1      -9.364   8.336  66.378  0.00  0.00    +0.153 C 
ATOM      5  N   UNL     1     -10.268   9.647  66.303  0.00  0.00    -0.262 NA
ATOM      6  C   UNL     1      -9.444  10.422  65.393  0.00  0.00    +0.090 C 
ATOM      7  C   UNL     1      -8.325  11.073  66.198  0.00  0.00    +0.090 C 
ATOM      8  N   UNL     1      -7.556   9.976  66.726  0.00  0.00    -0.266 NA
ATOM      9  C   UNL     1      -8.325   9.035  67.487  0.00  0.00    +0.098 C 
BRANCH   4  11
ATOM     10  N   UNL     1      -9.394   7.031  68.489  0.00  0.00    -0.208 NA
ATOM     11  C   UNL     1     -10.283   7.683  67.569  0.00  0.00    +0.257 C 
ATOM     12  O   UNL     1     -11.007   6.846  66.947  0.00  0.00    -0.272 OA
BRANCH  10  14
ATOM     13  C   UNL     1     -11.240   6.665  69.761  0.00  0.00    +0.022 C 
ATOM     14  C   UNL     1     -10.036   6.261  69.551  0.00  0.00    +0.079 C 
ATOM     15  C   UNL     1      -9.148   6.475  70.768  0.00  0.00    +0.022 C 
ATOM     16  C   UNL     1      -9.981   4.801  69.142  0.00  0.00    +0.022 C 
ENDBRANCH  10  14
ENDBRANCH   4  11
BRANCH   8  17
ATOM     17  C   UNL     1      -6.672   9.370  65.779  0.00  0.00    +0.101 C 
BRANCH  17  18
ATOM     18  C   UNL     1      -5.555  10.325  65.505  0.00  0.00    +0.013 A 
ATOM     19  C   UNL     1      -5.236  10.691  64.203  0.00  0.00    +0.096 A 
ATOM     20  N   UNL     1      -4.056  11.203  63.847  0.00  0.00    -0.243 NA
ATOM     21  C   UNL     1      -3.076  11.301  64.774  0.00  0.00    +0.099 A 
ATOM     22  C   UNL     1      -3.454  11.223  66.085  0.00  0.00    +0.020 A 
ATOM     23  C   UNL     1      -4.699  10.776  66.486  0.00  0.00    +0.000 A 
ENDBRANCH  17  18
ENDBRANCH   8  17
ENDBRANCH   3   5
ENDBRANCH   1   3
BRANCH   1  24
ATOM     24  C   UNL     1     -10.733  12.391  68.602  0.00  0.00    +0.044 C 
BRANCH  24  25
ATOM     25  C   UNL     1     -11.820  13.649  68.536  0.00  0.00    +0.085 C 
BRANCH  25  26
ATOM     26  C   UNL     1     -11.054  14.380  67.299  0.00  0.00    +0.242 C 
ATOM     27  N   UNL     1     -10.011  15.308  67.654  0.00  0.00    -0.200 NA
ATOM     28  O   UNL     1     -12.049  14.944  66.732  0.00  0.00    -0.273 OA
BRANCH  27  29
ATOM     29  C   UNL     1      -9.695  16.055  66.285  0.00  0.00    +0.148 C 
ATOM     30  C   UNL     1      -7.997  16.311  66.607  0.00  0.00    +0.180 C 
ATOM     31  O   UNL     1      -7.774  14.839  66.964  0.00  0.00    -0.221 OA
ATOM     32  C   UNL     1      -8.295  16.721  68.182  0.00  0.00    +0.061 C 
ATOM     33  C   UNL     1      -9.242  17.781  67.874  0.00  0.00    -0.022 A 
ATOM     34  C   UNL     1      -9.237  19.094  68.336  0.00  0.00    -0.004 A 
ATOM     35  C   UNL     1      -9.957  20.093  67.730  0.00  0.00    -0.000 A 
ATOM     36  C   UNL     1     -10.493  19.795  66.482  0.00  0.00    -0.000 A 
ATOM     37  C   UNL     1     -10.410  18.507  65.965  0.00  0.00    -0.003 A 
ATOM     38  C   UNL     1     -10.082  17.509  66.873  0.00  0.00    -0.004 A 
ENDBRANCH  27  29
ENDBRANCH  25  26
BRANCH  25  39
ATOM     39  C   UNL     1     -11.045  14.494  69.719  0.00  0.00    +0.036 C 
BRANCH  39  40
ATOM     40  C   UNL     1     -11.844  14.608  70.888  0.00  0.00    -0.022 A 
ATOM     41  C   UNL     1     -11.755  15.860  71.502  0.00  0.00    -0.004 A 
ATOM     42  C   UNL     1     -12.252  16.091  72.773  0.00  0.00    -0.000 A 
ATOM     43  C   UNL     1     -12.950  15.065  73.398  0.00  0.00    -0.000 A 
ATOM     44  C   UNL     1     -13.494  14.073  72.590  0.00  0.00    -0.000 A 
ATOM     45  C   UNL     1     -12.838  13.854  71.413  0.00  0.00    -0.004 A 
ENDBRANCH  39  40
ENDBRANCH  25  39
ENDBRANCH  24  25
ENDBRANCH   1  24
TORSDOF 12
ENDMDL
MODEL 2
REMARK VINA RESULT:      -7.6      2.547      5.504
REMARK  Name = 
REMARK  12 active torsions:
REMARK  status: ('A' for Active; 'I' for Inactive)
REMARK    1  A    between atoms: C_2  and  N_5
REMARK    2  A    between atoms: C_6  and  C_8
REMARK    3  A    between atoms: N_10  and  C_11
REMARK    4  A    between atoms: C_11  and  C_12
REMARK    5  A    between atoms: N_20  and  C_21
REMARK    6  A    between atoms: C_21  and  C_22
REMARK    7  A    between atoms: C_22  and  C_24
REMARK    8  A    between atoms: C_24  and  C_25
REMARK    9  A    between atoms: C_25  and  C_26
REMARK   10  A    between atoms: C_25  and  C_33
REMARK   11  A    between atoms: C_26  and  C_27
REMARK   12  A    between atoms: N_35  and  C_36
REMARK                            x       y       z     vdW  Elec       q    Type
REMARK                         _______ _______ _______ _____ _____    ______ ____
ROOT
ATOM      1  C   UNL     1      -6.906  12.074  68.084  0.00  0.00    +0.168 C 
ATOM      2  O   UNL     1      -6.024  11.697  66.871  0.00  0.00    -0.222 OA
ENDROOT
BRANCH   1   3
ATOM      3  C   UNL     1      -8.278  11.640  67.234  0.00  0.00    +0.106 C 
BRANCH   3   5
ATOM      4  C   UNL     1      -9.753   9.807  66.686  0.00  0.00    +0.153 C 
ATOM      5  N   UNL     1      -8.265  10.274  67.018  0.00  0.00    -0.262 NA
ATOM      6  C   UNL     1      -8.033   9.432  68.179  0.00  0.00    +0.090 C 
ATOM      7  C   UNL     1      -8.664  10.106  69.392  0.00  0.00    +0.090 C 
ATOM      8  N   UNL     1     -10.074  10.151  69.106  0.00  0.00    -0.266 NA
ATOM      9  C   UNL     1     -10.399  10.798  67.868  0.00  0.00    +0.098 C 
BRANCH   4  11
ATOM     10  N   UNL     1     -11.230  11.559  65.731  0.00  0.00    -0.208 NA
ATOM     11  C   UNL     1      -9.936  10.966  65.539  0.00  0.00    +0.257 C 
ATOM     12  O   UNL     1      -9.880  10.309  64.455  0.00  0.00    -0.272 OA
BRANCH  10  14
ATOM     13  C   UNL     1     -10.624  13.076  64.152  0.00  0.00    +0.022 C 
ATOM     14  C   UNL     1     -11.642  12.521  64.712  0.00  0.00    +0.079 C 
ATOM     15  C   UNL     1     -12.493  13.534  65.465  0.00  0.00    +0.022 C 
ATOM     16  C   UNL     1     -12.512  11.776  63.718  0.00  0.00    +0.022 C 
ENDBRANCH  10  14
ENDBRANCH   4  11
BRANCH   8  17
ATOM     17  C   UNL     1     -10.753   8.908  69.306  0.00  0.00    +0.101 C 
BRANCH  17  18
ATOM     18  C   UNL     1     -11.582   9.022  70.544  0.00  0.00    +0.013 A 
ATOM     19  C   UNL     1     -12.055   7.886  71.190  0.00  0.00    +0.096 A 
ATOM     20  N   UNL     1     -13.087   7.892  72.036  0.00  0.00    -0.243 NA
ATOM     21  C   UNL     1     -13.775   9.042  72.224  0.00  0.00    +0.099 A 
ATOM     22  C   UNL     1     -13.163  10.200  71.837  0.00  0.00    +0.020 A 
ATOM     23  C   UNL     1     -12.041  10.227  71.028  0.00  0.00    +0.000 A 
ENDBRANCH  17  18
ENDBRANCH   8  17
ENDBRANCH   3   5
ENDBRANCH   1   3
BRANCH   1  24
ATOM     24  C   UNL     1      -6.917  13.687  67.603  0.00  0.00    +0.044 C 
BRANCH  24  25
ATOM     25  C   UNL     1      -8.567  13.831  67.441  0.00  0.00    +0.085 C 
BRANCH  25  26
ATOM     26  C   UNL     1      -8.460  15.099  66.424  0.00  0.00    +0.242 C 
ATOM     27  N   UNL     1      -7.608  16.182  66.845  0.00  0.00    -0.200 NA
ATOM     28  O   UNL     1      -9.691  15.431  66.362  0.00  0.00    -0.273 OA
BRANCH  27  29
ATOM     29  C   UNL     1      -7.959  17.350  65.822  0.00  0.00    +0.148 C 
ATOM     30  C   UNL     1      -6.608  18.373  66.246  0.00  0.00    +0.180 C 
ATOM     31  O   UNL     1      -5.604  17.229  66.079  0.00  0.00    -0.221 OA
ATOM     32  C   UNL     1      -6.801  18.063  67.860  0.00  0.00    +0.061 C 
ATOM     33  C   UNL     1      -8.194  18.477  67.916  0.00  0.00    -0.022 A 
ATOM     34  C   UNL     1      -8.785  19.373  68.801  0.00  0.00    -0.004 A 
ATOM     35  C   UNL     1     -10.007  19.951  68.561  0.00  0.00    -0.000 A 
ATOM     36  C   UNL     1     -10.517  19.801  67.276  0.00  0.00    -0.000 A 
ATOM     37  C   UNL     1      -9.874  18.987  66.351  0.00  0.00    -0.003 A 
ATOM     38  C   UNL     1      -8.931  18.108  66.867  0.00  0.00    -0.004 A 
ENDBRANCH  27  29
ENDBRANCH  25  26
BRANCH  25  39
ATOM     39  C   UNL     1      -8.708  14.741  68.807  0.00  0.00    +0.036 C 
BRANCH  39  40
ATOM     40  C   UNL     1     -10.042  14.742  69.297  0.00  0.00    -0.022 A 
ATOM     41  C   UNL     1     -10.451  15.983  69.793  0.00  0.00    -0.004 A 
ATOM     42  C   UNL     1     -11.610  16.132  70.534  0.00  0.00    -0.000 A 
ATOM     43  C   UNL     1     -12.433  15.023  70.691  0.00  0.00    -0.000 A 
ATOM     44  C   UNL     1     -12.307  13.994  69.764  0.00  0.00    -0.000 A 
ATOM     45  C   UNL     1     -11.074  13.873  69.189  0.00  0.00    -0.004 A 
ENDBRANCH  39  40
ENDBRANCH  25  39
ENDBRANCH  24  25
ENDBRANCH   1  24
TORSDOF 12
ENDMDL
MODEL 3
REMARK VINA RESULT:      -7.5      2.322      3.377
REMARK  Name = 
REMARK  12 active torsions:
REMARK  status: ('A' for Active; 'I' for Inactive)
REMARK    1  A    between atoms: C_2  and  N_5
REMARK    2  A    between atoms: C_6  and  C_8
REMARK    3  A    between atoms: N_10  and  C_11
REMARK    4  A    between atoms: C_11  and  C_12
REMARK    5  A    between atoms: N_20  and  C_21
REMARK    6  A    between atoms: C_21  and  C_22
REMARK    7  A    between atoms: C_22  and  C_24
REMARK    8  A    between atoms: C_24  and  C_25
REMARK    9  A    between atoms: C_25  and  C_26
REMARK   10  A    between atoms: C_25  and  C_33
REMARK   11  A    between atoms: C_26  and  C_27
REMARK   12  A    between atoms: N_35  and  C_36
REMARK                            x       y       z     vdW  Elec       q    Type
REMARK                         _______ _______ _______ _____ _____    ______ ____
ROOT
ATOM      1  C   UNL     1     -11.167  14.309  66.534  0.00  0.00    +0.168 C 
ATOM      2  O   UNL     1     -12.424  13.701  67.199  0.00  0.00    -0.222 OA
ENDROOT
BRANCH   1   3
ATOM      3  C   UNL     1     -10.521  12.781  66.334  0.00  0.00    +0.106 C 
BRANCH   3   5
ATOM      4  C   UNL     1     -10.880  10.482  65.683  0.00  0.00    +0.153 C 
ATOM      5  N   UNL     1     -11.460  11.967  65.726  0.00  0.00    -0.262 NA
ATOM      6  C   UNL     1     -11.662  12.157  64.300  0.00  0.00    +0.090 C 
ATOM      7  C   UNL     1     -10.327  12.547  63.675  0.00  0.00    +0.090 C 
ATOM      8  N   UNL     1      -9.466  11.413  63.892  0.00  0.00    -0.266 NA
ATOM      9  C   UNL     1      -9.353  11.019  65.265  0.00  0.00    +0.098 C 
BRANCH   4  11
ATOM     10  N   UNL     1      -9.656   9.380  67.540  0.00  0.00    -0.208 NA
ATOM     11  C   UNL     1     -10.510  10.505  67.281  0.00  0.00    +0.257 C 
ATOM     12  O   UNL     1     -11.642  10.371  67.840  0.00  0.00    -0.272 OA
BRANCH  10  14
ATOM     13  C   UNL     1      -9.257  10.246  69.602  0.00  0.00    +0.022 C 
ATOM     14  C   UNL     1      -9.332   9.142  68.944  0.00  0.00    +0.079 C 
ATOM     15  C   UNL     1      -7.995   8.415  68.909  0.00  0.00    +0.022 C 
ATOM     16  C   UNL     1     -10.393   8.211  69.498  0.00  0.00    +0.022 C 
ENDBRANCH  10  14
ENDBRANCH   4  11
BRANCH   8  17
ATOM     17  C   UNL     1      -9.694  10.325  62.992  0.00  0.00    +0.101 C 
BRANCH  17  18
ATOM     18  C   UNL     1      -8.413  10.030  62.281  0.00  0.00    +0.013 A 
ATOM     19  C   UNL     1      -7.645   8.926  62.629  0.00  0.00    +0.096 A 
ATOM     20  N   UNL     1      -6.347   8.805  62.337  0.00  0.00    -0.243 NA
ATOM     21  C   UNL     1      -5.709   9.841  61.745  0.00  0.00    +0.099 A 
ATOM     22  C   UNL     1      -6.490  10.789  61.148  0.00  0.00    +0.020 A 
ATOM     23  C   UNL     1      -7.852  10.891  61.363  0.00  0.00    +0.000 A 
ENDBRANCH  17  18
ENDBRANCH   8  17
ENDBRANCH   3   5
ENDBRANCH   1   3
BRANCH   1  24
ATOM     24  C   UNL     1     -10.474  14.585  68.044  0.00  0.00    +0.044 C 
BRANCH  24  25
ATOM     25  C   UNL     1     -11.488  15.823  68.500  0.00  0.00    +0.085 C 
BRANCH  25  26
ATOM     26  C   UNL     1     -10.551  16.974  67.831  0.00  0.00    +0.242 C 
ATOM     27  N   UNL     1      -9.128  16.789  67.956  0.00  0.00    -0.200 NA
ATOM     28  O   UNL     1     -10.976  17.996  68.467  0.00  0.00    -0.273 OA
BRANCH  27  29
ATOM     29  C   UNL     1      -8.528  18.189  67.496  0.00  0.00    +0.148 C 
ATOM     30  C   UNL     1      -7.275  17.523  66.478  0.00  0.00    +0.180 C 
ATOM     31  O   UNL     1      -8.264  16.620  65.737  0.00  0.00    -0.221 OA
ATOM     32  C   UNL     1      -6.918  16.345  67.584  0.00  0.00    +0.061 C 
ATOM     33  C   UNL     1      -6.679  17.259  68.690  0.00  0.00    -0.022 A 
ATOM     34  C   UNL     1      -5.573  17.312  69.532  0.00  0.00    -0.004 A 
ATOM     35  C   UNL     1      -5.287  18.408  70.308  0.00  0.00    -0.000 A 
ATOM     36  C   UNL     1      -6.007  19.565  70.029  0.00  0.00    -0.000 A 
ATOM     37  C   UNL     1      -7.049  19.545  69.109  0.00  0.00    -0.003 A 
ATOM     38  C   UNL     1      -7.526  18.288  68.759  0.00  0.00    -0.004 A 
ENDBRANCH  27  29
ENDBRANCH  25  26
BRANCH  25  39
ATOM     39  C   UNL     1     -10.820  15.933  70.002  0.00  0.00    +0.036 C 
BRANCH  39  40
ATOM     40  C   UNL     1     -11.801  15.797  71.020  0.00  0.00    -0.022 A 
ATOM     41  C   UNL     1     -12.877  14.985  70.650  0.00  0.00    -0.004 A 
ATOM     42  C   UNL     1     -14.042  14.927  71.395  0.00  0.00    -0.000 A 
ATOM     43  C   UNL     1     -14.085  15.622  72.597  0.00  0.00    -0.000 A 
ATOM     44  C   UNL     1     -12.873  15.944  73.196  0.00  0.00    -0.000 A 
ATOM     45  C   UNL     1     -11.820  16.095  72.341  0.00  0.00    -0.004 A 
ENDBRANCH  39  40
ENDBRANCH  25  39
ENDBRANCH  24  25
ENDBRANCH   1  24
TORSDOF 12
ENDMDL
MODEL 4
REMARK VINA RESULT:      -7.5      3.328      7.795
REMARK  Name = 
REMARK  12 active torsions:
REMARK  status: ('A' for Active; 'I' for Inactive)
REMARK    1  A    between atoms: C_2  and  N_5
REMARK    2  A    between atoms: C_6  and  C_8
REMARK    3  A    between atoms: N_10  and  C_11
REMARK    4  A    between atoms: C_11  and  C_12
REMARK    5  A    between atoms: N_20  and  C_21
REMARK    6  A    between atoms: C_21  and  C_22
REMARK    7  A    between atoms: C_22  and  C_24
REMARK    8  A    between atoms: C_24  and  C_25
REMARK    9  A    between atoms: C_25  and  C_26
REMARK   10  A    between atoms: C_25  and  C_33
REMARK   11  A    between atoms: C_26  and  C_27
REMARK   12  A    between atoms: N_35  and  C_36
REMARK                            x       y       z     vdW  Elec       q    Type
REMARK                         _______ _______ _______ _____ _____    ______ ____
ROOT
ATOM      1  C   UNL     1     -10.477  17.279  68.011  0.00  0.00    +0.168 C 
ATOM      2  O   UNL     1     -10.204  17.722  66.554  0.00  0.00    -0.222 OA
ENDROOT
BRANCH   1   3
ATOM      3  C   UNL     1      -8.857  17.462  68.380  0.00  0.00    +0.106 C 
BRANCH   3   5
ATOM      4  C   UNL     1      -6.670  17.990  67.501  0.00  0.00    +0.153 C 
ATOM      5  N   UNL     1      -8.246  18.204  67.386  0.00  0.00    -0.262 NA
ATOM      6  C   UNL     1      -8.276  19.648  67.538  0.00  0.00    +0.090 C 
ATOM      7  C   UNL     1      -8.200  19.974  69.025  0.00  0.00    +0.090 C 
ATOM      8  N   UNL     1      -6.921  19.472  69.455  0.00  0.00    -0.266 NA
ATOM      9  C   UNL     1      -6.712  18.083  69.170  0.00  0.00    +0.098 C 
BRANCH   4  11
ATOM     10  N   UNL     1      -6.126  15.884  68.698  0.00  0.00    -0.208 NA
ATOM     11  C   UNL     1      -6.823  16.357  67.534  0.00  0.00    +0.257 C 
ATOM     12  O   UNL     1      -6.245  15.993  66.464  0.00  0.00    -0.272 OA
BRANCH  10  14
ATOM     13  C   UNL     1      -7.012  13.840  68.253  0.00  0.00    +0.022 C 
ATOM     14  C   UNL     1      -6.024  14.433  68.827  0.00  0.00    +0.079 C 
ATOM     15  C   UNL     1      -6.012  14.184  70.329  0.00  0.00    +0.022 C 
ATOM     16  C   UNL     1      -4.686  14.025  68.241  0.00  0.00    +0.022 C 
ENDBRANCH  10  14
ENDBRANCH   4  11
BRANCH   8  17
ATOM     17  C   UNL     1      -5.815  20.308  69.103  0.00  0.00    +0.101 C 
BRANCH  17  18
ATOM     18  C   UNL     1      -4.701  20.039  70.063  0.00  0.00    +0.013 A 
ATOM     19  C   UNL     1      -4.885  20.207  71.430  0.00  0.00    +0.096 A 
ATOM     20  N   UNL     1      -3.883  20.369  72.297  0.00  0.00    -0.243 NA
ATOM     21  C   UNL     1      -2.618  20.459  71.827  0.00  0.00    +0.099 A 
ATOM     22  C   UNL     1      -2.396  20.014  70.555  0.00  0.00    +0.020 A 
ATOM     23  C   UNL     1      -3.415  19.757  69.657  0.00  0.00    +0.000 A 
ENDBRANCH  17  18
ENDBRANCH   8  17
ENDBRANCH   3   5
ENDBRANCH   1   3
BRANCH   1  24
ATOM     24  C   UNL     1     -10.363  15.660  67.563  0.00  0.00    +0.044 C 
BRANCH  24  25
ATOM     25  C   UNL     1     -10.544  15.023  69.090  0.00  0.00    +0.085 C 
BRANCH  25  26
ATOM     26  C   UNL     1     -11.383  13.730  68.562  0.00  0.00    +0.242 C 
ATOM     27  N   UNL     1     -10.607  12.650  68.009  0.00  0.00    -0.200 NA
ATOM     28  O   UNL     1     -12.132  14.297  67.698  0.00  0.00    -0.273 OA
BRANCH  27  29
ATOM     29  C   UNL     1     -11.701  11.719  67.324  0.00  0.00    +0.148 C 
ATOM     30  C   UNL     1     -10.770  10.244  67.425  0.00  0.00    +0.180 C 
ATOM     31  O   UNL     1     -10.488  10.445  68.917  0.00  0.00    -0.221 OA
ATOM     32  C   UNL     1      -9.377  11.020  66.984  0.00  0.00    +0.061 C 
ATOM     33  C   UNL     1      -9.910  11.573  65.749  0.00  0.00    -0.022 A 
ATOM     34  C   UNL     1      -9.364  11.495  64.471  0.00  0.00    -0.004 A 
ATOM     35  C   UNL     1     -10.098  11.742  63.338  0.00  0.00    -0.000 A 
ATOM     36  C   UNL     1     -11.477  11.826  63.503  0.00  0.00    -0.000 A 
ATOM     37  C   UNL     1     -12.040  11.799  64.774  0.00  0.00    -0.003 A 
ATOM     38  C   UNL     1     -11.165  12.019  65.830  0.00  0.00    -0.004 A 
ENDBRANCH  27  29
ENDBRANCH  25  26
BRANCH  25  39
ATOM     39  C   UNL     1     -11.870  15.946  69.411  0.00  0.00    +0.036 C 
BRANCH  39  40
ATOM     40  C   UNL     1     -12.272  15.828  70.769  0.00  0.00    -0.022 A 
ATOM     41  C   UNL     1     -13.534  15.248  70.926  0.00  0.00    -0.004 A 
ATOM     42  C   UNL     1     -14.206  15.271  72.135  0.00  0.00    -0.000 A 
ATOM     43  C   UNL     1     -13.548  15.796  73.240  0.00  0.00    -0.000 A 
ATOM     44  C   UNL     1     -12.159  15.844  73.196  0.00  0.00    -0.000 A 
ATOM     45  C   UNL     1     -11.617  15.945  71.948  0.00  0.00    -0.004 A 
ENDBRANCH  39  40
ENDBRANCH  25  39
ENDBRANCH  24  25
ENDBRANCH   1  24
TORSDOF 12
ENDMDL
MODEL 5
REMARK VINA RESULT:      -7.4      1.821      2.333
REMARK  Name = 
REMARK  12 active torsions:
REMARK  status: ('A' for Active; 'I' for Inactive)
REMARK    1  A    between atoms: C_2  and  N_5
REMARK    2  A    between atoms: C_6  and  C_8
REMARK    3  A    between atoms: N_10  and  C_11
REMARK    4  A    between atoms: C_11  and  C_12
REMARK    5  A    between atoms: N_20  and  C_21
REMARK    6  A    between atoms: C_21  and  C_22
REMARK    7  A    between atoms: C_22  and  C_24
REMARK    8  A    between atoms: C_24  and  C_25
REMARK    9  A    between atoms: C_25  and  C_26
REMARK   10  A    between atoms: C_25  and  C_33
REMARK   11  A    between atoms: C_26  and  C_27
REMARK   12  A    between atoms: N_35  and  C_36
REMARK                            x       y       z     vdW  Elec       q    Type
REMARK                         _______ _______ _______ _____ _____    ______ ____
ROOT
ATOM      1  C   UNL     1     -11.403  11.011  67.834  0.00  0.00    +0.168 C 
ATOM      2  O   UNL     1     -12.408  11.019  69.009  0.00  0.00    -0.222 OA
ENDROOT
BRANCH   1   3
ATOM      3  C   UNL     1     -10.563   9.755  68.547  0.00  0.00    +0.106 C 
BRANCH   3   5
ATOM      4  C   UNL     1      -9.858   7.447  68.440  0.00  0.00    +0.153 C 
ATOM      5  N   UNL     1     -10.553   8.671  67.690  0.00  0.00    -0.262 NA
ATOM      6  C   UNL     1      -9.663   8.751  66.545  0.00  0.00    +0.090 C 
ATOM      7  C   UNL     1      -8.420   9.532  66.960  0.00  0.00    +0.090 C 
ATOM      8  N   UNL     1      -7.806   8.738  67.992  0.00  0.00    -0.266 NA
ATOM      9  C   UNL     1      -8.674   8.433  69.091  0.00  0.00    +0.098 C 
BRANCH   4  11
ATOM     10  N   UNL     1      -9.970   7.482  70.920  0.00  0.00    -0.208 NA
ATOM     11  C   UNL     1     -10.811   7.626  69.764  0.00  0.00    +0.257 C 
ATOM     12  O   UNL     1     -11.630   6.663  69.659  0.00  0.00    -0.272 OA
BRANCH  10  14
ATOM     13  C   UNL     1     -11.630   8.313  72.229  0.00  0.00    +0.022 C 
ATOM     14  C   UNL     1     -10.662   7.464  72.206  0.00  0.00    +0.079 C 
ATOM     15  C   UNL     1      -9.584   7.810  73.223  0.00  0.00    +0.022 C 
ATOM     16  C   UNL     1     -11.135   6.043  72.442  0.00  0.00    +0.022 C 
ENDBRANCH  10  14
ENDBRANCH   4  11
BRANCH   8  17
ATOM     17  C   UNL     1      -7.070   7.612  67.505  0.00  0.00    +0.101 C 
BRANCH  17  18
ATOM     18  C   UNL     1      -5.676   7.699  68.037  0.00  0.00    +0.013 A 
ATOM     19  C   UNL     1      -5.216   6.784  68.976  0.00  0.00    +0.096 A 
ATOM     20  N   UNL     1      -4.167   7.006  69.772  0.00  0.00    -0.243 NA
ATOM     21  C   UNL     1      -3.558   8.213  69.735  0.00  0.00    +0.099 A 
ATOM     22  C   UNL     1      -3.803   8.996  68.643  0.00  0.00    +0.020 A 
ATOM     23  C   UNL     1      -4.830   8.749  67.751  0.00  0.00    +0.000 A 
ENDBRANCH  17  18
ENDBRANCH   8  17
ENDBRANCH   3   5
ENDBRANCH   1   3
BRANCH   1  24
ATOM     24  C   UNL     1     -10.511  12.241  68.560  0.00  0.00    +0.044 C 
BRANCH  24  25
ATOM     25  C   UNL     1     -11.685  13.416  68.464  0.00  0.00    +0.085 C 
BRANCH  25  26
ATOM     26  C   UNL     1     -10.936  14.210  67.255  0.00  0.00    +0.242 C 
ATOM     27  N   UNL     1      -9.997  15.229  67.647  0.00  0.00    -0.200 NA
ATOM     28  O   UNL     1     -11.953  14.681  66.643  0.00  0.00    -0.273 OA
BRANCH  27  29
ATOM     29  C   UNL     1      -9.692  15.997  66.288  0.00  0.00    +0.148 C 
ATOM     30  C   UNL     1      -7.997  16.269  66.610  0.00  0.00    +0.180 C 
ATOM     31  O   UNL     1      -7.756  14.794  66.947  0.00  0.00    -0.221 OA
ATOM     32  C   UNL     1      -8.296  16.654  68.191  0.00  0.00    +0.061 C 
ATOM     33  C   UNL     1      -9.256  17.707  67.899  0.00  0.00    -0.022 A 
ATOM     34  C   UNL     1      -9.265  19.014  68.378  0.00  0.00    -0.004 A 
ATOM     35  C   UNL     1      -9.998  20.012  67.786  0.00  0.00    -0.000 A 
ATOM     36  C   UNL     1     -10.533  19.725  66.535  0.00  0.00    -0.000 A 
ATOM     37  C   UNL     1     -10.436  18.445  66.002  0.00  0.00    -0.003 A 
ATOM     38  C   UNL     1     -10.094  17.439  66.896  0.00  0.00    -0.004 A 
ENDBRANCH  27  29
ENDBRANCH  25  26
BRANCH  25  39
ATOM     39  C   UNL     1     -11.012  14.309  69.674  0.00  0.00    +0.036 C 
BRANCH  39  40
ATOM     40  C   UNL     1     -11.888  14.424  70.786  0.00  0.00    -0.022 A 
ATOM     41  C   UNL     1     -11.916  15.706  71.341  0.00  0.00    -0.004 A 
ATOM     42  C   UNL     1     -12.506  15.962  72.567  0.00  0.00    -0.000 A 
ATOM     43  C   UNL     1     -13.177  14.923  73.200  0.00  0.00    -0.000 A 
ATOM     44  C   UNL     1     -13.605  13.862  72.412  0.00  0.00    -0.000 A 
ATOM     45  C   UNL     1     -12.865  13.632  71.288  0.00  0.00    -0.004 A 
ENDBRANCH  39  40
ENDBRANCH  25  39
ENDBRANCH  24  25
ENDBRANCH   1  24
TORSDOF 12
ENDMDL
MODEL 6
REMARK VINA RESULT:      -7.4      1.810      5.099
REMARK  Name = 
REMARK  12 active torsions:
REMARK  status: ('A' for Active; 'I' for Inactive)
REMARK    1  A    between atoms: C_2  and  N_5
REMARK    2  A    between atoms: C_6  and  C_8
REMARK    3  A    between atoms: N_10  and  C_11
REMARK    4  A    between atoms: C_11  and  C_12
REMARK    5  A    between atoms: N_20  and  C_21
REMARK    6  A    between atoms: C_21  and  C_22
REMARK    7  A    between atoms: C_22  and  C_24
REMARK    8  A    between atoms: C_24  and  C_25
REMARK    9  A    between atoms: C_25  and  C_26
REMARK   10  A    between atoms: C_25  and  C_33
REMARK   11  A    between atoms: C_26  and  C_27
REMARK   12  A    between atoms: N_35  and  C_36
REMARK                            x       y       z     vdW  Elec       q    Type
REMARK                         _______ _______ _______ _____ _____    ______ ____
ROOT
ATOM      1  C   UNL     1     -11.127  11.243  67.550  0.00  0.00    +0.168 C 
ATOM      2  O   UNL     1     -12.407  11.163  68.414  0.00  0.00    -0.222 OA
ENDROOT
BRANCH   1   3
ATOM      3  C   UNL     1     -10.525   9.875  68.298  0.00  0.00    +0.106 C 
BRANCH   3   5
ATOM      4  C   UNL     1      -8.645   9.374  69.730  0.00  0.00    +0.153 C 
ATOM      5  N   UNL     1      -9.975  10.229  69.516  0.00  0.00    -0.262 NA
ATOM      6  C   UNL     1     -10.693   9.805  70.705  0.00  0.00    +0.090 C 
ATOM      7  C   UNL     1     -11.347   8.459  70.414  0.00  0.00    +0.090 C 
ATOM      8  N   UNL     1     -10.252   7.556  70.167  0.00  0.00    -0.266 NA
ATOM      9  C   UNL     1      -9.362   7.987  69.130  0.00  0.00    +0.098 C 
BRANCH   4  11
ATOM     10  N   UNL     1      -7.479   8.595  67.682  0.00  0.00    -0.208 NA
ATOM     11  C   UNL     1      -8.063   9.778  68.251  0.00  0.00    +0.257 C 
ATOM     12  O   UNL     1      -7.181  10.651  68.519  0.00  0.00    -0.272 OA
BRANCH  10  14
ATOM     13  C   UNL     1      -7.216   9.813  65.782  0.00  0.00    +0.022 C 
ATOM     14  C   UNL     1      -6.773   8.785  66.418  0.00  0.00    +0.079 C 
ATOM     15  C   UNL     1      -7.021   7.496  65.646  0.00  0.00    +0.022 C 
ATOM     16  C   UNL     1      -5.296   8.898  66.742  0.00  0.00    +0.022 C 
ENDBRANCH  10  14
ENDBRANCH   4  11
BRANCH   8  17
ATOM     17  C   UNL     1      -9.589   7.102  71.350  0.00  0.00    +0.101 C 
BRANCH  17  18
ATOM     18  C   UNL     1     -10.165   5.776  71.730  0.00  0.00    +0.013 A 
ATOM     19  C   UNL     1     -11.065   5.669  72.783  0.00  0.00    +0.096 A 
ATOM     20  N   UNL     1     -11.318   4.526  73.426  0.00  0.00    -0.243 NA
ATOM     21  C   UNL     1     -10.609   3.420  73.102  0.00  0.00    +0.099 A 
ATOM     22  C   UNL     1      -9.950   3.436  71.906  0.00  0.00    +0.020 A 
ATOM     23  C   UNL     1      -9.742   4.589  71.173  0.00  0.00    +0.000 A 
ENDBRANCH  17  18
ENDBRANCH   8  17
ENDBRANCH   3   5
ENDBRANCH   1   3
BRANCH   1  24
ATOM     24  C   UNL     1     -10.440  12.337  68.630  0.00  0.00    +0.044 C 
BRANCH  24  25
ATOM     25  C   UNL     1     -11.631  13.494  68.519  0.00  0.00    +0.085 C 
BRANCH  25  26
ATOM     26  C   UNL     1     -10.901  14.275  67.290  0.00  0.00    +0.242 C 
ATOM     27  N   UNL     1      -9.908  15.252  67.657  0.00  0.00    -0.200 NA
ATOM     28  O   UNL     1     -11.922  14.792  66.725  0.00  0.00    -0.273 OA
BRANCH  27  29
ATOM     29  C   UNL     1      -9.628  16.026  66.295  0.00  0.00    +0.148 C 
ATOM     30  C   UNL     1      -7.935  16.329  66.605  0.00  0.00    +0.180 C 
ATOM     31  O   UNL     1      -7.664  14.860  66.940  0.00  0.00    -0.221 OA
ATOM     32  C   UNL     1      -8.231  16.709  68.189  0.00  0.00    +0.061 C 
ATOM     33  C   UNL     1      -9.213  17.744  67.903  0.00  0.00    -0.022 A 
ATOM     34  C   UNL     1      -9.243  19.050  68.383  0.00  0.00    -0.004 A 
ATOM     35  C   UNL     1      -9.999  20.034  67.796  0.00  0.00    -0.000 A 
ATOM     36  C   UNL     1     -10.538  19.737  66.549  0.00  0.00    -0.000 A 
ATOM     37  C   UNL     1     -10.420  18.459  66.015  0.00  0.00    -0.003 A 
ATOM     38  C   UNL     1     -10.053  17.460  66.906  0.00  0.00    -0.004 A 
ENDBRANCH  27  29
ENDBRANCH  25  26
BRANCH  25  39
ATOM     39  C   UNL     1     -10.964  14.419  69.708  0.00  0.00    +0.036 C 
BRANCH  39  40
ATOM     40  C   UNL     1     -11.833  14.539  70.825  0.00  0.00    -0.022 A 
ATOM     41  C   UNL     1     -11.666  15.733  71.532  0.00  0.00    -0.004 A 
ATOM     42  C   UNL     1     -12.232  15.932  72.779  0.00  0.00    -0.000 A 
ATOM     43  C   UNL     1     -13.074  14.947  73.280  0.00  0.00    -0.000 A 
ATOM     44  C   UNL     1     -13.651  14.071  72.368  0.00  0.00    -0.000 A 
ATOM     45  C   UNL     1     -12.934  13.861  71.225  0.00  0.00    -0.004 A 
ENDBRANCH  39  40
ENDBRANCH  25  39
ENDBRANCH  24  25
ENDBRANCH   1  24
TORSDOF 12
ENDMDL
MODEL 7
REMARK VINA RESULT:      -7.4      2.767      8.873
REMARK  Name = 
REMARK  12 active torsions:
REMARK  status: ('A' for Active; 'I' for Inactive)
REMARK    1  A    between atoms: C_2  and  N_5
REMARK    2  A    between atoms: C_6  and  C_8
REMARK    3  A    between atoms: N_10  and  C_11
REMARK    4  A    between atoms: C_11  and  C_12
REMARK    5  A    between atoms: N_20  and  C_21
REMARK    6  A    between atoms: C_21  and  C_22
REMARK    7  A    between atoms: C_22  and  C_24
REMARK    8  A    between atoms: C_24  and  C_25
REMARK    9  A    between atoms: C_25  and  C_26
REMARK   10  A    between atoms: C_25  and  C_33
REMARK   11  A    between atoms: C_26  and  C_27
REMARK   12  A    between atoms: N_35  and  C_36
REMARK                            x       y       z     vdW  Elec       q    Type
REMARK                         _______ _______ _______ _____ _____    ______ ____
ROOT
ATOM      1  C   UNL     1     -10.659  12.003  66.135  0.00  0.00    +0.168 C 
ATOM      2  O   UNL     1      -9.793  12.301  64.889  0.00  0.00    -0.222 OA
ENDROOT
BRANCH   1   3
ATOM      3  C   UNL     1      -9.732  13.054  67.044  0.00  0.00    +0.106 C 
BRANCH   3   5
ATOM      4  C   UNL     1      -9.420  15.342  67.755  0.00  0.00    +0.153 C 
ATOM      5  N   UNL     1      -9.991  14.352  66.643  0.00  0.00    -0.262 NA
ATOM      6  C   UNL     1     -11.379  14.779  66.671  0.00  0.00    +0.090 C 
ATOM      7  C   UNL     1     -12.069  14.085  67.841  0.00  0.00    +0.090 C 
ATOM      8  N   UNL     1     -11.392  14.570  69.016  0.00  0.00    -0.266 NA
ATOM      9  C   UNL     1      -9.973  14.370  68.998  0.00  0.00    +0.098 C 
BRANCH   4  11
ATOM     10  N   UNL     1      -7.426  14.707  69.090  0.00  0.00    -0.208 NA
ATOM     11  C   UNL     1      -7.954  14.605  67.758  0.00  0.00    +0.257 C 
ATOM     12  O   UNL     1      -7.282  15.299  66.935  0.00  0.00    -0.272 OA
BRANCH  10  14
ATOM     13  C   UNL     1      -5.208  15.048  68.738  0.00  0.00    +0.022 C 
ATOM     14  C   UNL     1      -6.055  14.234  69.265  0.00  0.00    +0.079 C 
ATOM     15  C   UNL     1      -6.032  12.874  68.580  0.00  0.00    +0.022 C 
ATOM     16  C   UNL     1      -5.831  14.049  70.753  0.00  0.00    +0.022 C 
ENDBRANCH  10  14
ENDBRANCH   4  11
BRANCH   8  17
ATOM     17  C   UNL     1     -11.788  15.884  69.419  0.00  0.00    +0.101 C 
BRANCH  17  18
ATOM     18  C   UNL     1     -12.427  15.787  70.767  0.00  0.00    +0.013 A 
ATOM     19  C   UNL     1     -11.766  16.245  71.901  0.00  0.00    +0.096 A 
ATOM     20  N   UNL     1     -12.071  15.858  73.141  0.00  0.00    -0.243 NA
ATOM     21  C   UNL     1     -13.016  14.907  73.318  0.00  0.00    +0.099 A 
ATOM     22  C   UNL     1     -13.856  14.666  72.269  0.00  0.00    +0.020 A 
ATOM     23  C   UNL     1     -13.614  15.123  70.987  0.00  0.00    +0.000 A 
ENDBRANCH  17  18
ENDBRANCH   8  17
ENDBRANCH   3   5
ENDBRANCH   1   3
BRANCH   1  24
ATOM     24  C   UNL     1      -9.739  10.634  66.474  0.00  0.00    +0.044 C 
BRANCH  24  25
ATOM     25  C   UNL     1      -9.685  10.840  68.125  0.00  0.00    +0.085 C 
BRANCH  25  26
ATOM     26  C   UNL     1      -8.544   9.698  68.333  0.00  0.00    +0.242 C 
ATOM     27  N   UNL     1      -8.948   8.339  68.078  0.00  0.00    -0.200 NA
ATOM     28  O   UNL     1      -8.250   9.906  69.558  0.00  0.00    -0.273 OA
BRANCH  27  29
ATOM     29  C   UNL     1      -7.742   7.477  68.657  0.00  0.00    +0.148 C 
ATOM     30  C   UNL     1      -8.031   6.071  67.660  0.00  0.00    +0.180 C 
ATOM     31  O   UNL     1      -8.076   6.907  66.378  0.00  0.00    -0.221 OA
ATOM     32  C   UNL     1      -9.668   6.181  67.874  0.00  0.00    +0.061 C 
ATOM     33  C   UNL     1      -9.621   6.162  69.327  0.00  0.00    -0.022 A 
ATOM     34  C   UNL     1     -10.335   5.342  70.196  0.00  0.00    -0.004 A 
ATOM     35  C   UNL     1      -9.973   5.164  71.508  0.00  0.00    -0.000 A 
ATOM     36  C   UNL     1      -8.717   5.637  71.870  0.00  0.00    -0.000 A 
ATOM     37  C   UNL     1      -7.951   6.370  70.971  0.00  0.00    -0.003 A 
ATOM     38  C   UNL     1      -8.626   6.869  69.865  0.00  0.00    -0.004 A 
ENDBRANCH  27  29
ENDBRANCH  25  26
BRANCH  25  39
ATOM     39  C   UNL     1     -10.962   9.830  68.379  0.00  0.00    +0.036 C 
BRANCH  39  40
ATOM     40  C   UNL     1     -11.611  10.111  69.611  0.00  0.00    -0.022 A 
ATOM     41  C   UNL     1     -11.527   9.064  70.534  0.00  0.00    -0.004 A 
ATOM     42  C   UNL     1     -12.295   9.037  71.684  0.00  0.00    -0.000 A 
ATOM     43  C   UNL     1     -13.090  10.141  71.967  0.00  0.00    -0.000 A 
ATOM     44  C   UNL     1     -12.747  11.348  71.368  0.00  0.00    -0.000 A 
ATOM     45  C   UNL     1     -12.098  11.243  70.171  0.00  0.00    -0.004 A 
ENDBRANCH  39  40
ENDBRANCH  25  39
ENDBRANCH  24  25
ENDBRANCH   1  24
TORSDOF 12
ENDMDL
MODEL 8
REMARK VINA RESULT:      -7.3      2.897      9.192
REMARK  Name = 
REMARK  12 active torsions:
REMARK  status: ('A' for Active; 'I' for Inactive)
REMARK    1  A    between atoms: C_2  and  N_5
REMARK    2  A    between atoms: C_6  and  C_8
REMARK    3  A    between atoms: N_10  and  C_11
REMARK    4  A    between atoms: C_11  and  C_12
REMARK    5  A    between atoms: N_20  and  C_21
REMARK    6  A    between atoms: C_21  and  C_22
REMARK    7  A    between atoms: C_22  and  C_24
REMARK    8  A    between atoms: C_24  and  C_25
REMARK    9  A    between atoms: C_25  and  C_26
REMARK   10  A    between atoms: C_25  and  C_33
REMARK   11  A    between atoms: C_26  and  C_27
REMARK   12  A    between atoms: N_35  and  C_36
REMARK                            x       y       z     vdW  Elec       q    Type
REMARK                         _______ _______ _______ _____ _____    ______ ____
ROOT
ATOM      1  C   UNL     1      -7.805  13.064  67.138  0.00  0.00    +0.168 C 
ATOM      2  O   UNL     1      -6.354  13.588  67.237  0.00  0.00    -0.222 OA
ENDROOT
BRANCH   1   3
ATOM      3  C   UNL     1      -8.387  14.547  67.641  0.00  0.00    +0.106 C 
BRANCH   3   5
ATOM      4  C   UNL     1     -10.008  16.314  67.343  0.00  0.00    +0.153 C 
ATOM      5  N   UNL     1      -9.547  14.839  66.947  0.00  0.00    -0.262 NA
ATOM      6  C   UNL     1     -10.746  14.126  67.350  0.00  0.00    +0.090 C 
ATOM      7  C   UNL     1     -10.679  13.892  68.855  0.00  0.00    +0.090 C 
ATOM      8  N   UNL     1     -10.683  15.208  69.440  0.00  0.00    -0.266 NA
ATOM      9  C   UNL     1      -9.642  16.066  68.956  0.00  0.00    +0.098 C 
BRANCH   4  11
ATOM     10  N   UNL     1      -8.336  18.052  67.930  0.00  0.00    -0.208 NA
ATOM     11  C   UNL     1      -8.519  16.935  67.045  0.00  0.00    +0.257 C 
ATOM     12  O   UNL     1      -8.601  17.308  65.834  0.00  0.00    -0.272 OA
BRANCH  10  14
ATOM     13  C   UNL     1      -6.194  18.123  67.176  0.00  0.00    +0.022 C 
ATOM     14  C   UNL     1      -7.121  18.834  67.717  0.00  0.00    +0.079 C 
ATOM     15  C   UNL     1      -6.726  19.311  69.108  0.00  0.00    +0.022 C 
ATOM     16  C   UNL     1      -7.501  20.030  66.866  0.00  0.00    +0.022 C 
ENDBRANCH  10  14
ENDBRANCH   4  11
BRANCH   8  17
ATOM     17  C   UNL     1     -11.972  15.826  69.483  0.00  0.00    +0.101 C 
BRANCH  17  18
ATOM     18  C   UNL     1     -12.529  15.651  70.859  0.00  0.00    +0.013 A 
ATOM     19  C   UNL     1     -11.971  16.321  71.941  0.00  0.00    +0.096 A 
ATOM     20  N   UNL     1     -12.136  15.942  73.211  0.00  0.00    -0.243 NA
ATOM     21  C   UNL     1     -12.810  14.799  73.472  0.00  0.00    +0.099 A 
ATOM     22  C   UNL     1     -13.593  14.300  72.470  0.00  0.00    +0.020 A 
ATOM     23  C   UNL     1     -13.507  14.729  71.159  0.00  0.00    +0.000 A 
ENDBRANCH  17  18
ENDBRANCH   8  17
ENDBRANCH   3   5
ENDBRANCH   1   3
BRANCH   1  24
ATOM     24  C   UNL     1      -7.694  12.398  68.681  0.00  0.00    +0.044 C 
BRANCH  24  25
ATOM     25  C   UNL     1      -6.400  11.398  68.368  0.00  0.00    +0.085 C 
BRANCH  25  26
ATOM     26  C   UNL     1      -7.286  10.039  68.507  0.00  0.00    +0.242 C 
ATOM     27  N   UNL     1      -8.704  10.178  68.294  0.00  0.00    -0.200 NA
ATOM     28  O   UNL     1      -6.994   9.712  69.706  0.00  0.00    -0.273 OA
BRANCH  27  29
ATOM     29  C   UNL     1      -9.294   8.788  68.796  0.00  0.00    +0.148 C 
ATOM     30  C   UNL     1     -10.575   8.698  67.611  0.00  0.00    +0.180 C 
ATOM     31  O   UNL     1      -9.612   8.962  66.451  0.00  0.00    -0.221 OA
ATOM     32  C   UNL     1     -10.926  10.306  67.779  0.00  0.00    +0.061 C 
ATOM     33  C   UNL     1     -11.132  10.255  69.218  0.00  0.00    -0.022 A 
ATOM     34  C   UNL     1     -12.222  10.727  69.943  0.00  0.00    -0.004 A 
ATOM     35  C   UNL     1     -12.478  10.331  71.233  0.00  0.00    -0.000 A 
ATOM     36  C   UNL     1     -11.749   9.242  71.699  0.00  0.00    -0.000 A 
ATOM     37  C   UNL     1     -10.725   8.696  70.933  0.00  0.00    -0.003 A 
ATOM     38  C   UNL     1     -10.271   9.480  69.880  0.00  0.00    -0.004 A 
ENDBRANCH  27  29
ENDBRANCH  25  26
BRANCH  25  39
ATOM     39  C   UNL     1      -5.898  11.416  69.937  0.00  0.00    +0.036 C 
BRANCH  39  40
ATOM     40  C   UNL     1      -5.045  12.522  70.199  0.00  0.00    -0.022 A 
ATOM     41  C   UNL     1      -5.250  13.095  71.457  0.00  0.00    -0.004 A 
ATOM     42  C   UNL     1      -4.704  14.319  71.803  0.00  0.00    -0.000 A 
ATOM     43  C   UNL     1      -3.844  14.931  70.899  0.00  0.00    -0.000 A 
ATOM     44  C   UNL     1      -3.235  14.123  69.946  0.00  0.00    -0.000 A 
ATOM     45  C   UNL     1      -3.933  13.003  69.596  0.00  0.00    -0.004 A 
ENDBRANCH  39  40
ENDBRANCH  25  39
ENDBRANCH  24  25
ENDBRANCH   1  24
TORSDOF 12
ENDMDL
MODEL 9
REMARK VINA RESULT:      -7.2      2.970      9.679
REMARK  Name = 
REMARK  12 active torsions:
REMARK  status: ('A' for Active; 'I' for Inactive)
REMARK    1  A    between atoms: C_2  and  N_5
REMARK    2  A    between atoms: C_6  and  C_8
REMARK    3  A    between atoms: N_10  and  C_11
REMARK    4  A    between atoms: C_11  and  C_12
REMARK    5  A    between atoms: N_20  and  C_21
REMARK    6  A    between atoms: C_21  and  C_22
REMARK    7  A    between atoms: C_22  and  C_24
REMARK    8  A    between atoms: C_24  and  C_25
REMARK    9  A    between atoms: C_25  and  C_26
REMARK   10  A    between atoms: C_25  and  C_33
REMARK   11  A    between atoms: C_26  and  C_27
REMARK   12  A    between atoms: N_35  and  C_36
REMARK                            x       y       z     vdW  Elec       q    Type
REMARK                         _______ _______ _______ _____ _____    ______ ____
ROOT
ATOM      1  C   UNL     1      -8.987  11.655  66.881  0.00  0.00    +0.168 C 
ATOM      2  O   UNL     1      -7.513  11.941  66.510  0.00  0.00    -0.222 OA
ENDROOT
BRANCH   1   3
ATOM      3  C   UNL     1      -9.114  13.166  67.584  0.00  0.00    +0.106 C 
BRANCH   3   5
ATOM      4  C   UNL     1      -9.957  15.421  67.391  0.00  0.00    +0.153 C 
ATOM      5  N   UNL     1     -10.055  13.909  66.894  0.00  0.00    -0.262 NA
ATOM      6  C   UNL     1     -11.448  13.667  67.224  0.00  0.00    +0.090 C 
ATOM      7  C   UNL     1     -11.537  13.330  68.708  0.00  0.00    +0.090 C 
ATOM      8  N   UNL     1     -11.081  14.514  69.389  0.00  0.00    -0.266 NA
ATOM      9  C   UNL     1      -9.778  14.955  68.987  0.00  0.00    +0.098 C 
BRANCH   4  11
ATOM     10  N   UNL     1      -7.767  16.200  68.261  0.00  0.00    -0.208 NA
ATOM     11  C   UNL     1      -8.333  15.466  67.164  0.00  0.00    +0.257 C 
ATOM     12  O   UNL     1      -8.213  16.096  66.069  0.00  0.00    -0.272 OA
BRANCH  10  14
ATOM     13  C   UNL     1      -5.673  15.414  67.864  0.00  0.00    +0.022 C 
ATOM     14  C   UNL     1      -6.336  16.476  68.165  0.00  0.00    +0.079 C 
ATOM     15  C   UNL     1      -5.957  17.005  69.541  0.00  0.00    +0.022 C 
ATOM     16  C   UNL     1      -6.159  17.578  67.139  0.00  0.00    +0.022 C 
ENDBRANCH  10  14
ENDBRANCH   4  11
BRANCH   8  17
ATOM     17  C   UNL     1     -12.052  15.562  69.456  0.00  0.00    +0.101 C 
BRANCH  17  18
ATOM     18  C   UNL     1     -12.584  15.617  70.852  0.00  0.00    +0.013 A 
ATOM     19  C   UNL     1     -11.877  16.266  71.856  0.00  0.00    +0.096 A 
ATOM     20  N   UNL     1     -12.064  16.039  73.158  0.00  0.00    -0.243 NA
ATOM     21  C   UNL     1     -12.927  15.069  73.537  0.00  0.00    +0.099 A 
ATOM     22  C   UNL     1     -13.823  14.637  72.601  0.00  0.00    +0.020 A 
ATOM     23  C   UNL     1     -13.704  14.923  71.254  0.00  0.00    +0.000 A 
ENDBRANCH  17  18
ENDBRANCH   8  17
ENDBRANCH   3   5
ENDBRANCH   1   3
BRANCH   1  24
ATOM     24  C   UNL     1      -8.502  10.860  68.285  0.00  0.00    +0.044 C 
BRANCH  24  25
ATOM     25  C   UNL     1      -9.635   9.643  68.220  0.00  0.00    +0.085 C 
BRANCH  25  26
ATOM     26  C   UNL     1      -9.844   9.613  69.835  0.00  0.00    +0.242 C 
ATOM     27  N   UNL     1     -10.299   8.367  70.395  0.00  0.00    -0.200 NA
ATOM     28  O   UNL     1     -10.697  10.555  69.960  0.00  0.00    -0.273 OA
BRANCH  27  29
ATOM     29  C   UNL     1     -10.691   8.751  71.889  0.00  0.00    +0.148 C 
ATOM     30  C   UNL     1     -10.514   7.141  72.542  0.00  0.00    +0.180 C 
ATOM     31  O   UNL     1      -9.118   6.976  71.935  0.00  0.00    -0.221 OA
ATOM     32  C   UNL     1     -11.245   6.459  71.224  0.00  0.00    +0.061 C 
ATOM     33  C   UNL     1     -12.461   7.253  71.313  0.00  0.00    -0.022 A 
ATOM     34  C   UNL     1     -13.778   6.803  71.317  0.00  0.00    -0.004 A 
ATOM     35  C   UNL     1     -14.823   7.583  71.745  0.00  0.00    -0.000 A 
ATOM     36  C   UNL     1     -14.484   8.754  72.414  0.00  0.00    -0.000 A 
ATOM     37  C   UNL     1     -13.157   9.158  72.505  0.00  0.00    -0.003 A 
ATOM     38  C   UNL     1     -12.272   8.534  71.636  0.00  0.00    -0.004 A 
ENDBRANCH  27  29
ENDBRANCH  25  26
BRANCH  25  39
ATOM     39  C   UNL     1      -8.489   8.460  68.191  0.00  0.00    +0.036 C 
BRANCH  39  40
ATOM     40  C   UNL     1      -8.967   7.286  67.550  0.00  0.00    -0.022 A 
ATOM     41  C   UNL     1     -10.309   7.370  67.167  0.00  0.00    -0.004 A 
ATOM     42  C   UNL     1     -11.026   6.259  66.759  0.00  0.00    -0.000 A 
ATOM     43  C   UNL     1     -10.348   5.053  66.632  0.00  0.00    -0.000 A 
ATOM     44  C   UNL     1      -8.968   5.106  66.475  0.00  0.00    -0.000 A 
ATOM     45  C   UNL     1      -8.358   6.194  67.031  0.00  0.00    -0.004 A 
ENDBRANCH  39  40
ENDBRANCH  25  39
ENDBRANCH  24  25
ENDBRANCH   1  24
TORSDOF 12
ENDMDL
