MODEL 1
REMARK VINA RESULT:      -6.8      0.000      0.000
REMARK  Name = 
REMARK  2 active torsions:
REMARK  status: ('A' for Active; 'I' for Inactive)
REMARK    1  A    between atoms: C_2  and  C_3
REMARK    2  A    between atoms: C_21  and  C_22
REMARK                            x       y       z     vdW  Elec       q    Type
REMARK                         _______ _______ _______ _____ _____    ______ ____
ROOT
ATOM      1  C   UNL     1      -7.969  17.856  68.062  0.00  0.00    +0.180 C 
ATOM      2  C   UNL     1      -9.415  18.029  68.010  0.00  0.00    +0.037 C 
ATOM      3  C   UNL     1     -10.002  16.966  69.110  0.00  0.00    +0.003 C 
ATOM      4  C   UNL     1     -11.139  16.213  68.063  0.00  0.00    +0.001 C 
ATOM      5  C   UNL     1     -10.007  15.598  66.966  0.00  0.00    +0.004 C 
ATOM      6  C   UNL     1     -10.163  16.843  65.945  0.00  0.00    +0.000 C 
ATOM      7  C   UNL     1     -11.271  14.754  66.180  0.00  0.00    +0.019 C 
ATOM      8  C   UNL     1     -10.961  13.414  67.032  0.00  0.00    -0.042 C 
ATOM      9  C   UNL     1     -11.774  12.468  66.580  0.00  0.00    +0.029 C 
ATOM     10  C   UNL     1     -12.069  12.580  65.144  0.00  0.00    +0.173 C 
ATOM     11  C   UNL     1     -11.081  13.245  64.236  0.00  0.00    +0.069 C 
ATOM     12  O   UNL     1     -13.211  12.330  64.661  0.00  0.00    -0.291 OA
ATOM     13  C   UNL     1     -10.643  13.722  68.403  0.00  0.00    +0.022 C 
ATOM     14  C   UNL     1     -10.258  14.279  64.965  0.00  0.00    +0.012 C 
ATOM     15  C   UNL     1     -11.183  14.910  69.021  0.00  0.00    +0.004 C 
ATOM     16  C   UNL     1      -8.795  15.867  68.891  0.00  0.00    +0.004 C 
ATOM     17  C   UNL     1     -10.164  18.049  66.797  0.00  0.00    +0.003 C 
ATOM     18  C   UNL     1      -7.647  16.814  69.128  0.00  0.00    +0.043 C 
ATOM     19  O   UNL     1      -7.344  19.033  68.517  0.00  0.00    -0.212 OA
ENDROOT
BRANCH   1  21
ATOM     20  C   UNL     1      -6.749  17.349  65.836  0.00  0.00    -0.012 C 
ATOM     21  C   UNL     1      -7.325  17.498  66.784  0.00  0.00    -0.049 C 
ENDBRANCH   1  21
BRANCH   2  22
ATOM     22  C   UNL     1      -9.759  19.327  68.755  0.00  0.00    +0.003 C 
ATOM     23  C   UNL     1     -10.206  20.413  67.821  0.00  0.00    +0.000 C 
ENDBRANCH   2  22
TORSDOF 2
ENDMDL
MODEL 2
REMARK VINA RESULT:      -6.8      3.086      5.920
REMARK  Name = 
REMARK  2 active torsions:
REMARK  status: ('A' for Active; 'I' for Inactive)
REMARK    1  A    between atoms: C_2  and  C_3
REMARK    2  A    between atoms: C_21  and  C_22
REMARK                            x       y       z     vdW  Elec       q    Type
REMARK                         _______ _______ _______ _____ _____    ______ ____
ROOT
ATOM      1  C   UNL     1      -9.138  11.914  67.062  0.00  0.00    +0.180 C 
ATOM      2  C   UNL     1     -10.288  12.679  66.597  0.00  0.00    +0.037 C 
ATOM      3  C   UNL     1      -9.883  14.244  66.862  0.00  0.00    +0.003 C 
ATOM      4  C   UNL     1     -11.311  14.669  67.721  0.00  0.00    +0.001 C 
ATOM      5  C   UNL     1     -11.073  13.610  69.019  0.00  0.00    +0.004 C 
ATOM      6  C   UNL     1     -12.013  12.457  68.387  0.00  0.00    +0.000 C 
ATOM      7  C   UNL     1     -12.417  14.319  69.806  0.00  0.00    +0.019 C 
ATOM      8  C   UNL     1     -11.454  15.323  70.634  0.00  0.00    -0.042 C 
ATOM      9  C   UNL     1     -12.230  16.013  71.460  0.00  0.00    +0.029 C 
ATOM     10  C   UNL     1     -13.387  15.253  71.956  0.00  0.00    +0.173 C 
ATOM     11  C   UNL     1     -13.311  13.760  72.038  0.00  0.00    +0.069 C 
ATOM     12  O   UNL     1     -14.526  15.778  72.123  0.00  0.00    -0.291 OA
ATOM     13  C   UNL     1     -10.379  15.819  69.813  0.00  0.00    +0.022 C 
ATOM     14  C   UNL     1     -12.363  13.191  71.010  0.00  0.00    +0.012 C 
ATOM     15  C   UNL     1     -10.553  15.936  68.385  0.00  0.00    +0.004 C 
ATOM     16  C   UNL     1      -8.961  13.921  68.188  0.00  0.00    +0.004 C 
ATOM     17  C   UNL     1     -11.633  12.379  66.962  0.00  0.00    +0.003 C 
ATOM     18  C   UNL     1      -8.070  12.894  67.539  0.00  0.00    +0.043 C 
ATOM     19  O   UNL     1      -8.534  11.226  65.992  0.00  0.00    -0.212 OA
ENDROOT
BRANCH   1  21
ATOM     20  C   UNL     1      -9.486  10.116  68.890  0.00  0.00    -0.012 C 
ATOM     21  C   UNL     1      -9.420  10.914  68.108  0.00  0.00    -0.049 C 
ENDBRANCH   1  21
BRANCH   2  22
ATOM     22  C   UNL     1     -10.249  12.700  65.062  0.00  0.00    +0.003 C 
ATOM     23  C   UNL     1     -11.624  12.691  64.461  0.00  0.00    +0.000 C 
ENDBRANCH   2  22
TORSDOF 2
ENDMDL
MODEL 3
REMARK VINA RESULT:      -6.4      3.538      7.632
REMARK  Name = 
REMARK  2 active torsions:
REMARK  status: ('A' for Active; 'I' for Inactive)
REMARK    1  A    between atoms: C_2  and  C_3
REMARK    2  A    between atoms: C_21  and  C_22
REMARK                            x       y       z     vdW  Elec       q    Type
REMARK                         _______ _______ _______ _____ _____    ______ ____
ROOT
ATOM      1  C   UNL     1      -8.021  17.615  66.541  0.00  0.00    +0.180 C 
ATOM      2  C   UNL     1      -8.453  18.948  66.943  0.00  0.00    +0.037 C 
ATOM      3  C   UNL     1      -7.337  19.959  66.300  0.00  0.00    +0.003 C 
ATOM      4  C   UNL     1      -6.987  20.810  67.753  0.00  0.00    +0.001 C 
ATOM      5  C   UNL     1      -6.380  19.483  68.608  0.00  0.00    +0.004 C 
ATOM      6  C   UNL     1      -7.789  19.176  69.340  0.00  0.00    +0.000 C 
ATOM      7  C   UNL     1      -5.919  20.543  69.870  0.00  0.00    +0.019 C 
ATOM      8  C   UNL     1      -4.419  20.665  69.275  0.00  0.00    -0.042 C 
ATOM      9  C   UNL     1      -3.723  21.411  70.123  0.00  0.00    +0.029 C 
ATOM     10  C   UNL     1      -4.131  21.245  71.526  0.00  0.00    +0.173 C 
ATOM     11  C   UNL     1      -4.757  19.959  71.967  0.00  0.00    +0.069 C 
ATOM     12  O   UNL     1      -4.173  22.210  72.343  0.00  0.00    -0.291 OA
ATOM     13  C   UNL     1      -4.427  20.739  67.836  0.00  0.00    +0.022 C 
ATOM     14  C   UNL     1      -5.489  19.276  70.837  0.00  0.00    +0.012 C 
ATOM     15  C   UNL     1      -5.567  21.294  67.146  0.00  0.00    +0.004 C 
ATOM     16  C   UNL     1      -6.096  18.882  66.416  0.00  0.00    +0.004 C 
ATOM     17  C   UNL     1      -8.812  19.289  68.280  0.00  0.00    +0.003 C 
ATOM     18  C   UNL     1      -6.771  17.754  65.679  0.00  0.00    +0.043 C 
ATOM     19  O   UNL     1      -8.973  17.020  65.691  0.00  0.00    -0.212 OA
ENDROOT
BRANCH   1  21
ATOM     20  C   UNL     1      -7.651  15.836  68.385  0.00  0.00    -0.012 C 
ATOM     21  C   UNL     1      -7.780  16.665  67.643  0.00  0.00    -0.049 C 
ENDBRANCH   1  21
BRANCH   2  22
ATOM     22  C   UNL     1      -9.643  19.343  66.059  0.00  0.00    +0.003 C 
ATOM     23  C   UNL     1     -10.846  19.728  66.868  0.00  0.00    +0.000 C 
ENDBRANCH   2  22
TORSDOF 2
ENDMDL
MODEL 4
REMARK VINA RESULT:      -6.3      1.490      5.813
REMARK  Name = 
REMARK  2 active torsions:
REMARK  status: ('A' for Active; 'I' for Inactive)
REMARK    1  A    between atoms: C_2  and  C_3
REMARK    2  A    between atoms: C_21  and  C_22
REMARK                            x       y       z     vdW  Elec       q    Type
REMARK                         _______ _______ _______ _____ _____    ______ ____
ROOT
ATOM      1  C   UNL     1     -11.464  12.839  66.786  0.00  0.00    +0.180 C 
ATOM      2  C   UNL     1     -10.043  13.155  66.837  0.00  0.00    +0.037 C 
ATOM      3  C   UNL     1      -9.776  13.631  68.381  0.00  0.00    +0.003 C 
ATOM      4  C   UNL     1      -8.989  15.110  67.994  0.00  0.00    +0.001 C 
ATOM      5  C   UNL     1     -10.308  15.828  67.214  0.00  0.00    +0.004 C 
ATOM      6  C   UNL     1      -9.810  15.386  65.740  0.00  0.00    +0.000 C 
ATOM      7  C   UNL     1      -9.418  17.286  67.112  0.00  0.00    +0.019 C 
ATOM      8  C   UNL     1     -10.100  17.844  68.469  0.00  0.00    -0.042 C 
ATOM      9  C   UNL     1      -9.653  19.080  68.650  0.00  0.00    +0.029 C 
ATOM     10  C   UNL     1      -9.405  19.806  67.395  0.00  0.00    +0.173 C 
ATOM     11  C   UNL     1     -10.170  19.436  66.162  0.00  0.00    +0.069 C 
ATOM     12  O   UNL     1      -8.426  20.594  67.245  0.00  0.00    -0.291 OA
ATOM     13  C   UNL     1     -10.238  16.804  69.457  0.00  0.00    +0.022 C 
ATOM     14  C   UNL     1     -10.584  17.984  66.176  0.00  0.00    +0.012 C 
ATOM     15  C   UNL     1      -9.320  15.690  69.468  0.00  0.00    +0.004 C 
ATOM     16  C   UNL     1     -11.280  14.272  68.586  0.00  0.00    +0.004 C 
ATOM     17  C   UNL     1      -9.385  13.978  65.876  0.00  0.00    +0.003 C 
ATOM     18  C   UNL     1     -12.053  13.044  68.178  0.00  0.00    +0.043 C 
ATOM     19  O   UNL     1     -11.659  11.470  66.518  0.00  0.00    -0.212 OA
ENDROOT
BRANCH   1  21
ATOM     20  C   UNL     1     -12.930  14.027  65.013  0.00  0.00    -0.012 C 
ATOM     21  C   UNL     1     -12.247  13.585  65.784  0.00  0.00    -0.049 C 
ENDBRANCH   1  21
BRANCH   2  22
ATOM     22  C   UNL     1      -9.268  11.831  66.879  0.00  0.00    +0.003 C 
ATOM     23  C   UNL     1      -8.565  11.628  68.188  0.00  0.00    +0.000 C 
ENDBRANCH   2  22
TORSDOF 2
ENDMDL
MODEL 5
REMARK VINA RESULT:      -6.1      2.001      6.176
REMARK  Name = 
REMARK  2 active torsions:
REMARK  status: ('A' for Active; 'I' for Inactive)
REMARK    1  A    between atoms: C_2  and  C_3
REMARK    2  A    between atoms: C_21  and  C_22
REMARK                            x       y       z     vdW  Elec       q    Type
REMARK                         _______ _______ _______ _____ _____    ______ ____
ROOT
ATOM      1  C   UNL     1     -10.017  14.833  67.069  0.00  0.00    +0.180 C 
ATOM      2  C   UNL     1     -10.394  15.700  68.178  0.00  0.00    +0.037 C 
ATOM      3  C   UNL     1     -10.852  17.106  67.471  0.00  0.00    +0.003 C 
ATOM      4  C   UNL     1      -9.853  18.133  68.421  0.00  0.00    +0.001 C 
ATOM      5  C   UNL     1      -8.375  17.490  67.905  0.00  0.00    +0.004 C 
ATOM      6  C   UNL     1      -8.246  16.494  69.173  0.00  0.00    +0.000 C 
ATOM      7  C   UNL     1      -7.568  18.734  68.760  0.00  0.00    +0.019 C 
ATOM      8  C   UNL     1      -7.474  19.645  67.426  0.00  0.00    -0.042 C 
ATOM      9  C   UNL     1      -6.784  20.732  67.745  0.00  0.00    +0.029 C 
ATOM     10  C   UNL     1      -5.741  20.493  68.754  0.00  0.00    +0.173 C 
ATOM     11  C   UNL     1      -5.135  19.130  68.884  0.00  0.00    +0.069 C 
ATOM     12  O   UNL     1      -5.471  21.327  69.667  0.00  0.00    -0.291 OA
ATOM     13  C   UNL     1      -8.684  19.567  66.647  0.00  0.00    +0.022 C 
ATOM     14  C   UNL     1      -6.097  18.047  68.458  0.00  0.00    +0.012 C 
ATOM     15  C   UNL     1      -9.945  19.291  67.294  0.00  0.00    +0.004 C 
ATOM     16  C   UNL     1      -9.813  16.962  66.201  0.00  0.00    +0.004 C 
ATOM     17  C   UNL     1      -9.586  15.894  69.336  0.00  0.00    +0.003 C 
ATOM     18  C   UNL     1     -10.254  15.589  65.765  0.00  0.00    +0.043 C 
ATOM     19  O   UNL     1     -10.877  13.721  66.994  0.00  0.00    -0.212 OA
ENDROOT
BRANCH   1  21
ATOM     20  C   UNL     1      -7.659  13.768  67.140  0.00  0.00    -0.012 C 
ATOM     21  C   UNL     1      -8.640  14.306  67.113  0.00  0.00    -0.049 C 
ENDBRANCH   1  21
BRANCH   2  22
ATOM     22  C   UNL     1     -11.772  15.249  68.680  0.00  0.00    +0.003 C 
ATOM     23  C   UNL     1     -12.012  15.643  70.108  0.00  0.00    +0.000 C 
ENDBRANCH   2  22
TORSDOF 2
ENDMDL
MODEL 6
REMARK VINA RESULT:      -6.0      1.524      6.009
REMARK  Name = 
REMARK  2 active torsions:
REMARK  status: ('A' for Active; 'I' for Inactive)
REMARK    1  A    between atoms: C_2  and  C_3
REMARK    2  A    between atoms: C_21  and  C_22
REMARK                            x       y       z     vdW  Elec       q    Type
REMARK                         _______ _______ _______ _____ _____    ______ ____
ROOT
ATOM      1  C   UNL     1     -11.330  12.549  68.344  0.00  0.00    +0.180 C 
ATOM      2  C   UNL     1     -11.244  13.216  67.051  0.00  0.00    +0.037 C 
ATOM      3  C   UNL     1      -9.644  13.237  66.699  0.00  0.00    +0.003 C 
ATOM      4  C   UNL     1      -9.543  14.920  66.362  0.00  0.00    +0.001 C 
ATOM      5  C   UNL     1      -9.969  15.450  67.911  0.00  0.00    +0.004 C 
ATOM      6  C   UNL     1     -11.528  15.650  67.528  0.00  0.00    +0.000 C 
ATOM      7  C   UNL     1      -9.612  17.053  67.430  0.00  0.00    +0.019 C 
ATOM      8  C   UNL     1      -8.115  16.944  68.034  0.00  0.00    -0.042 C 
ATOM      9  C   UNL     1      -7.547  18.134  67.885  0.00  0.00    +0.029 C 
ATOM     10  C   UNL     1      -8.491  19.256  67.999  0.00  0.00    +0.173 C 
ATOM     11  C   UNL     1      -9.737  19.094  68.812  0.00  0.00    +0.069 C 
ATOM     12  O   UNL     1      -8.411  20.290  67.274  0.00  0.00    -0.291 OA
ATOM     13  C   UNL     1      -7.534  15.651  67.774  0.00  0.00    +0.022 C 
ATOM     14  C   UNL     1     -10.198  17.657  68.850  0.00  0.00    +0.012 C 
ATOM     15  C   UNL     1      -7.946  14.892  66.618  0.00  0.00    +0.004 C 
ATOM     16  C   UNL     1      -9.162  13.336  68.271  0.00  0.00    +0.004 C 
ATOM     17  C   UNL     1     -11.898  14.448  66.755  0.00  0.00    +0.003 C 
ATOM     18  C   UNL     1      -9.924  12.135  68.767  0.00  0.00    +0.043 C 
ATOM     19  O   UNL     1     -12.038  11.337  68.231  0.00  0.00    -0.212 OA
ENDROOT
BRANCH   1  21
ATOM     20  C   UNL     1     -12.399  13.821  70.330  0.00  0.00    -0.012 C 
ATOM     21  C   UNL     1     -11.980  13.324  69.418  0.00  0.00    -0.049 C 
ENDBRANCH   1  21
BRANCH   2  22
ATOM     22  C   UNL     1     -11.692  12.217  65.976  0.00  0.00    +0.003 C 
ATOM     23  C   UNL     1     -12.481  12.876  64.884  0.00  0.00    +0.000 C 
ENDBRANCH   2  22
TORSDOF 2
ENDMDL
MODEL 7
REMARK VINA RESULT:      -6.0      2.201      3.704
REMARK  Name = 
REMARK  2 active torsions:
REMARK  status: ('A' for Active; 'I' for Inactive)
REMARK    1  A    between atoms: C_2  and  C_3
REMARK    2  A    between atoms: C_21  and  C_22
REMARK                            x       y       z     vdW  Elec       q    Type
REMARK                         _______ _______ _______ _____ _____    ______ ____
ROOT
ATOM      1  C   UNL     1      -5.477  19.498  67.699  0.00  0.00    +0.180 C 
ATOM      2  C   UNL     1      -6.428  19.600  66.600  0.00  0.00    +0.037 C 
ATOM      3  C   UNL     1      -7.808  20.147  67.292  0.00  0.00    +0.003 C 
ATOM      4  C   UNL     1      -8.842  18.933  66.648  0.00  0.00    +0.001 C 
ATOM      5  C   UNL     1      -8.095  17.623  67.415  0.00  0.00    +0.004 C 
ATOM      6  C   UNL     1      -7.174  17.263  66.135  0.00  0.00    +0.000 C 
ATOM      7  C   UNL     1      -9.348  16.609  66.839  0.00  0.00    +0.019 C 
ATOM      8  C   UNL     1     -10.169  16.768  68.224  0.00  0.00    -0.042 C 
ATOM      9  C   UNL     1     -11.238  15.987  68.135  0.00  0.00    +0.029 C 
ATOM     10  C   UNL     1     -11.010  14.763  67.352  0.00  0.00    +0.173 C 
ATOM     11  C   UNL     1      -9.630  14.193  67.256  0.00  0.00    +0.069 C 
ATOM     12  O   UNL     1     -11.885  14.277  66.578  0.00  0.00    -0.291 OA
ATOM     13  C   UNL     1     -10.103  18.118  68.724  0.00  0.00    +0.022 C 
ATOM     14  C   UNL     1      -8.572  15.261  67.393  0.00  0.00    +0.012 C 
ATOM     15  C   UNL     1      -9.931  19.221  67.810  0.00  0.00    +0.004 C 
ATOM     16  C   UNL     1      -7.535  19.407  68.738  0.00  0.00    +0.004 C 
ATOM     17  C   UNL     1      -6.653  18.557  65.653  0.00  0.00    +0.003 C 
ATOM     18  C   UNL     1      -6.162  19.979  68.974  0.00  0.00    +0.043 C 
ATOM     19  O   UNL     1      -4.406  20.393  67.513  0.00  0.00    -0.212 OA
ENDROOT
BRANCH   1  21
ATOM     20  C   UNL     1      -4.363  17.212  68.183  0.00  0.00    -0.012 C 
ATOM     21  C   UNL     1      -4.886  18.163  67.907  0.00  0.00    -0.049 C 
ENDBRANCH   1  21
BRANCH   2  22
ATOM     22  C   UNL     1      -6.077  20.855  65.789  0.00  0.00    +0.003 C 
ATOM     23  C   UNL     1      -6.162  20.615  64.310  0.00  0.00    +0.000 C 
ENDBRANCH   2  22
TORSDOF 2
ENDMDL
MODEL 8
REMARK VINA RESULT:      -6.0      2.409      6.082
REMARK  Name = 
REMARK  2 active torsions:
REMARK  status: ('A' for Active; 'I' for Inactive)
REMARK    1  A    between atoms: C_2  and  C_3
REMARK    2  A    between atoms: C_21  and  C_22
REMARK                            x       y       z     vdW  Elec       q    Type
REMARK                         _______ _______ _______ _____ _____    ______ ____
ROOT
ATOM      1  C   UNL     1      -9.559  10.599  66.545  0.00  0.00    +0.180 C 
ATOM      2  C   UNL     1     -10.499  11.293  67.415  0.00  0.00    +0.037 C 
ATOM      3  C   UNL     1     -11.688  11.812  66.415  0.00  0.00    +0.003 C 
ATOM      4  C   UNL     1     -11.669  13.453  66.928  0.00  0.00    +0.001 C 
ATOM      5  C   UNL     1     -10.085  13.787  66.434  0.00  0.00    +0.004 C 
ATOM      6  C   UNL     1      -9.458  13.510  67.899  0.00  0.00    +0.000 C 
ATOM      7  C   UNL     1     -10.342  15.434  66.821  0.00  0.00    +0.019 C 
ATOM      8  C   UNL     1     -10.739  15.773  65.289  0.00  0.00    -0.042 C 
ATOM      9  C   UNL     1     -10.938  17.083  65.219  0.00  0.00    +0.029 C 
ATOM     10  C   UNL     1     -10.077  17.859  66.125  0.00  0.00    +0.173 C 
ATOM     11  C   UNL     1      -8.753  17.302  66.546  0.00  0.00    +0.069 C 
ATOM     12  O   UNL     1     -10.487  18.886  66.741  0.00  0.00    -0.291 OA
ATOM     13  C   UNL     1     -11.542  14.728  64.708  0.00  0.00    +0.022 C 
ATOM     14  C   UNL     1      -8.754  15.793  66.544  0.00  0.00    +0.012 C 
ATOM     15  C   UNL     1     -12.383  13.909  65.549  0.00  0.00    +0.004 C 
ATOM     16  C   UNL     1     -10.693  12.014  65.117  0.00  0.00    +0.004 C 
ATOM     17  C   UNL     1     -10.109  12.272  68.375  0.00  0.00    +0.003 C 
ATOM     18  C   UNL     1     -10.110  10.624  65.123  0.00  0.00    +0.043 C 
ATOM     19  O   UNL     1      -9.494   9.231  66.875  0.00  0.00    -0.212 OA
ENDROOT
BRANCH   1  21
ATOM     20  C   UNL     1      -7.082  11.351  66.569  0.00  0.00    -0.012 C 
ATOM     21  C   UNL     1      -8.175  11.109  66.567  0.00  0.00    -0.049 C 
ENDBRANCH   1  21
BRANCH   2  22
ATOM     22  C   UNL     1     -11.304  10.232  68.179  0.00  0.00    +0.003 C 
ATOM     23  C   UNL     1     -11.690  10.696  69.553  0.00  0.00    +0.000 C 
ENDBRANCH   2  22
TORSDOF 2
ENDMDL
MODEL 9
REMARK VINA RESULT:      -5.9      2.885      5.095
REMARK  Name = 
REMARK  2 active torsions:
REMARK  status: ('A' for Active; 'I' for Inactive)
REMARK    1  A    between atoms: C_2  and  C_3
REMARK    2  A    between atoms: C_21  and  C_22
REMARK                            x       y       z     vdW  Elec       q    Type
REMARK                         _______ _______ _______ _____ _____    ______ ____
ROOT
ATOM      1  C   UNL     1      -4.670  18.464  69.784  0.00  0.00    +0.180 C 
ATOM      2  C   UNL     1      -4.623  18.754  68.357  0.00  0.00    +0.037 C 
ATOM      3  C   UNL     1      -5.580  20.069  68.166  0.00  0.00    +0.003 C 
ATOM      4  C   UNL     1      -6.551  19.420  66.903  0.00  0.00    +0.001 C 
ATOM      5  C   UNL     1      -7.208  18.149  67.806  0.00  0.00    +0.004 C 
ATOM      6  C   UNL     1      -6.122  17.073  67.278  0.00  0.00    +0.000 C 
ATOM      7  C   UNL     1      -8.246  17.793  66.492  0.00  0.00    +0.019 C 
ATOM      8  C   UNL     1      -9.436  18.678  67.139  0.00  0.00    -0.042 C 
ATOM      9  C   UNL     1     -10.495  18.543  66.351  0.00  0.00    +0.029 C 
ATOM     10  C   UNL     1     -10.592  17.220  65.716  0.00  0.00    +0.173 C 
ATOM     11  C   UNL     1      -9.972  16.032  66.383  0.00  0.00    +0.069 C 
ATOM     12  O   UNL     1     -10.993  17.063  64.527  0.00  0.00    -0.291 OA
ATOM     13  C   UNL     1      -8.929  19.888  67.735  0.00  0.00    +0.022 C 
ATOM     14  C   UNL     1      -8.789  16.422  67.236  0.00  0.00    +0.012 C 
ATOM     15  C   UNL     1      -7.719  20.491  67.230  0.00  0.00    +0.004 C 
ATOM     16  C   UNL     1      -6.597  19.676  69.400  0.00  0.00    +0.004 C 
ATOM     17  C   UNL     1      -4.820  17.768  67.346  0.00  0.00    +0.003 C 
ATOM     18  C   UNL     1      -5.538  19.521  70.461  0.00  0.00    +0.043 C 
ATOM     19  O   UNL     1      -3.398  18.625  70.366  0.00  0.00    -0.212 OA
ENDROOT
BRANCH   1  21
ATOM     20  C   UNL     1      -5.357  16.070  70.489  0.00  0.00    -0.012 C 
ATOM     21  C   UNL     1      -5.137  17.112  70.144  0.00  0.00    -0.049 C 
ENDBRANCH   1  21
BRANCH   2  22
ATOM     22  C   UNL     1      -3.273  19.419  68.057  0.00  0.00    +0.003 C 
ATOM     23  C   UNL     1      -3.426  20.861  67.669  0.00  0.00    +0.000 C 
ENDBRANCH   2  22
TORSDOF 2
ENDMDL
