MODEL 1
REMARK VINA RESULT:      -6.6      0.000      0.000
REMARK  Name = 
REMARK  2 active torsions:
REMARK  status: ('A' for Active; 'I' for Inactive)
REMARK    1  A    between atoms: C_2  and  C_4
REMARK    2  A    between atoms: C_4  and  N_5
REMARK                            x       y       z     vdW  Elec       q    Type
REMARK                         _______ _______ _______ _____ _____    ______ ____
ROOT
ATOM      1  N   UNL     1     -10.174  14.899  67.777  0.00  0.00    -0.309 N 
ATOM      2  C   UNL     1     -10.222  15.998  66.982  0.00  0.00    +0.083 A 
ATOM      3  C   UNL     1     -10.332  17.361  67.219  0.00  0.00    +0.035 A 
ATOM      4  C   UNL     1     -10.393  18.203  66.115  0.00  0.00    +0.084 A 
ATOM      5  N   UNL     1     -10.955  17.767  64.962  0.00  0.00    -0.226 NA
ATOM      6  C   UNL     1     -11.144  16.451  64.782  0.00  0.00    +0.189 A 
ATOM      7  N   UNL     1     -12.142  15.971  63.878  0.00  0.00    -0.106 NA
ATOM      8  C   UNL     1     -10.060  19.524  66.307  0.00  0.00    +0.019 A 
ATOM      9  C   UNL     1      -9.940  19.998  67.604  0.00  0.00    +0.002 A 
ATOM     10  C   UNL     1      -9.768  19.141  68.660  0.00  0.00    +0.000 A 
ATOM     11  C   UNL     1     -10.089  17.803  68.492  0.00  0.00    +0.003 A 
ATOM     12  C   UNL     1     -10.531  15.596  65.689  0.00  0.00    +0.133 A 
ATOM     13  N   UNL     1     -10.336  14.277  65.683  0.00  0.00    -0.221 NA
ATOM     14  C   UNL     1      -9.982  13.879  66.928  0.00  0.00    +0.179 A 
ENDROOT
BRANCH   1  15
ATOM     15  C   UNL     1     -10.394  14.937  69.192  0.00  0.00    +0.108 C 
BRANCH  15  17
ATOM     16  C   UNL     1     -12.342  15.693  70.596  0.00  0.00    +0.002 C 
ATOM     17  C   UNL     1     -11.807  14.700  69.612  0.00  0.00    +0.023 C 
ATOM     18  C   UNL     1     -12.077  13.315  70.122  0.00  0.00    +0.002 C 
ENDBRANCH  15  17
ENDBRANCH   1  15
TORSDOF 2
ENDMDL
MODEL 2
REMARK VINA RESULT:      -6.4      2.985      6.707
REMARK  Name = 
REMARK  2 active torsions:
REMARK  status: ('A' for Active; 'I' for Inactive)
REMARK    1  A    between atoms: C_2  and  C_4
REMARK    2  A    between atoms: C_4  and  N_5
REMARK                            x       y       z     vdW  Elec       q    Type
REMARK                         _______ _______ _______ _____ _____    ______ ____
ROOT
ATOM      1  N   UNL     1     -11.095  14.718  69.307  0.00  0.00    -0.309 N 
ATOM      2  C   UNL     1     -11.830  14.077  70.250  0.00  0.00    +0.083 A 
ATOM      3  C   UNL     1     -12.270  12.771  70.415  0.00  0.00    +0.035 A 
ATOM      4  C   UNL     1     -13.064  12.494  71.521  0.00  0.00    +0.084 A 
ATOM      5  N   UNL     1     -13.882  13.450  72.024  0.00  0.00    -0.226 NA
ATOM      6  C   UNL     1     -13.686  14.730  71.674  0.00  0.00    +0.189 A 
ATOM      7  N   UNL     1     -14.753  15.679  71.739  0.00  0.00    -0.106 NA
ATOM      8  C   UNL     1     -13.134  11.185  71.937  0.00  0.00    +0.019 A 
ATOM      9  C   UNL     1     -12.641  10.194  71.102  0.00  0.00    +0.002 A 
ATOM     10  C   UNL     1     -11.770  10.490  70.086  0.00  0.00    +0.000 A 
ATOM     11  C   UNL     1     -11.673  11.803  69.653  0.00  0.00    +0.003 A 
ATOM     12  C   UNL     1     -12.504  15.028  71.006  0.00  0.00    +0.133 A 
ATOM     13  N   UNL     1     -11.910  16.184  70.715  0.00  0.00    -0.221 NA
ATOM     14  C   UNL     1     -10.955  15.965  69.779  0.00  0.00    +0.179 A 
ENDROOT
BRANCH   1  15
ATOM     15  C   UNL     1     -10.696  14.114  68.070  0.00  0.00    +0.108 C 
BRANCH  15  17
ATOM     16  C   UNL     1     -12.111  13.273  66.166  0.00  0.00    +0.002 C 
ATOM     17  C   UNL     1     -11.560  14.454  66.901  0.00  0.00    +0.023 C 
ATOM     18  C   UNL     1     -10.926  15.390  65.915  0.00  0.00    +0.002 C 
ENDBRANCH  15  17
ENDBRANCH   1  15
TORSDOF 2
ENDMDL
MODEL 3
REMARK VINA RESULT:      -6.3      1.994      4.515
REMARK  Name = 
REMARK  2 active torsions:
REMARK  status: ('A' for Active; 'I' for Inactive)
REMARK    1  A    between atoms: C_2  and  C_4
REMARK    2  A    between atoms: C_4  and  N_5
REMARK                            x       y       z     vdW  Elec       q    Type
REMARK                         _______ _______ _______ _____ _____    ______ ____
ROOT
ATOM      1  N   UNL     1     -11.036  14.784  65.957  0.00  0.00    -0.309 N 
ATOM      2  C   UNL     1     -10.905  15.378  67.170  0.00  0.00    +0.083 A 
ATOM      3  C   UNL     1     -11.430  15.132  68.431  0.00  0.00    +0.035 A 
ATOM      4  C   UNL     1     -11.089  16.010  69.452  0.00  0.00    +0.084 A 
ATOM      5  N   UNL     1     -10.842  17.312  69.171  0.00  0.00    -0.226 NA
ATOM      6  C   UNL     1     -10.603  17.674  67.901  0.00  0.00    +0.189 A 
ATOM      7  N   UNL     1     -10.835  19.016  67.466  0.00  0.00    -0.106 NA
ATOM      8  C   UNL     1     -11.217  15.557  70.745  0.00  0.00    +0.019 A 
ATOM      9  C   UNL     1     -11.911  14.379  70.972  0.00  0.00    +0.002 A 
ATOM     10  C   UNL     1     -12.133  13.480  69.961  0.00  0.00    +0.000 A 
ATOM     11  C   UNL     1     -12.003  13.907  68.649  0.00  0.00    +0.003 A 
ATOM     12  C   UNL     1     -10.385  16.653  66.985  0.00  0.00    +0.133 A 
ATOM     13  N   UNL     1      -9.923  16.658  65.735  0.00  0.00    -0.221 NA
ATOM     14  C   UNL     1     -10.200  15.463  65.158  0.00  0.00    +0.179 A 
ENDROOT
BRANCH   1  15
ATOM     15  C   UNL     1     -11.971  13.732  65.688  0.00  0.00    +0.108 C 
BRANCH  15  17
ATOM     16  C   UNL     1     -12.420  12.164  63.770  0.00  0.00    +0.002 C 
ATOM     17  C   UNL     1     -11.452  12.646  64.805  0.00  0.00    +0.023 C 
ATOM     18  C   UNL     1     -10.897  11.462  65.541  0.00  0.00    +0.002 C 
ENDBRANCH  15  17
ENDBRANCH   1  15
TORSDOF 2
ENDMDL
MODEL 4
REMARK VINA RESULT:      -6.3      1.911      2.741
REMARK  Name = 
REMARK  2 active torsions:
REMARK  status: ('A' for Active; 'I' for Inactive)
REMARK    1  A    between atoms: C_2  and  C_4
REMARK    2  A    between atoms: C_4  and  N_5
REMARK                            x       y       z     vdW  Elec       q    Type
REMARK                         _______ _______ _______ _____ _____    ______ ____
ROOT
ATOM      1  N   UNL     1     -11.704  13.385  69.334  0.00  0.00    -0.309 N 
ATOM      2  C   UNL     1     -11.403  13.956  68.140  0.00  0.00    +0.083 A 
ATOM      3  C   UNL     1     -11.158  15.256  67.722  0.00  0.00    +0.035 A 
ATOM      4  C   UNL     1     -10.920  15.463  66.369  0.00  0.00    +0.084 A 
ATOM      5  N   UNL     1     -11.503  14.658  65.448  0.00  0.00    -0.226 NA
ATOM      6  C   UNL     1     -12.026  13.486  65.840  0.00  0.00    +0.189 A 
ATOM      7  N   UNL     1     -13.056  12.852  65.078  0.00  0.00    -0.106 NA
ATOM      8  C   UNL     1     -10.258  16.615  66.012  0.00  0.00    +0.019 A 
ATOM      9  C   UNL     1     -10.099  17.613  66.961  0.00  0.00    +0.002 A 
ATOM     10  C   UNL     1     -10.233  17.347  68.299  0.00  0.00    +0.000 A 
ATOM     11  C   UNL     1     -10.889  16.190  68.687  0.00  0.00    +0.003 A 
ATOM     12  C   UNL     1     -11.725  13.060  67.128  0.00  0.00    +0.133 A 
ATOM     13  N   UNL     1     -11.891  11.890  67.744  0.00  0.00    -0.221 NA
ATOM     14  C   UNL     1     -11.738  12.069  69.078  0.00  0.00    +0.179 A 
ENDROOT
BRANCH   1  15
ATOM     15  C   UNL     1     -11.996  14.136  70.518  0.00  0.00    +0.108 C 
BRANCH  15  17
ATOM     16  C   UNL     1     -14.078  15.235  71.411  0.00  0.00    +0.002 C 
ATOM     17  C   UNL     1     -13.384  13.962  71.043  0.00  0.00    +0.023 C 
ATOM     18  C   UNL     1     -13.496  12.997  72.186  0.00  0.00    +0.002 C 
ENDBRANCH  15  17
ENDBRANCH   1  15
TORSDOF 2
ENDMDL
MODEL 5
REMARK VINA RESULT:      -6.1      2.804      6.128
REMARK  Name = 
REMARK  2 active torsions:
REMARK  status: ('A' for Active; 'I' for Inactive)
REMARK    1  A    between atoms: C_2  and  C_4
REMARK    2  A    between atoms: C_4  and  N_5
REMARK                            x       y       z     vdW  Elec       q    Type
REMARK                         _______ _______ _______ _____ _____    ______ ____
ROOT
ATOM      1  N   UNL     1     -11.134  13.074  68.472  0.00  0.00    -0.309 N 
ATOM      2  C   UNL     1     -11.929  12.860  69.550  0.00  0.00    +0.083 A 
ATOM      3  C   UNL     1     -12.244  13.598  70.683  0.00  0.00    +0.035 A 
ATOM      4  C   UNL     1     -13.088  13.012  71.618  0.00  0.00    +0.084 A 
ATOM      5  N   UNL     1     -13.086  11.668  71.784  0.00  0.00    -0.226 NA
ATOM      6  C   UNL     1     -12.531  10.892  70.840  0.00  0.00    +0.189 A 
ATOM      7  N   UNL     1     -12.049   9.584  71.156  0.00  0.00    -0.106 NA
ATOM      8  C   UNL     1     -13.750  13.850  72.486  0.00  0.00    +0.019 A 
ATOM      9  C   UNL     1     -13.354  15.177  72.562  0.00  0.00    +0.002 A 
ATOM     10  C   UNL     1     -12.612  15.754  71.564  0.00  0.00    +0.000 A 
ATOM     11  C   UNL     1     -11.942  14.933  70.671  0.00  0.00    +0.003 A 
ATOM     12  C   UNL     1     -12.205  11.502  69.634  0.00  0.00    +0.133 A 
ATOM     13  N   UNL     1     -11.853  11.005  68.449  0.00  0.00    -0.221 NA
ATOM     14  C   UNL     1     -11.329  12.000  67.693  0.00  0.00    +0.179 A 
ENDROOT
BRANCH   1  15
ATOM     15  C   UNL     1     -10.250  14.195  68.350  0.00  0.00    +0.108 C 
BRANCH  15  17
ATOM     16  C   UNL     1      -9.726  14.943  66.004  0.00  0.00    +0.002 C 
ATOM     17  C   UNL     1     -10.570  15.125  67.226  0.00  0.00    +0.023 C 
ATOM     18  C   UNL     1     -10.572  16.576  67.606  0.00  0.00    +0.002 C 
ENDBRANCH  15  17
ENDBRANCH   1  15
TORSDOF 2
ENDMDL
MODEL 6
REMARK VINA RESULT:      -6.0      2.065      5.548
REMARK  Name = 
REMARK  2 active torsions:
REMARK  status: ('A' for Active; 'I' for Inactive)
REMARK    1  A    between atoms: C_2  and  C_4
REMARK    2  A    between atoms: C_4  and  N_5
REMARK                            x       y       z     vdW  Elec       q    Type
REMARK                         _______ _______ _______ _____ _____    ______ ____
ROOT
ATOM      1  N   UNL     1     -11.450  15.365  68.238  0.00  0.00    -0.309 N 
ATOM      2  C   UNL     1     -11.927  14.442  69.110  0.00  0.00    +0.083 A 
ATOM      3  C   UNL     1     -12.231  14.454  70.464  0.00  0.00    +0.035 A 
ATOM      4  C   UNL     1     -12.671  13.266  71.036  0.00  0.00    +0.084 A 
ATOM      5  N   UNL     1     -12.235  12.079  70.550  0.00  0.00    -0.226 NA
ATOM      6  C   UNL     1     -11.660  12.038  69.339  0.00  0.00    +0.189 A 
ATOM      7  N   UNL     1     -10.758  10.985  68.990  0.00  0.00    -0.106 NA
ATOM      8  C   UNL     1     -13.379  13.354  72.212  0.00  0.00    +0.019 A 
ATOM      9  C   UNL     1     -13.391  14.562  72.893  0.00  0.00    +0.002 A 
ATOM     10  C   UNL     1     -13.057  15.734  72.265  0.00  0.00    +0.000 A 
ATOM     11  C   UNL     1     -12.351  15.674  71.074  0.00  0.00    +0.003 A 
ATOM     12  C   UNL     1     -11.763  13.180  68.553  0.00  0.00    +0.133 A 
ATOM     13  N   UNL     1     -11.507  13.403  67.264  0.00  0.00    -0.221 NA
ATOM     14  C   UNL     1     -11.456  14.741  67.051  0.00  0.00    +0.179 A 
ENDROOT
BRANCH   1  15
ATOM     15  C   UNL     1     -10.981  16.659  68.634  0.00  0.00    +0.108 C 
BRANCH  15  17
ATOM     16  C   UNL     1      -8.636  17.508  68.293  0.00  0.00    +0.002 C 
ATOM     17  C   UNL     1      -9.991  17.278  67.703  0.00  0.00    +0.023 C 
ATOM     18  C   UNL     1     -10.462  18.546  67.053  0.00  0.00    +0.002 C 
ENDBRANCH  15  17
ENDBRANCH   1  15
TORSDOF 2
ENDMDL
MODEL 7
REMARK VINA RESULT:      -6.0      3.456      5.853
REMARK  Name = 
REMARK  2 active torsions:
REMARK  status: ('A' for Active; 'I' for Inactive)
REMARK    1  A    between atoms: C_2  and  C_4
REMARK    2  A    between atoms: C_4  and  N_5
REMARK                            x       y       z     vdW  Elec       q    Type
REMARK                         _______ _______ _______ _____ _____    ______ ____
ROOT
ATOM      1  N   UNL     1     -12.855  12.390  71.205  0.00  0.00    -0.309 N 
ATOM      2  C   UNL     1     -12.597  13.641  70.750  0.00  0.00    +0.083 A 
ATOM      3  C   UNL     1     -11.855  14.155  69.696  0.00  0.00    +0.035 A 
ATOM      4  C   UNL     1     -11.788  15.538  69.569  0.00  0.00    +0.084 A 
ATOM      5  N   UNL     1     -11.850  16.322  70.672  0.00  0.00    -0.226 NA
ATOM      6  C   UNL     1     -12.300  15.800  71.823  0.00  0.00    +0.189 A 
ATOM      7  N   UNL     1     -11.932  16.371  73.081  0.00  0.00    -0.106 NA
ATOM      8  C   UNL     1     -11.456  16.045  68.335  0.00  0.00    +0.019 A 
ATOM      9  C   UNL     1     -10.957  15.180  67.373  0.00  0.00    +0.002 A 
ATOM     10  C   UNL     1     -11.138  13.825  67.474  0.00  0.00    +0.000 A 
ATOM     11  C   UNL     1     -11.481  13.288  68.704  0.00  0.00    +0.003 A 
ATOM     12  C   UNL     1     -12.903  14.550  71.756  0.00  0.00    +0.133 A 
ATOM     13  N   UNL     1     -13.627  13.858  72.635  0.00  0.00    -0.221 NA
ATOM     14  C   UNL     1     -13.711  12.571  72.221  0.00  0.00    +0.179 A 
ENDROOT
BRANCH   1  15
ATOM     15  C   UNL     1     -12.214  11.214  70.694  0.00  0.00    +0.108 C 
BRANCH  15  17
ATOM     16  C   UNL     1     -11.069   9.153  71.578  0.00  0.00    +0.002 C 
ATOM     17  C   UNL     1     -12.288  10.022  71.590  0.00  0.00    +0.023 C 
ATOM     18  C   UNL     1     -13.501   9.164  71.379  0.00  0.00    +0.002 C 
ENDBRANCH  15  17
ENDBRANCH   1  15
TORSDOF 2
ENDMDL
MODEL 8
REMARK VINA RESULT:      -5.9      4.468      6.461
REMARK  Name = 
REMARK  2 active torsions:
REMARK  status: ('A' for Active; 'I' for Inactive)
REMARK    1  A    between atoms: C_2  and  C_4
REMARK    2  A    between atoms: C_4  and  N_5
REMARK                            x       y       z     vdW  Elec       q    Type
REMARK                         _______ _______ _______ _____ _____    ______ ____
ROOT
ATOM      1  N   UNL     1     -11.795   9.913  70.793  0.00  0.00    -0.309 N 
ATOM      2  C   UNL     1     -11.826  11.189  70.332  0.00  0.00    +0.083 A 
ATOM      3  C   UNL     1     -12.524  12.333  70.691  0.00  0.00    +0.035 A 
ATOM      4  C   UNL     1     -12.316  13.479  69.933  0.00  0.00    +0.084 A 
ATOM      5  N   UNL     1     -12.012  13.373  68.616  0.00  0.00    -0.226 NA
ATOM      6  C   UNL     1     -11.594  12.194  68.133  0.00  0.00    +0.189 A 
ATOM      7  N   UNL     1     -11.742  11.875  66.747  0.00  0.00    -0.106 NA
ATOM      8  C   UNL     1     -12.629  14.686  70.512  0.00  0.00    +0.019 A 
ATOM      9  C   UNL     1     -13.365  14.690  71.687  0.00  0.00    +0.002 A 
ATOM     10  C   UNL     1     -13.457  13.568  72.469  0.00  0.00    +0.000 A 
ATOM     11  C   UNL     1     -13.140  12.339  71.914  0.00  0.00    +0.003 A 
ATOM     12  C   UNL     1     -11.266  11.213  69.060  0.00  0.00    +0.133 A 
ATOM     13  N   UNL     1     -10.635  10.045  68.940  0.00  0.00    -0.221 NA
ATOM     14  C   UNL     1     -10.846   9.313  70.061  0.00  0.00    +0.179 A 
ENDROOT
BRANCH   1  15
ATOM     15  C   UNL     1     -12.699   9.409  71.784  0.00  0.00    +0.108 C 
BRANCH  15  17
ATOM     16  C   UNL     1     -14.834   8.080  71.894  0.00  0.00    +0.002 C 
ATOM     17  C   UNL     1     -13.427   8.166  71.391  0.00  0.00    +0.023 C 
ATOM     18  C   UNL     1     -12.709   6.894  71.733  0.00  0.00    +0.002 C 
ENDBRANCH  15  17
ENDBRANCH   1  15
TORSDOF 2
ENDMDL
MODEL 9
REMARK VINA RESULT:      -5.8      1.384      4.561
REMARK  Name = 
REMARK  2 active torsions:
REMARK  status: ('A' for Active; 'I' for Inactive)
REMARK    1  A    between atoms: C_2  and  C_4
REMARK    2  A    between atoms: C_4  and  N_5
REMARK                            x       y       z     vdW  Elec       q    Type
REMARK                         _______ _______ _______ _____ _____    ______ ____
ROOT
ATOM      1  N   UNL     1     -10.534  16.238  66.618  0.00  0.00    -0.309 N 
ATOM      2  C   UNL     1     -11.115  15.264  67.363  0.00  0.00    +0.083 A 
ATOM      3  C   UNL     1     -11.246  15.035  68.725  0.00  0.00    +0.035 A 
ATOM      4  C   UNL     1     -11.890  13.869  69.123  0.00  0.00    +0.084 A 
ATOM      5  N   UNL     1     -11.815  12.758  68.352  0.00  0.00    -0.226 NA
ATOM      6  C   UNL     1     -11.412  12.871  67.077  0.00  0.00    +0.189 A 
ATOM      7  N   UNL     1     -10.839  11.757  66.387  0.00  0.00    -0.106 NA
ATOM      8  C   UNL     1     -12.412  13.838  70.395  0.00  0.00    +0.019 A 
ATOM      9  C   UNL     1     -12.052  14.835  71.287  0.00  0.00    +0.002 A 
ATOM     10  C   UNL     1     -11.520  16.020  70.850  0.00  0.00    +0.000 A 
ATOM     11  C   UNL     1     -10.994  16.083  69.569  0.00  0.00    +0.003 A 
ATOM     12  C   UNL     1     -11.328  14.156  66.553  0.00  0.00    +0.133 A 
ATOM     13  N   UNL     1     -11.178  14.605  65.308  0.00  0.00    -0.221 NA
ATOM     14  C   UNL     1     -10.830  15.914  65.351  0.00  0.00    +0.179 A 
ENDROOT
BRANCH   1  15
ATOM     15  C   UNL     1      -9.722  17.281  67.172  0.00  0.00    +0.108 C 
BRANCH  15  17
ATOM     16  C   UNL     1     -10.422  19.417  66.038  0.00  0.00    +0.002 C 
ATOM     17  C   UNL     1     -10.403  18.604  67.295  0.00  0.00    +0.023 C 
ATOM     18  C   UNL     1      -9.897  19.458  68.420  0.00  0.00    +0.002 C 
ENDBRANCH  15  17
ENDBRANCH   1  15
TORSDOF 2
ENDMDL
