MODEL 1
REMARK VINA RESULT:      -7.8      0.000      0.000
REMARK  Name = 
REMARK  1 active torsions:
REMARK  status: ('A' for Active; 'I' for Inactive)
REMARK    1  A    between atoms: C_14  and  C_15
REMARK                            x       y       z     vdW  Elec       q    Type
REMARK                         _______ _______ _______ _____ _____    ______ ____
ROOT
ATOM      1  C   UNL     1     -11.280  11.426  66.523  0.00  0.00    +0.074 C 
ATOM      2  C   UNL     1     -11.652  12.491  65.566  0.00  0.00    +0.147 A 
ATOM      3  N   UNL     1     -11.473  13.800  65.787  0.00  0.00    -0.279 N 
ATOM      4  C   UNL     1     -11.123  14.306  67.081  0.00  0.00    +0.068 A 
ATOM      5  C   UNL     1     -10.939  15.650  67.387  0.00  0.00    +0.034 A 
ATOM      6  C   UNL     1     -10.733  16.783  66.474  0.00  0.00    +0.079 C 
ATOM      7  N   UNL     1     -10.776  16.666  65.178  0.00  0.00    -0.262 NA
ATOM      8  C   UNL     1     -11.719  15.939  64.378  0.00  0.00    +0.191 C 
ATOM      9  C   UNL     1     -11.076  16.128  68.686  0.00  0.00    +0.014 A 
ATOM     10  C   UNL     1     -11.668  15.298  69.629  0.00  0.00    +0.058 A 
ATOM     11 CL   UNL     1     -12.655  15.938  70.940  0.00  0.00    -0.082 Cl
ATOM     12  C   UNL     1     -11.726  13.935  69.360  0.00  0.00    +0.013 A 
ATOM     13  C   UNL     1     -11.409  13.423  68.108  0.00  0.00    +0.019 A 
ATOM     14  C   UNL     1     -11.661  14.469  64.625  0.00  0.00    +0.172 A 
ATOM     15  N   UNL     1     -12.435  13.645  63.883  0.00  0.00    -0.131 NA
ATOM     16  N   UNL     1     -12.262  12.418  64.370  0.00  0.00    -0.133 NA
ENDROOT
BRANCH   6  17
ATOM     17  C   UNL     1      -9.807  17.776  67.033  0.00  0.00    +0.028 A 
ATOM     18  C   UNL     1      -8.460  17.514  66.814  0.00  0.00    +0.059 A 
ATOM     19 CL   UNL     1      -7.944  15.858  66.500  0.00  0.00    -0.082 Cl
ATOM     20  C   UNL     1      -7.540  18.540  66.919  0.00  0.00    +0.011 A 
ATOM     21  C   UNL     1      -8.006  19.828  67.126  0.00  0.00    +0.001 A 
ATOM     22  C   UNL     1      -9.308  20.003  67.580  0.00  0.00    +0.000 A 
ATOM     23  C   UNL     1     -10.276  19.063  67.258  0.00  0.00    +0.002 A 
ENDBRANCH   6  17
TORSDOF 1
ENDMDL
MODEL 2
REMARK VINA RESULT:      -7.6      3.323      5.557
REMARK  Name = 
REMARK  1 active torsions:
REMARK  status: ('A' for Active; 'I' for Inactive)
REMARK    1  A    between atoms: C_14  and  C_15
REMARK                            x       y       z     vdW  Elec       q    Type
REMARK                         _______ _______ _______ _____ _____    ______ ____
ROOT
ATOM      1  C   UNL     1     -13.764  13.265  72.510  0.00  0.00    +0.074 C 
ATOM      2  C   UNL     1     -12.953  14.428  72.089  0.00  0.00    +0.147 A 
ATOM      3  N   UNL     1     -12.344  14.535  70.902  0.00  0.00    -0.279 N 
ATOM      4  C   UNL     1     -12.221  13.417  70.014  0.00  0.00    +0.068 A 
ATOM      5  C   UNL     1     -11.589  13.448  68.775  0.00  0.00    +0.034 A 
ATOM      6  C   UNL     1     -11.211  14.613  67.964  0.00  0.00    +0.079 C 
ATOM      7  N   UNL     1     -11.367  15.840  68.369  0.00  0.00    -0.262 NA
ATOM      8  C   UNL     1     -11.078  16.398  69.659  0.00  0.00    +0.191 C 
ATOM      9  C   UNL     1     -11.082  12.295  68.186  0.00  0.00    +0.014 A 
ATOM     10  C   UNL     1     -10.969  11.154  68.970  0.00  0.00    +0.058 A 
ATOM     11 CL   UNL     1      -9.672   9.988  68.732  0.00  0.00    -0.082 Cl
ATOM     12  C   UNL     1     -11.713  11.088  70.144  0.00  0.00    +0.013 A 
ATOM     13  C   UNL     1     -12.383  12.196  70.648  0.00  0.00    +0.019 A 
ATOM     14  C   UNL     1     -11.927  15.812  70.736  0.00  0.00    +0.172 A 
ATOM     15  N   UNL     1     -11.825  16.298  71.994  0.00  0.00    -0.131 NA
ATOM     16  N   UNL     1     -12.609  15.542  72.761  0.00  0.00    -0.133 NA
ENDROOT
BRANCH   6  17
ATOM     17  C   UNL     1     -11.361  14.352  66.527  0.00  0.00    +0.028 A 
ATOM     18  C   UNL     1     -10.172  14.145  65.839  0.00  0.00    +0.059 A 
ATOM     19 CL   UNL     1      -8.671  14.793  66.498  0.00  0.00    -0.082 Cl
ATOM     20  C   UNL     1     -10.196  13.502  64.616  0.00  0.00    +0.011 A 
ATOM     21  C   UNL     1     -11.396  12.977  64.167  0.00  0.00    +0.001 A 
ATOM     22  C   UNL     1     -12.578  13.415  64.752  0.00  0.00    +0.000 A 
ATOM     23  C   UNL     1     -12.569  13.842  66.072  0.00  0.00    +0.002 A 
ENDBRANCH   6  17
TORSDOF 1
ENDMDL
MODEL 3
REMARK VINA RESULT:      -7.3      2.305      5.894
REMARK  Name = 
REMARK  1 active torsions:
REMARK  status: ('A' for Active; 'I' for Inactive)
REMARK    1  A    between atoms: C_14  and  C_15
REMARK                            x       y       z     vdW  Elec       q    Type
REMARK                         _______ _______ _______ _____ _____    ______ ____
ROOT
ATOM      1  C   UNL     1     -10.136  17.491  65.792  0.00  0.00    +0.074 C 
ATOM      2  C   UNL     1     -10.921  16.372  65.227  0.00  0.00    +0.147 A 
ATOM      3  N   UNL     1     -10.936  15.131  65.729  0.00  0.00    -0.279 N 
ATOM      4  C   UNL     1      -9.996  14.708  66.724  0.00  0.00    +0.068 A 
ATOM      5  C   UNL     1      -9.941  13.433  67.278  0.00  0.00    +0.034 A 
ATOM      6  C   UNL     1     -10.956  12.371  67.246  0.00  0.00    +0.079 C 
ATOM      7  N   UNL     1     -12.074  12.478  66.588  0.00  0.00    -0.262 NA
ATOM      8  C   UNL     1     -12.286  12.990  65.265  0.00  0.00    +0.191 C 
ATOM      9  C   UNL     1      -8.774  12.935  67.847  0.00  0.00    +0.014 A 
ATOM     10  C   UNL     1      -7.588  13.620  67.615  0.00  0.00    +0.058 A 
ATOM     11 CL   UNL     1      -6.044  12.784  67.485  0.00  0.00    -0.082 Cl
ATOM     12  C   UNL     1      -7.666  14.940  67.185  0.00  0.00    +0.013 A 
ATOM     13  C   UNL     1      -8.869  15.510  66.786  0.00  0.00    +0.019 A 
ATOM     14  C   UNL     1     -11.948  14.439  65.154  0.00  0.00    +0.172 A 
ATOM     15  N   UNL     1     -12.175  15.082  63.986  0.00  0.00    -0.131 NA
ATOM     16  N   UNL     1     -11.699  16.317  64.131  0.00  0.00    -0.133 NA
ENDROOT
BRANCH   6  17
ATOM     17  C   UNL     1     -10.976  11.596  68.493  0.00  0.00    +0.028 A 
ATOM     18  C   UNL     1     -11.765  12.130  69.505  0.00  0.00    +0.059 A 
ATOM     19 CL   UNL     1     -12.130  13.854  69.495  0.00  0.00    -0.082 Cl
ATOM     20  C   UNL     1     -12.187  11.316  70.540  0.00  0.00    +0.011 A 
ATOM     21  C   UNL     1     -11.906   9.962  70.474  0.00  0.00    +0.001 A 
ATOM     22  C   UNL     1     -10.923   9.524  69.595  0.00  0.00    +0.000 A 
ATOM     23  C   UNL     1     -10.678  10.242  68.433  0.00  0.00    +0.002 A 
ENDBRANCH   6  17
TORSDOF 1
ENDMDL
MODEL 4
REMARK VINA RESULT:      -7.2      3.134      5.936
REMARK  Name = 
REMARK  1 active torsions:
REMARK  status: ('A' for Active; 'I' for Inactive)
REMARK    1  A    between atoms: C_14  and  C_15
REMARK                            x       y       z     vdW  Elec       q    Type
REMARK                         _______ _______ _______ _____ _____    ______ ____
ROOT
ATOM      1  C   UNL     1     -13.370  14.916  71.191  0.00  0.00    +0.074 C 
ATOM      2  C   UNL     1     -12.220  15.417  70.408  0.00  0.00    +0.147 A 
ATOM      3  N   UNL     1     -11.605  14.723  69.442  0.00  0.00    -0.279 N 
ATOM      4  C   UNL     1     -11.853  13.326  69.241  0.00  0.00    +0.068 A 
ATOM      5  C   UNL     1     -11.240  12.539  68.272  0.00  0.00    +0.034 A 
ATOM      6  C   UNL     1     -10.496  12.963  67.078  0.00  0.00    +0.079 C 
ATOM      7  N   UNL     1     -10.242  14.210  66.806  0.00  0.00    -0.262 NA
ATOM      8  C   UNL     1      -9.791  15.243  67.693  0.00  0.00    +0.191 C 
ATOM      9  C   UNL     1     -11.138  11.159  68.411  0.00  0.00    +0.014 A 
ATOM     10  C   UNL     1     -11.410  10.604  69.654  0.00  0.00    +0.058 A 
ATOM     11 CL   UNL     1     -10.568   9.172  70.236  0.00  0.00    -0.082 Cl
ATOM     12  C   UNL     1     -12.139  11.361  70.565  0.00  0.00    +0.013 A 
ATOM     13  C   UNL     1     -12.409  12.706  70.348  0.00  0.00    +0.019 A 
ATOM     14  C   UNL     1     -10.790  15.557  68.755  0.00  0.00    +0.172 A 
ATOM     15  N   UNL     1     -10.540  16.569  69.617  0.00  0.00    -0.131 NA
ATOM     16  N   UNL     1     -11.531  16.568  70.505  0.00  0.00    -0.133 NA
ENDROOT
BRANCH   6  17
ATOM     17  C   UNL     1     -10.718  12.055  65.945  0.00  0.00    +0.028 A 
ATOM     18  C   UNL     1     -11.666  12.483  65.023  0.00  0.00    +0.059 A 
ATOM     19 CL   UNL     1     -12.904  13.630  65.531  0.00  0.00    -0.082 Cl
ATOM     20  C   UNL     1     -11.667  11.949  63.749  0.00  0.00    +0.011 A 
ATOM     21  C   UNL     1     -10.646  11.084  63.393  0.00  0.00    +0.001 A 
ATOM     22  C   UNL     1      -9.882  10.501  64.397  0.00  0.00    +0.000 A 
ATOM     23  C   UNL     1      -9.703  11.175  65.597  0.00  0.00    +0.002 A 
ENDBRANCH   6  17
TORSDOF 1
ENDMDL
MODEL 5
REMARK VINA RESULT:      -6.9      2.819      4.132
REMARK  Name = 
REMARK  1 active torsions:
REMARK  status: ('A' for Active; 'I' for Inactive)
REMARK    1  A    between atoms: C_14  and  C_15
REMARK                            x       y       z     vdW  Elec       q    Type
REMARK                         _______ _______ _______ _____ _____    ______ ____
ROOT
ATOM      1  C   UNL     1      -9.534  10.225  64.289  0.00  0.00    +0.074 C 
ATOM      2  C   UNL     1     -10.679  11.159  64.222  0.00  0.00    +0.147 A 
ATOM      3  N   UNL     1     -11.168  11.831  65.272  0.00  0.00    -0.279 N 
ATOM      4  C   UNL     1     -10.777  11.520  66.615  0.00  0.00    +0.068 A 
ATOM      5  C   UNL     1     -11.254  12.162  67.753  0.00  0.00    +0.034 A 
ATOM      6  C   UNL     1     -11.963  13.445  67.857  0.00  0.00    +0.079 C 
ATOM      7  N   UNL     1     -12.318  14.145  66.819  0.00  0.00    -0.262 NA
ATOM      8  C   UNL     1     -12.917  13.690  65.597  0.00  0.00    +0.191 C 
ATOM      9  C   UNL     1     -11.233  11.547  69.000  0.00  0.00    +0.014 A 
ATOM     10  C   UNL     1     -10.982  10.182  69.053  0.00  0.00    +0.058 A 
ATOM     11 CL   UNL     1     -11.717   9.150  70.275  0.00  0.00    -0.082 Cl
ATOM     12  C   UNL     1     -10.383   9.582  67.951  0.00  0.00    +0.013 A 
ATOM     13  C   UNL     1     -10.230  10.255  66.745  0.00  0.00    +0.019 A 
ATOM     14  C   UNL     1     -12.016  12.786  64.825  0.00  0.00    +0.172 A 
ATOM     15  N   UNL     1     -12.412  12.343  63.609  0.00  0.00    -0.131 NA
ATOM     16  N   UNL     1     -11.478  11.490  63.191  0.00  0.00    -0.133 NA
ENDROOT
BRANCH   6  17
ATOM     17  C   UNL     1     -11.590  14.179  69.072  0.00  0.00    +0.028 A 
ATOM     18  C   UNL     1     -10.598  15.136  68.902  0.00  0.00    +0.059 A 
ATOM     19 CL   UNL     1      -9.482  14.987  67.546  0.00  0.00    -0.082 Cl
ATOM     20  C   UNL     1     -10.456  16.145  69.836  0.00  0.00    +0.011 A 
ATOM     21  C   UNL     1     -11.386  16.237  70.857  0.00  0.00    +0.001 A 
ATOM     22  C   UNL     1     -12.193  15.138  71.129  0.00  0.00    +0.000 A 
ATOM     23  C   UNL     1     -12.515  14.258  70.105  0.00  0.00    +0.002 A 
ENDBRANCH   6  17
TORSDOF 1
ENDMDL
MODEL 6
REMARK VINA RESULT:      -6.7      3.661      5.057
REMARK  Name = 
REMARK  1 active torsions:
REMARK  status: ('A' for Active; 'I' for Inactive)
REMARK    1  A    between atoms: C_14  and  C_15
REMARK                            x       y       z     vdW  Elec       q    Type
REMARK                         _______ _______ _______ _____ _____    ______ ____
ROOT
ATOM      1  C   UNL     1      -8.618  10.248  66.940  0.00  0.00    +0.074 C 
ATOM      2  C   UNL     1      -9.594  11.261  66.482  0.00  0.00    +0.147 A 
ATOM      3  N   UNL     1     -10.447  11.906  67.287  0.00  0.00    -0.279 N 
ATOM      4  C   UNL     1     -10.660  11.497  68.643  0.00  0.00    +0.068 A 
ATOM      5  C   UNL     1     -11.541  12.107  69.531  0.00  0.00    +0.034 A 
ATOM      6  C   UNL     1     -12.177  13.428  69.433  0.00  0.00    +0.079 C 
ATOM      7  N   UNL     1     -12.042  14.206  68.399  0.00  0.00    -0.262 NA
ATOM      8  C   UNL     1     -12.097  13.860  67.008  0.00  0.00    +0.191 C 
ATOM      9  C   UNL     1     -12.063  11.426  70.624  0.00  0.00    +0.014 A 
ATOM     10  C   UNL     1     -11.912  10.046  70.669  0.00  0.00    +0.058 A 
ATOM     11 CL   UNL     1     -13.128   9.002  71.397  0.00  0.00    -0.082 Cl
ATOM     12  C   UNL     1     -10.934   9.467  69.867  0.00  0.00    +0.013 A 
ATOM     13  C   UNL     1     -10.268  10.192  68.887  0.00  0.00    +0.019 A 
ATOM     14  C   UNL     1     -10.994  12.941  66.606  0.00  0.00    +0.172 A 
ATOM     15  N   UNL     1     -10.868  12.591  65.305  0.00  0.00    -0.131 NA
ATOM     16  N   UNL     1      -9.880  11.701  65.243  0.00  0.00    -0.133 NA
ENDROOT
BRANCH   6  17
ATOM     17  C   UNL     1     -12.313  14.068  70.748  0.00  0.00    +0.028 A 
ATOM     18  C   UNL     1     -11.511  15.186  70.945  0.00  0.00    +0.059 A 
ATOM     19 CL   UNL     1     -10.046  15.375  69.984  0.00  0.00    -0.082 Cl
ATOM     20  C   UNL     1     -11.835  16.089  71.939  0.00  0.00    +0.011 A 
ATOM     21  C   UNL     1     -13.019  15.913  72.634  0.00  0.00    +0.001 A 
ATOM     22  C   UNL     1     -13.648  14.676  72.580  0.00  0.00    +0.000 A 
ATOM     23  C   UNL     1     -13.492  13.879  71.455  0.00  0.00    +0.002 A 
ENDBRANCH   6  17
TORSDOF 1
ENDMDL
MODEL 7
REMARK VINA RESULT:      -6.6      3.720      7.103
REMARK  Name = 
REMARK  1 active torsions:
REMARK  status: ('A' for Active; 'I' for Inactive)
REMARK    1  A    between atoms: C_14  and  C_15
REMARK                            x       y       z     vdW  Elec       q    Type
REMARK                         _______ _______ _______ _____ _____    ______ ____
ROOT
ATOM      1  C   UNL     1     -11.707  15.874  68.980  0.00  0.00    +0.074 C 
ATOM      2  C   UNL     1     -12.087  14.661  69.735  0.00  0.00    +0.147 A 
ATOM      3  N   UNL     1     -11.871  13.409  69.312  0.00  0.00    -0.279 N 
ATOM      4  C   UNL     1     -11.466  13.127  67.966  0.00  0.00    +0.068 A 
ATOM      5  C   UNL     1     -11.240  11.855  67.452  0.00  0.00    +0.034 A 
ATOM      6  C   UNL     1     -11.040  10.592  68.175  0.00  0.00    +0.079 C 
ATOM      7  N   UNL     1     -11.129  10.494  69.470  0.00  0.00    -0.262 NA
ATOM      8  C   UNL     1     -12.116  11.065  70.343  0.00  0.00    +0.191 C 
ATOM      9  C   UNL     1     -11.322  11.594  66.089  0.00  0.00    +0.014 A 
ATOM     10  C   UNL     1     -11.901  12.557  65.272  0.00  0.00    +0.058 A 
ATOM     11 CL   UNL     1     -12.827  12.124  63.839  0.00  0.00    -0.082 Cl
ATOM     12  C   UNL     1     -12.000  13.857  65.757  0.00  0.00    +0.013 A 
ATOM     13  C   UNL     1     -11.737  14.162  67.087  0.00  0.00    +0.019 A 
ATOM     14  C   UNL     1     -12.083  12.555  70.341  0.00  0.00    +0.172 A 
ATOM     15  N   UNL     1     -12.901  13.234  71.178  0.00  0.00    -0.131 NA
ATOM     16  N   UNL     1     -12.740  14.527  70.904  0.00  0.00    -0.133 NA
ENDROOT
BRANCH   6  17
ATOM     17  C   UNL     1     -10.072   9.720  67.497  0.00  0.00    +0.028 A 
ATOM     18  C   UNL     1      -8.748   9.903  67.876  0.00  0.00    +0.059 A 
ATOM     19 CL   UNL     1      -8.256  11.444  68.574  0.00  0.00    -0.082 Cl
ATOM     20  C   UNL     1      -7.826   8.902  67.632  0.00  0.00    +0.011 A 
ATOM     21  C   UNL     1      -8.276   7.697  67.121  0.00  0.00    +0.001 A 
ATOM     22  C   UNL     1      -9.535   7.648  66.535  0.00  0.00    +0.000 A 
ATOM     23  C   UNL     1     -10.524   8.519  66.967  0.00  0.00    +0.002 A 
ENDBRANCH   6  17
TORSDOF 1
ENDMDL
MODEL 8
REMARK VINA RESULT:      -6.5      3.136      6.141
REMARK  Name = 
REMARK  1 active torsions:
REMARK  status: ('A' for Active; 'I' for Inactive)
REMARK    1  A    between atoms: C_14  and  C_15
REMARK                            x       y       z     vdW  Elec       q    Type
REMARK                         _______ _______ _______ _____ _____    ______ ____
ROOT
ATOM      1  C   UNL     1      -5.946  19.587  69.284  0.00  0.00    +0.074 C 
ATOM      2  C   UNL     1      -7.088  19.733  68.356  0.00  0.00    +0.147 A 
ATOM      3  N   UNL     1      -8.096  18.857  68.256  0.00  0.00    -0.279 N 
ATOM      4  C   UNL     1      -8.037  17.565  68.872  0.00  0.00    +0.068 A 
ATOM      5  C   UNL     1      -9.036  16.600  68.797  0.00  0.00    +0.034 A 
ATOM      6  C   UNL     1     -10.439  16.757  68.390  0.00  0.00    +0.079 C 
ATOM      7  N   UNL     1     -10.929  17.881  67.952  0.00  0.00    -0.262 NA
ATOM      8  C   UNL     1     -10.350  18.803  67.016  0.00  0.00    +0.191 C 
ATOM      9  C   UNL     1      -8.760  15.250  68.980  0.00  0.00    +0.014 A 
ATOM     10  C   UNL     1      -7.431  14.845  68.968  0.00  0.00    +0.058 A 
ATOM     11 CL   UNL     1      -6.945  13.273  68.343  0.00  0.00    -0.082 Cl
ATOM     12  C   UNL     1      -6.450  15.809  69.176  0.00  0.00    +0.013 A 
ATOM     13  C   UNL     1      -6.747  17.166  69.180  0.00  0.00    +0.019 A 
ATOM     14  C   UNL     1      -9.091  19.417  67.528  0.00  0.00    +0.172 A 
ATOM     15  N   UNL     1      -8.475  20.369  66.791  0.00  0.00    -0.131 NA
ATOM     16  N   UNL     1      -7.342  20.669  67.424  0.00  0.00    -0.133 NA
ENDROOT
BRANCH   6  17
ATOM     17  C   UNL     1     -11.333  15.886  69.162  0.00  0.00    +0.028 A 
ATOM     18  C   UNL     1     -11.665  14.686  68.543  0.00  0.00    +0.059 A 
ATOM     19 CL   UNL     1     -11.560  14.564  66.789  0.00  0.00    -0.082 Cl
ATOM     20  C   UNL     1     -12.140  13.636  69.306  0.00  0.00    +0.011 A 
ATOM     21  C   UNL     1     -12.162  13.774  70.683  0.00  0.00    +0.001 A 
ATOM     22  C   UNL     1     -12.063  15.047  71.230  0.00  0.00    +0.000 A 
ATOM     23  C   UNL     1     -11.370  16.034  70.542  0.00  0.00    +0.002 A 
ENDBRANCH   6  17
TORSDOF 1
ENDMDL
MODEL 9
REMARK VINA RESULT:      -6.3      2.582      3.446
REMARK  Name = 
REMARK  1 active torsions:
REMARK  status: ('A' for Active; 'I' for Inactive)
REMARK    1  A    between atoms: C_14  and  C_15
REMARK                            x       y       z     vdW  Elec       q    Type
REMARK                         _______ _______ _______ _____ _____    ______ ____
ROOT
ATOM      1  C   UNL     1      -9.042  10.666  66.435  0.00  0.00    +0.074 C 
ATOM      2  C   UNL     1     -10.194  11.244  67.160  0.00  0.00    +0.147 A 
ATOM      3  N   UNL     1     -10.281  12.525  67.539  0.00  0.00    -0.279 N 
ATOM      4  C   UNL     1      -9.151  13.405  67.491  0.00  0.00    +0.068 A 
ATOM      5  C   UNL     1      -9.163  14.740  67.884  0.00  0.00    +0.034 A 
ATOM      6  C   UNL     1     -10.315  15.623  68.110  0.00  0.00    +0.079 C 
ATOM      7  N   UNL     1     -11.548  15.212  68.037  0.00  0.00    -0.262 NA
ATOM      8  C   UNL     1     -12.120  14.006  68.562  0.00  0.00    +0.191 C 
ATOM      9  C   UNL     1      -7.999  15.397  68.268  0.00  0.00    +0.014 A 
ATOM     10  C   UNL     1      -6.867  14.631  68.518  0.00  0.00    +0.058 A 
ATOM     11 CL   UNL     1      -5.689  15.089  69.744  0.00  0.00    -0.082 Cl
ATOM     12  C   UNL     1      -6.821  13.340  68.004  0.00  0.00    +0.013 A 
ATOM     13  C   UNL     1      -7.940  12.736  67.444  0.00  0.00    +0.019 A 
ATOM     14  C   UNL     1     -11.553  12.783  67.925  0.00  0.00    +0.172 A 
ATOM     15  N   UNL     1     -12.055  11.572  68.259  0.00  0.00    -0.131 NA
ATOM     16  N   UNL     1     -11.314  10.664  67.627  0.00  0.00    -0.133 NA
ENDROOT
BRANCH   6  17
ATOM     17  C   UNL     1     -10.036  17.003  67.696  0.00  0.00    +0.028 A 
ATOM     18  C   UNL     1     -10.331  17.292  66.369  0.00  0.00    +0.059 A 
ATOM     19 CL   UNL     1     -10.387  15.979  65.195  0.00  0.00    -0.082 Cl
ATOM     20  C   UNL     1     -10.503  18.607  65.980  0.00  0.00    +0.011 A 
ATOM     21  C   UNL     1     -10.489  19.592  66.952  0.00  0.00    +0.001 A 
ATOM     22  C   UNL     1      -9.953  19.295  68.199  0.00  0.00    +0.000 A 
ATOM     23  C   UNL     1     -10.005  17.991  68.671  0.00  0.00    +0.002 A 
ENDBRANCH   6  17
TORSDOF 1
ENDMDL
