MODEL 1
REMARK VINA RESULT:      -6.9      0.000      0.000
REMARK  Name = 
REMARK  26 active torsions:
REMARK  status: ('A' for Active; 'I' for Inactive)
REMARK    1  A    between atoms: O_2  and  C_3
REMARK    2  A    between atoms: C_6  and  C_7
REMARK    3  A    between atoms: C_7  and  C_8
REMARK    4  A    between atoms: C_11  and  O_12
REMARK    5  A    between atoms: C_14  and  O_15
REMARK    6  A    between atoms: N_21  and  C_23
REMARK    7  A    between atoms: C_23  and  C_24
REMARK    8  A    between atoms: C_24  and  C_25
REMARK    9  A    between atoms: C_25  and  O_27
REMARK   10  A    between atoms: O_27  and  C_28
REMARK   11  A    between atoms: C_28  and  C_29
REMARK   12  A    between atoms: C_29  and  C_30
REMARK   13  A    between atoms: C_30  and  C_31
REMARK   14  A    between atoms: C_31  and  C_32
REMARK   15  A    between atoms: C_32  and  O_33
REMARK   16  A    between atoms: O_33  and  C_34
REMARK   17  A    between atoms: C_34  and  C_36
REMARK   18  A    between atoms: C_36  and  C_37
REMARK   19  A    between atoms: C_37  and  N_38
REMARK   20  A    between atoms: C_44  and  O_45
REMARK   21  A    between atoms: C_47  and  O_48
REMARK   22  A    between atoms: C_52  and  C_53
REMARK   23  A    between atoms: C_53  and  C_54
REMARK   24  A    between atoms: C_57  and  O_58
REMARK   25  A    between atoms: C_60  and  O_61
REMARK   26  A    between atoms: C_65  and  O_66
REMARK                            x       y       z     vdW  Elec       q    Type
REMARK                         _______ _______ _______ _____ _____    ______ ____
ROOT
ATOM      1  C   UNL     1     -11.713  10.849  68.816  0.00  0.00    +0.008 C 
ENDROOT
BRANCH   1   2
ATOM      2  C   UNL     1     -10.465  11.419  68.152  0.00  0.00    +0.048 C 
BRANCH   2   3
ATOM      3  C   UNL     1     -10.804  11.567  66.705  0.00  0.00    +0.208 C 
BRANCH   3   4
ATOM      4  O   UNL     1     -12.099  12.105  66.477  0.00  0.00    -0.448 OA
BRANCH   4   5
ATOM      5  C   UNL     1     -12.261  13.071  65.479  0.00  0.00    +0.323 C 
ATOM      6  O   UNL     1     -12.914  12.665  64.469  0.00  0.00    -0.250 OA
BRANCH   5   7
ATOM      7  C   UNL     1     -11.736  14.455  65.592  0.00  0.00    +0.170 C 
BRANCH   7   8
ATOM      8  C   UNL     1     -11.390  14.822  67.027  0.00  0.00    +0.121 C 
BRANCH   8   9
ATOM      9  N   UNL     1     -10.121  15.511  67.017  0.00  0.00    +0.301 N 
ATOM     10  C   UNL     1      -9.621  15.457  68.534  0.00  0.00    +0.086 C 
ATOM     11  C   UNL     1      -8.601  16.706  68.314  0.00  0.00    +0.027 A 
ATOM     12  C   UNL     1      -7.549  16.402  67.472  0.00  0.00    -0.012 A 
ATOM     13  C   UNL     1      -6.743  17.428  67.048  0.00  0.00    +0.036 A 
ATOM     14  C   UNL     1      -6.988  18.713  67.515  0.00  0.00    +0.172 A 
ATOM     15  C   UNL     1      -8.154  18.975  68.225  0.00  0.00    +0.172 A 
ATOM     16  C   UNL     1      -7.700  15.114  66.742  0.00  0.00    +0.087 C 
ATOM     17  C   UNL     1      -8.885  17.922  68.769  0.00  0.00    +0.041 A 
ATOM     18  C   UNL     1      -9.097  14.857  66.276  0.00  0.00    +0.114 C 
ATOM     19  C   UNL     1     -10.349  16.880  66.718  0.00  0.00    +0.171 C 
BRANCH  14  20
ATOM     20  O   UNL     1      -6.408  19.748  66.776  0.00  0.00    -0.468 OA
ATOM     21  C   UNL     1      -5.370  19.430  65.878  0.00  0.00    +0.253 C 
ENDBRANCH  14  20
BRANCH  15  22
ATOM     22  O   UNL     1      -8.763  20.223  68.046  0.00  0.00    -0.468 OA
ATOM     23  C   UNL     1      -9.851  20.398  67.176  0.00  0.00    +0.253 C 
ENDBRANCH  15  22
BRANCH  10  24
ATOM     24  C   UNL     1     -10.914  16.384  69.050  0.00  0.00    +0.086 C 
BRANCH  24  25
ATOM     25  C   UNL     1     -11.323  15.599  70.261  0.00  0.00    -0.013 A 
ATOM     26  C   UNL     1     -11.723  16.225  71.437  0.00  0.00    +0.036 A 
ATOM     27  C   UNL     1     -12.570  15.600  72.349  0.00  0.00    +0.172 A 
ATOM     28  C   UNL     1     -13.414  14.632  71.815  0.00  0.00    +0.172 A 
ATOM     29  C   UNL     1     -12.836  13.839  70.831  0.00  0.00    +0.040 A 
ATOM     30  C   UNL     1     -11.671  14.255  70.194  0.00  0.00    -0.001 A 
BRANCH  28  31
ATOM     31  O   UNL     1     -14.766  14.549  72.129  0.00  0.00    -0.468 OA
ATOM     32  C   UNL     1     -15.735  15.156  71.297  0.00  0.00    +0.253 C 
ENDBRANCH  28  31
BRANCH  27  33
ATOM     33  O   UNL     1     -13.047  16.288  73.471  0.00  0.00    -0.468 OA
ATOM     34  C   UNL     1     -12.517  15.976  74.743  0.00  0.00    +0.253 C 
ENDBRANCH  27  33
ENDBRANCH  24  25
ENDBRANCH  10  24
ENDBRANCH   8   9
ENDBRANCH   7   8
ENDBRANCH   5   7
ENDBRANCH   4   5
ENDBRANCH   3   4
ENDBRANCH   2   3
ENDBRANCH   1   2
BRANCH   1  35
ATOM     35  C   UNL     1     -11.452  10.391  70.224  0.00  0.00    +0.048 C 
BRANCH  35  36
ATOM     36  C   UNL     1     -12.699  10.310  71.068  0.00  0.00    +0.208 C 
BRANCH  36  37
ATOM     37  O   UNL     1     -12.689   9.250  71.986  0.00  0.00    -0.448 OA
BRANCH  37  38
ATOM     38  C   UNL     1     -13.390   8.068  71.770  0.00  0.00    +0.323 C 
ATOM     39  O   UNL     1     -14.642   8.206  71.620  0.00  0.00    -0.250 OA
BRANCH  38  40
ATOM     40  C   UNL     1     -12.739   6.734  71.709  0.00  0.00    +0.170 C 
BRANCH  40  41
ATOM     41  C   UNL     1     -11.729   6.699  70.567  0.00  0.00    +0.121 C 
BRANCH  41  43
ATOM     42  C   UNL     1      -9.486   6.191  69.710  0.00  0.00    +0.086 C 
ATOM     43  N   UNL     1     -10.442   6.355  70.972  0.00  0.00    +0.301 N 
ATOM     44  C   UNL     1      -9.727   7.393  71.716  0.00  0.00    +0.171 C 
ATOM     45  C   UNL     1     -10.370   5.165  71.730  0.00  0.00    +0.114 C 
ATOM     46  C   UNL     1      -9.209   4.265  71.464  0.00  0.00    +0.087 C 
ATOM     47  C   UNL     1      -9.413   3.809  70.051  0.00  0.00    -0.012 A 
ATOM     48  C   UNL     1      -9.124   2.543  69.612  0.00  0.00    +0.036 A 
ATOM     49  C   UNL     1      -8.841   2.421  68.257  0.00  0.00    +0.172 A 
ATOM     50  C   UNL     1      -9.412   3.359  67.406  0.00  0.00    +0.172 A 
ATOM     51  C   UNL     1     -10.005   4.500  67.917  0.00  0.00    +0.041 A 
ATOM     52  C   UNL     1     -10.122   4.738  69.286  0.00  0.00    +0.027 A 
BRANCH  50  53
ATOM     53  O   UNL     1      -9.123   3.207  66.046  0.00  0.00    -0.468 OA
ATOM     54  C   UNL     1      -9.733   4.075  65.094  0.00  0.00    +0.253 C 
ENDBRANCH  50  53
BRANCH  49  55
ATOM     55  O   UNL     1      -7.855   1.539  67.797  0.00  0.00    -0.468 OA
ATOM     56  C   UNL     1      -7.381   0.484  68.631  0.00  0.00    +0.253 C 
ENDBRANCH  49  55
BRANCH  42  57
ATOM     57  C   UNL     1     -10.498   7.011  68.668  0.00  0.00    +0.086 C 
BRANCH  57  61
ATOM     58  C   UNL     1      -7.745   9.243  66.366  0.00  0.00    +0.172 A 
ATOM     59  C   UNL     1      -7.613   9.166  67.740  0.00  0.00    +0.172 A 
ATOM     60  C   UNL     1      -8.435   8.275  68.414  0.00  0.00    +0.036 A 
ATOM     61  C   UNL     1      -9.597   7.820  67.828  0.00  0.00    -0.013 A 
ATOM     62  C   UNL     1      -9.721   7.873  66.466  0.00  0.00    -0.001 A 
ATOM     63  C   UNL     1      -8.888   8.720  65.774  0.00  0.00    +0.040 A 
BRANCH  58  65
ATOM     64  C   UNL     1      -5.923   9.128  65.029  0.00  0.00    +0.253 C 
ATOM     65  O   UNL     1      -6.704   9.789  65.642  0.00  0.00    -0.468 OA
ENDBRANCH  58  65
BRANCH  59  66
ATOM     66  O   UNL     1      -6.810  10.071  68.406  0.00  0.00    -0.468 OA
ATOM     67  C   UNL     1      -6.776  10.050  69.825  0.00  0.00    +0.253 C 
ENDBRANCH  59  66
ENDBRANCH  57  61
ENDBRANCH  42  57
ENDBRANCH  41  43
ENDBRANCH  40  41
ENDBRANCH  38  40
ENDBRANCH  37  38
ENDBRANCH  36  37
ENDBRANCH  35  36
ENDBRANCH   1  35
TORSDOF 26
ENDMDL
MODEL 2
REMARK VINA RESULT:      -6.7      2.132      6.160
REMARK  Name = 
REMARK  26 active torsions:
REMARK  status: ('A' for Active; 'I' for Inactive)
REMARK    1  A    between atoms: O_2  and  C_3
REMARK    2  A    between atoms: C_6  and  C_7
REMARK    3  A    between atoms: C_7  and  C_8
REMARK    4  A    between atoms: C_11  and  O_12
REMARK    5  A    between atoms: C_14  and  O_15
REMARK    6  A    between atoms: N_21  and  C_23
REMARK    7  A    between atoms: C_23  and  C_24
REMARK    8  A    between atoms: C_24  and  C_25
REMARK    9  A    between atoms: C_25  and  O_27
REMARK   10  A    between atoms: O_27  and  C_28
REMARK   11  A    between atoms: C_28  and  C_29
REMARK   12  A    between atoms: C_29  and  C_30
REMARK   13  A    between atoms: C_30  and  C_31
REMARK   14  A    between atoms: C_31  and  C_32
REMARK   15  A    between atoms: C_32  and  O_33
REMARK   16  A    between atoms: O_33  and  C_34
REMARK   17  A    between atoms: C_34  and  C_36
REMARK   18  A    between atoms: C_36  and  C_37
REMARK   19  A    between atoms: C_37  and  N_38
REMARK   20  A    between atoms: C_44  and  O_45
REMARK   21  A    between atoms: C_47  and  O_48
REMARK   22  A    between atoms: C_52  and  C_53
REMARK   23  A    between atoms: C_53  and  C_54
REMARK   24  A    between atoms: C_57  and  O_58
REMARK   25  A    between atoms: C_60  and  O_61
REMARK   26  A    between atoms: C_65  and  O_66
REMARK                            x       y       z     vdW  Elec       q    Type
REMARK                         _______ _______ _______ _____ _____    ______ ____
ROOT
ATOM      1  C   UNL     1      -6.208  16.226  67.981  0.00  0.00    +0.008 C 
ENDROOT
BRANCH   1   2
ATOM      2  C   UNL     1      -6.471  17.673  67.576  0.00  0.00    +0.048 C 
BRANCH   2   3
ATOM      3  C   UNL     1      -7.639  18.120  68.393  0.00  0.00    +0.208 C 
BRANCH   3   4
ATOM      4  O   UNL     1      -8.490  19.033  67.714  0.00  0.00    -0.448 OA
BRANCH   4   5
ATOM      5  C   UNL     1      -9.776  18.615  67.357  0.00  0.00    +0.323 C 
ATOM      6  O   UNL     1     -10.705  19.322  67.857  0.00  0.00    -0.250 OA
BRANCH   5   7
ATOM      7  C   UNL     1     -10.039  17.463  66.460  0.00  0.00    +0.170 C 
BRANCH   7   8
ATOM      8  C   UNL     1     -10.446  16.215  67.231  0.00  0.00    +0.121 C 
BRANCH   8   9
ATOM      9  N   UNL     1     -10.665  15.154  66.276  0.00  0.00    +0.301 N 
ATOM     10  C   UNL     1     -11.892  14.323  66.873  0.00  0.00    +0.086 C 
ATOM     11  C   UNL     1     -11.520  13.007  65.989  0.00  0.00    +0.027 A 
ATOM     12  C   UNL     1     -11.708  13.196  64.635  0.00  0.00    -0.012 A 
ATOM     13  C   UNL     1     -11.234  12.237  63.776  0.00  0.00    +0.036 A 
ATOM     14  C   UNL     1     -10.631  11.101  64.302  0.00  0.00    +0.172 A 
ATOM     15  C   UNL     1     -10.328  11.051  65.658  0.00  0.00    +0.172 A 
ATOM     16  C   UNL     1     -11.950  14.611  64.239  0.00  0.00    +0.087 C 
ATOM     17  C   UNL     1     -10.930  11.949  66.536  0.00  0.00    +0.041 A 
ATOM     18  C   UNL     1     -11.111  15.589  64.997  0.00  0.00    +0.114 C 
ATOM     19  C   UNL     1      -9.543  14.284  66.297  0.00  0.00    +0.171 C 
BRANCH  14  20
ATOM     20  O   UNL     1      -9.842  10.366  63.413  0.00  0.00    -0.468 OA
ATOM     21  C   UNL     1      -9.143  11.061  62.406  0.00  0.00    +0.253 C 
ENDBRANCH  14  20
BRANCH  15  22
ATOM     22  O   UNL     1      -9.162  10.379  66.044  0.00  0.00    -0.468 OA
ATOM     23  C   UNL     1      -7.929  11.042  66.156  0.00  0.00    +0.253 C 
ENDBRANCH  15  22
BRANCH  10  24
ATOM     24  C   UNL     1     -11.007  13.878  68.220  0.00  0.00    +0.086 C 
BRANCH  24  25
ATOM     25  C   UNL     1     -12.061  14.024  69.277  0.00  0.00    -0.013 A 
ATOM     26  C   UNL     1     -12.396  12.973  70.125  0.00  0.00    +0.036 A 
ATOM     27  C   UNL     1     -12.941  13.194  71.387  0.00  0.00    +0.172 A 
ATOM     28  C   UNL     1     -12.622  14.416  71.970  0.00  0.00    +0.172 A 
ATOM     29  C   UNL     1     -12.594  15.489  71.088  0.00  0.00    +0.040 A 
ATOM     30  C   UNL     1     -12.505  15.264  69.718  0.00  0.00    -0.001 A 
BRANCH  28  31
ATOM     31  O   UNL     1     -12.221  14.541  73.296  0.00  0.00    -0.468 OA
ATOM     32  C   UNL     1     -12.479  15.731  74.015  0.00  0.00    +0.253 C 
ENDBRANCH  28  31
BRANCH  27  33
ATOM     33  O   UNL     1     -13.169  12.128  72.265  0.00  0.00    -0.468 OA
ATOM     34  C   UNL     1     -13.186  10.810  71.754  0.00  0.00    +0.253 C 
ENDBRANCH  27  33
ENDBRANCH  24  25
ENDBRANCH  10  24
ENDBRANCH   8   9
ENDBRANCH   7   8
ENDBRANCH   5   7
ENDBRANCH   4   5
ENDBRANCH   3   4
ENDBRANCH   2   3
ENDBRANCH   1   2
BRANCH   1  35
ATOM     35  C   UNL     1      -7.194  15.731  69.001  0.00  0.00    +0.048 C 
BRANCH  35  36
ATOM     36  C   UNL     1      -7.152  14.237  69.199  0.00  0.00    +0.208 C 
BRANCH  36  37
ATOM     37  O   UNL     1      -5.993  13.634  68.690  0.00  0.00    -0.448 OA
BRANCH  37  38
ATOM     38  C   UNL     1      -5.691  12.294  68.906  0.00  0.00    +0.323 C 
ATOM     39  O   UNL     1      -5.001  11.745  67.993  0.00  0.00    -0.250 OA
BRANCH  38  40
ATOM     40  C   UNL     1      -6.126  11.544  70.112  0.00  0.00    +0.170 C 
BRANCH  40  41
ATOM     41  C   UNL     1      -6.974  10.345  69.702  0.00  0.00    +0.121 C 
BRANCH  41  43
ATOM     42  C   UNL     1      -7.701   8.058  70.219  0.00  0.00    +0.086 C 
ATOM     43  N   UNL     1      -6.534   9.140  70.245  0.00  0.00    +0.301 N 
ATOM     44  C   UNL     1      -5.508   8.445  69.466  0.00  0.00    +0.171 C 
ATOM     45  C   UNL     1      -6.062   9.239  71.573  0.00  0.00    +0.114 C 
ATOM     46  C   UNL     1      -6.412   8.121  72.499  0.00  0.00    +0.087 C 
ATOM     47  C   UNL     1      -7.905   8.192  72.614  0.00  0.00    -0.012 A 
ATOM     48  C   UNL     1      -8.589   7.943  73.776  0.00  0.00    +0.036 A 
ATOM     49  C   UNL     1      -9.902   7.515  73.625  0.00  0.00    +0.172 A 
ATOM     50  C   UNL     1     -10.570   7.917  72.475  0.00  0.00    +0.172 A 
ATOM     51  C   UNL     1      -9.873   8.483  71.422  0.00  0.00    +0.041 A 
ATOM     52  C   UNL     1      -8.504   8.741  71.479  0.00  0.00    +0.027 A 
BRANCH  50  53
ATOM     53  O   UNL     1     -11.894   7.483  72.353  0.00  0.00    -0.468 OA
ATOM     54  C   UNL     1     -12.256   6.614  71.282  0.00  0.00    +0.253 C 
ENDBRANCH  50  53
BRANCH  49  55
ATOM     55  O   UNL     1     -10.452   6.546  74.474  0.00  0.00    -0.468 OA
ATOM     56  C   UNL     1      -9.661   5.452  74.933  0.00  0.00    +0.253 C 
ENDBRANCH  49  55
BRANCH  42  57
ATOM     57  C   UNL     1      -8.624   8.884  69.100  0.00  0.00    +0.086 C 
BRANCH  57  61
ATOM     58  C   UNL     1     -10.091   5.733  66.696  0.00  0.00    +0.172 A 
ATOM     59  C   UNL     1      -8.754   5.790  67.042  0.00  0.00    +0.172 A 
ATOM     60  C   UNL     1      -8.372   6.740  67.977  0.00  0.00    +0.036 A 
ATOM     61  C   UNL     1      -9.173   7.837  68.221  0.00  0.00    -0.013 A 
ATOM     62  C   UNL     1     -10.501   7.775  67.901  0.00  0.00    -0.001 A 
ATOM     63  C   UNL     1     -10.907   6.814  67.006  0.00  0.00    +0.040 A 
BRANCH  58  65
ATOM     64  C   UNL     1     -10.378   4.311  64.959  0.00  0.00    +0.253 C 
ATOM     65  O   UNL     1     -10.562   4.577  66.107  0.00  0.00    -0.468 OA
ENDBRANCH  58  65
BRANCH  59  66
ATOM     66  O   UNL     1      -7.830   5.035  66.345  0.00  0.00    -0.468 OA
ATOM     67  C   UNL     1      -7.199   3.943  66.997  0.00  0.00    +0.253 C 
ENDBRANCH  59  66
ENDBRANCH  57  61
ENDBRANCH  42  57
ENDBRANCH  41  43
ENDBRANCH  40  41
ENDBRANCH  38  40
ENDBRANCH  37  38
ENDBRANCH  36  37
ENDBRANCH  35  36
ENDBRANCH   1  35
TORSDOF 26
ENDMDL
MODEL 3
REMARK VINA RESULT:      -6.7      1.470      4.253
REMARK  Name = 
REMARK  26 active torsions:
REMARK  status: ('A' for Active; 'I' for Inactive)
REMARK    1  A    between atoms: O_2  and  C_3
REMARK    2  A    between atoms: C_6  and  C_7
REMARK    3  A    between atoms: C_7  and  C_8
REMARK    4  A    between atoms: C_11  and  O_12
REMARK    5  A    between atoms: C_14  and  O_15
REMARK    6  A    between atoms: N_21  and  C_23
REMARK    7  A    between atoms: C_23  and  C_24
REMARK    8  A    between atoms: C_24  and  C_25
REMARK    9  A    between atoms: C_25  and  O_27
REMARK   10  A    between atoms: O_27  and  C_28
REMARK   11  A    between atoms: C_28  and  C_29
REMARK   12  A    between atoms: C_29  and  C_30
REMARK   13  A    between atoms: C_30  and  C_31
REMARK   14  A    between atoms: C_31  and  C_32
REMARK   15  A    between atoms: C_32  and  O_33
REMARK   16  A    between atoms: O_33  and  C_34
REMARK   17  A    between atoms: C_34  and  C_36
REMARK   18  A    between atoms: C_36  and  C_37
REMARK   19  A    between atoms: C_37  and  N_38
REMARK   20  A    between atoms: C_44  and  O_45
REMARK   21  A    between atoms: C_47  and  O_48
REMARK   22  A    between atoms: C_52  and  C_53
REMARK   23  A    between atoms: C_53  and  C_54
REMARK   24  A    between atoms: C_57  and  O_58
REMARK   25  A    between atoms: C_60  and  O_61
REMARK   26  A    between atoms: C_65  and  O_66
REMARK                            x       y       z     vdW  Elec       q    Type
REMARK                         _______ _______ _______ _____ _____    ______ ____
ROOT
ATOM      1  C   UNL     1     -13.569  12.225  72.063  0.00  0.00    +0.008 C 
ENDROOT
BRANCH   1   2
ATOM      2  C   UNL     1     -13.295  13.636  72.573  0.00  0.00    +0.048 C 
BRANCH   2   3
ATOM      3  C   UNL     1     -14.311  14.512  71.917  0.00  0.00    +0.208 C 
BRANCH   3   4
ATOM      4  O   UNL     1     -13.819  15.802  71.582  0.00  0.00    -0.448 OA
BRANCH   4   5
ATOM      5  C   UNL     1     -12.473  15.937  71.228  0.00  0.00    +0.323 C 
ATOM      6  O   UNL     1     -11.730  16.342  72.174  0.00  0.00    -0.250 OA
BRANCH   5   7
ATOM      7  C   UNL     1     -11.950  15.618  69.876  0.00  0.00    +0.170 C 
BRANCH   7   8
ATOM      8  C   UNL     1     -10.437  15.458  69.869  0.00  0.00    +0.121 C 
BRANCH   8   9
ATOM      9  N   UNL     1      -9.893  16.407  68.926  0.00  0.00    +0.301 N 
ATOM     10  C   UNL     1     -10.179  15.761  67.493  0.00  0.00    +0.086 C 
ATOM     11  C   UNL     1      -9.030  16.667  66.779  0.00  0.00    +0.027 A 
ATOM     12  C   UNL     1      -9.346  18.012  66.748  0.00  0.00    -0.012 A 
ATOM     13  C   UNL     1      -8.371  18.896  66.362  0.00  0.00    +0.036 A 
ATOM     14  C   UNL     1      -7.130  18.403  65.976  0.00  0.00    +0.172 A 
ATOM     15  C   UNL     1      -6.828  17.063  66.186  0.00  0.00    +0.172 A 
ATOM     16  C   UNL     1     -10.515  18.388  67.589  0.00  0.00    +0.087 C 
ATOM     17  C   UNL     1      -7.853  16.154  66.440  0.00  0.00    +0.041 A 
ATOM     18  C   UNL     1     -10.563  17.663  68.896  0.00  0.00    +0.114 C 
ATOM     19  C   UNL     1      -8.482  16.441  69.077  0.00  0.00    +0.171 C 
BRANCH  14  20
ATOM     20  O   UNL     1      -6.085  19.331  65.969  0.00  0.00    -0.468 OA
ATOM     21  C   UNL     1      -6.072  20.318  64.964  0.00  0.00    +0.253 C 
ENDBRANCH  14  20
BRANCH  15  22
ATOM     22  O   UNL     1      -5.509  16.733  66.521  0.00  0.00    -0.468 OA
ATOM     23  C   UNL     1      -5.209  15.888  67.601  0.00  0.00    +0.253 C 
ENDBRANCH  15  22
BRANCH  10  24
ATOM     24  C   UNL     1      -9.185  14.458  67.822  0.00  0.00    +0.086 C 
BRANCH  24  25
ATOM     25  C   UNL     1     -10.108  13.334  67.456  0.00  0.00    -0.013 A 
ATOM     26  C   UNL     1     -11.146  13.508  66.547  0.00  0.00    +0.036 A 
ATOM     27  C   UNL     1     -11.662  12.445  65.810  0.00  0.00    +0.172 A 
ATOM     28  C   UNL     1     -10.786  11.388  65.592  0.00  0.00    +0.172 A 
ATOM     29  C   UNL     1      -9.969  11.081  66.673  0.00  0.00    +0.040 A 
ATOM     30  C   UNL     1      -9.793  12.003  67.700  0.00  0.00    -0.001 A 
BRANCH  28  31
ATOM     31  O   UNL     1     -10.630  10.776  64.352  0.00  0.00    -0.468 OA
ATOM     32  C   UNL     1      -9.460  10.038  64.058  0.00  0.00    +0.253 C 
ENDBRANCH  28  31
BRANCH  27  33
ATOM     33  O   UNL     1     -12.631  12.662  64.823  0.00  0.00    -0.468 OA
ATOM     34  C   UNL     1     -12.437  13.703  63.887  0.00  0.00    +0.253 C 
ENDBRANCH  27  33
ENDBRANCH  24  25
ENDBRANCH  10  24
ENDBRANCH   8   9
ENDBRANCH   7   8
ENDBRANCH   5   7
ENDBRANCH   4   5
ENDBRANCH   3   4
ENDBRANCH   2   3
ENDBRANCH   1   2
BRANCH   1  35
ATOM     35  C   UNL     1     -12.538  11.767  71.070  0.00  0.00    +0.048 C 
BRANCH  35  36
ATOM     36  C   UNL     1     -12.234  10.293  71.160  0.00  0.00    +0.208 C 
BRANCH  36  37
ATOM     37  O   UNL     1     -13.332   9.472  70.867  0.00  0.00    -0.448 OA
BRANCH  37  38
ATOM     38  C   UNL     1     -13.798   8.504  71.750  0.00  0.00    +0.323 C 
ATOM     39  O   UNL     1     -14.685   8.902  72.565  0.00  0.00    -0.250 OA
BRANCH  38  40
ATOM     40  C   UNL     1     -13.312   7.100  71.752  0.00  0.00    +0.170 C 
BRANCH  40  41
ATOM     41  C   UNL     1     -11.972   7.011  71.029  0.00  0.00    +0.121 C 
BRANCH  41  43
ATOM     42  C   UNL     1      -9.609   6.353  70.976  0.00  0.00    +0.086 C 
ATOM     43  N   UNL     1     -10.937   6.537  71.832  0.00  0.00    +0.301 N 
ATOM     44  C   UNL     1     -10.468   7.472  72.856  0.00  0.00    +0.171 C 
ATOM     45  C   UNL     1     -11.215   5.310  72.474  0.00  0.00    +0.114 C 
ATOM     46  C   UNL     1     -10.096   4.326  72.563  0.00  0.00    +0.087 C 
ATOM     47  C   UNL     1      -9.814   3.960  71.137  0.00  0.00    -0.012 A 
ATOM     48  C   UNL     1      -9.470   2.696  70.732  0.00  0.00    +0.036 A 
ATOM     49  C   UNL     1      -8.733   2.617  69.556  0.00  0.00    +0.172 A 
ATOM     50  C   UNL     1      -8.904   3.641  68.634  0.00  0.00    +0.172 A 
ATOM     51  C   UNL     1      -9.564   4.803  68.991  0.00  0.00    +0.041 A 
ATOM     52  C   UNL     1     -10.145   4.983  70.246  0.00  0.00    +0.027 A 
BRANCH  50  53
ATOM     53  O   UNL     1      -8.160   3.532  67.453  0.00  0.00    -0.468 OA
ATOM     54  C   UNL     1      -8.002   4.671  66.612  0.00  0.00    +0.253 C 
ENDBRANCH  50  53
BRANCH  49  55
ATOM     55  O   UNL     1      -7.707   1.676  69.405  0.00  0.00    -0.468 OA
ATOM     56  C   UNL     1      -7.978   0.281  69.525  0.00  0.00    +0.253 C 
ENDBRANCH  49  55
BRANCH  42  57
ATOM     57  C   UNL     1     -10.130   7.308  69.711  0.00  0.00    +0.086 C 
BRANCH  57  61
ATOM     58  C   UNL     1      -6.933   9.868  68.670  0.00  0.00    +0.172 A 
ATOM     59  C   UNL     1      -7.217   8.751  67.907  0.00  0.00    +0.172 A 
ATOM     60  C   UNL     1      -8.382   8.057  68.193  0.00  0.00    +0.036 A 
ATOM     61  C   UNL     1      -8.994   8.201  69.421  0.00  0.00    -0.013 A 
ATOM     62  C   UNL     1      -8.734   9.316  70.168  0.00  0.00    -0.001 A 
ATOM     63  C   UNL     1      -7.604  10.042  69.875  0.00  0.00    +0.040 A 
BRANCH  58  65
ATOM     64  C   UNL     1      -5.014  11.067  68.718  0.00  0.00    +0.253 C 
ATOM     65  O   UNL     1      -6.035  10.788  68.168  0.00  0.00    -0.468 OA
ENDBRANCH  58  65
BRANCH  59  66
ATOM     66  O   UNL     1      -6.276   8.269  67.017  0.00  0.00    -0.468 OA
ATOM     67  C   UNL     1      -6.531   8.367  65.624  0.00  0.00    +0.253 C 
ENDBRANCH  59  66
ENDBRANCH  57  61
ENDBRANCH  42  57
ENDBRANCH  41  43
ENDBRANCH  40  41
ENDBRANCH  38  40
ENDBRANCH  37  38
ENDBRANCH  36  37
ENDBRANCH  35  36
ENDBRANCH   1  35
TORSDOF 26
ENDMDL
MODEL 4
REMARK VINA RESULT:      -6.7      2.426      6.182
REMARK  Name = 
REMARK  26 active torsions:
REMARK  status: ('A' for Active; 'I' for Inactive)
REMARK    1  A    between atoms: O_2  and  C_3
REMARK    2  A    between atoms: C_6  and  C_7
REMARK    3  A    between atoms: C_7  and  C_8
REMARK    4  A    between atoms: C_11  and  O_12
REMARK    5  A    between atoms: C_14  and  O_15
REMARK    6  A    between atoms: N_21  and  C_23
REMARK    7  A    between atoms: C_23  and  C_24
REMARK    8  A    between atoms: C_24  and  C_25
REMARK    9  A    between atoms: C_25  and  O_27
REMARK   10  A    between atoms: O_27  and  C_28
REMARK   11  A    between atoms: C_28  and  C_29
REMARK   12  A    between atoms: C_29  and  C_30
REMARK   13  A    between atoms: C_30  and  C_31
REMARK   14  A    between atoms: C_31  and  C_32
REMARK   15  A    between atoms: C_32  and  O_33
REMARK   16  A    between atoms: O_33  and  C_34
REMARK   17  A    between atoms: C_34  and  C_36
REMARK   18  A    between atoms: C_36  and  C_37
REMARK   19  A    between atoms: C_37  and  N_38
REMARK   20  A    between atoms: C_44  and  O_45
REMARK   21  A    between atoms: C_47  and  O_48
REMARK   22  A    between atoms: C_52  and  C_53
REMARK   23  A    between atoms: C_53  and  C_54
REMARK   24  A    between atoms: C_57  and  O_58
REMARK   25  A    between atoms: C_60  and  O_61
REMARK   26  A    between atoms: C_65  and  O_66
REMARK                            x       y       z     vdW  Elec       q    Type
REMARK                         _______ _______ _______ _____ _____    ______ ____
ROOT
ATOM      1  C   UNL     1     -14.374  14.137  71.978  0.00  0.00    +0.008 C 
ENDROOT
BRANCH   1   2
ATOM      2  C   UNL     1     -13.922  15.583  72.152  0.00  0.00    +0.048 C 
BRANCH   2   3
ATOM      3  C   UNL     1     -12.449  15.582  71.906  0.00  0.00    +0.208 C 
BRANCH   3   4
ATOM      4  O   UNL     1     -12.059  16.368  70.788  0.00  0.00    -0.448 OA
BRANCH   4   5
ATOM      5  C   UNL     1     -11.795  15.725  69.574  0.00  0.00    +0.323 C 
ATOM      6  O   UNL     1     -11.683  16.516  68.588  0.00  0.00    -0.250 OA
BRANCH   5   7
ATOM      7  C   UNL     1     -11.637  14.255  69.447  0.00  0.00    +0.170 C 
BRANCH   7   8
ATOM      8  C   UNL     1     -11.928  13.767  68.036  0.00  0.00    +0.121 C 
BRANCH   8   9
ATOM      9  N   UNL     1     -11.168  12.558  67.818  0.00  0.00    +0.301 N 
ATOM     10  C   UNL     1      -9.641  13.019  67.922  0.00  0.00    +0.086 C 
ATOM     11  C   UNL     1      -9.119  11.707  67.110  0.00  0.00    +0.027 A 
ATOM     12  C   UNL     1      -9.294  10.532  67.814  0.00  0.00    -0.012 A 
ATOM     13  C   UNL     1      -9.086   9.347  67.156  0.00  0.00    +0.036 A 
ATOM     14  C   UNL     1      -8.667   9.377  65.831  0.00  0.00    +0.172 A 
ATOM     15  C   UNL     1      -8.669  10.582  65.138  0.00  0.00    +0.172 A 
ATOM     16  C   UNL     1     -10.146  10.664  69.027  0.00  0.00    +0.087 C 
ATOM     17  C   UNL     1      -8.741  11.784  65.838  0.00  0.00    +0.041 A 
ATOM     18  C   UNL     1     -11.317  11.573  68.833  0.00  0.00    +0.114 C 
ATOM     19  C   UNL     1     -11.368  12.130  66.479  0.00  0.00    +0.171 C 
BRANCH  14  20
ATOM     20  O   UNL     1      -8.842   8.192  65.112  0.00  0.00    -0.468 OA
ATOM     21  C   UNL     1      -7.705   7.420  64.804  0.00  0.00    +0.253 C 
ENDBRANCH  14  20
BRANCH  15  22
ATOM     22  O   UNL     1      -8.989  10.553  63.775  0.00  0.00    -0.468 OA
ATOM     23  C   UNL     1      -9.937  11.427  63.218  0.00  0.00    +0.253 C 
ENDBRANCH  15  22
BRANCH  10  24
ATOM     24  C   UNL     1      -9.789  14.001  66.577  0.00  0.00    +0.086 C 
BRANCH  24  25
ATOM     25  C   UNL     1      -8.766  15.046  66.911  0.00  0.00    -0.013 A 
ATOM     26  C   UNL     1      -8.580  16.169  66.110  0.00  0.00    +0.036 A 
ATOM     27  C   UNL     1      -8.062  17.356  66.621  0.00  0.00    +0.172 A 
ATOM     28  C   UNL     1      -8.267  17.561  67.981  0.00  0.00    +0.172 A 
ATOM     29  C   UNL     1      -8.144  16.420  68.764  0.00  0.00    +0.040 A 
ATOM     30  C   UNL     1      -8.205  15.160  68.177  0.00  0.00    -0.001 A 
BRANCH  28  31
ATOM     31  O   UNL     1      -8.701  18.773  68.509  0.00  0.00    -0.468 OA
ATOM     32  C   UNL     1      -9.891  19.375  68.040  0.00  0.00    +0.253 C 
ENDBRANCH  28  31
BRANCH  27  33
ATOM     33  O   UNL     1      -7.986  18.505  65.825  0.00  0.00    -0.468 OA
ATOM     34  C   UNL     1      -6.717  19.061  65.543  0.00  0.00    +0.253 C 
ENDBRANCH  27  33
ENDBRANCH  24  25
ENDBRANCH  10  24
ENDBRANCH   8   9
ENDBRANCH   7   8
ENDBRANCH   5   7
ENDBRANCH   4   5
ENDBRANCH   3   4
ENDBRANCH   2   3
ENDBRANCH   1   2
BRANCH   1  35
ATOM     35  C   UNL     1     -13.385  13.157  72.543  0.00  0.00    +0.048 C 
BRANCH  35  36
ATOM     36  C   UNL     1     -13.185  11.940  71.676  0.00  0.00    +0.208 C 
BRANCH  36  37
ATOM     37  O   UNL     1     -13.650  10.752  72.257  0.00  0.00    -0.448 OA
BRANCH  37  38
ATOM     38  C   UNL     1     -13.148   9.502  71.909  0.00  0.00    +0.323 C 
ATOM     39  O   UNL     1     -14.025   8.636  71.607  0.00  0.00    -0.250 OA
BRANCH  38  40
ATOM     40  C   UNL     1     -11.697   9.187  71.877  0.00  0.00    +0.170 C 
BRANCH  40  41
ATOM     41  C   UNL     1     -11.484   7.691  72.089  0.00  0.00    +0.121 C 
BRANCH  41  43
ATOM     42  C   UNL     1      -9.868   5.848  71.973  0.00  0.00    +0.086 C 
ATOM     43  N   UNL     1     -10.167   7.353  72.392  0.00  0.00    +0.301 N 
ATOM     44  C   UNL     1      -9.150   8.056  71.608  0.00  0.00    +0.171 C 
ATOM     45  C   UNL     1      -9.829   7.502  73.755  0.00  0.00    +0.114 C 
ATOM     46  C   UNL     1      -8.946   6.454  74.349  0.00  0.00    +0.087 C 
ATOM     47  C   UNL     1      -9.770   5.203  74.291  0.00  0.00    -0.012 A 
ATOM     48  C   UNL     1      -9.763   4.243  75.269  0.00  0.00    +0.036 A 
ATOM     49  C   UNL     1     -10.108   2.960  74.861  0.00  0.00    +0.172 A 
ATOM     50  C   UNL     1     -10.947   2.851  73.760  0.00  0.00    +0.172 A 
ATOM     51  C   UNL     1     -11.200   3.951  72.961  0.00  0.00    +0.041 A 
ATOM     52  C   UNL     1     -10.696   5.220  73.245  0.00  0.00    +0.027 A 
BRANCH  50  53
ATOM     53  O   UNL     1     -11.289   1.550  73.378  0.00  0.00    -0.468 OA
ATOM     54  C   UNL     1     -12.611   1.070  73.612  0.00  0.00    +0.253 C 
ENDBRANCH  50  53
BRANCH  49  55
ATOM     55  O   UNL     1      -9.466   1.833  75.391  0.00  0.00    -0.468 OA
ATOM     56  C   UNL     1      -9.820   1.335  76.679  0.00  0.00    +0.253 C 
ENDBRANCH  49  55
BRANCH  42  57
ATOM     57  C   UNL     1     -11.194   5.723  70.967  0.00  0.00    +0.086 C 
BRANCH  57  61
ATOM     58  C   UNL     1      -9.593   4.883  67.147  0.00  0.00    +0.172 A 
ATOM     59  C   UNL     1      -9.185   4.163  68.254  0.00  0.00    +0.172 A 
ATOM     60  C   UNL     1      -9.877   4.362  69.439  0.00  0.00    +0.036 A 
ATOM     61  C   UNL     1     -10.626   5.505  69.624  0.00  0.00    -0.013 A 
ATOM     62  C   UNL     1     -11.051   6.206  68.530  0.00  0.00    -0.001 A 
ATOM     63  C   UNL     1     -10.405   5.995  67.335  0.00  0.00    +0.040 A 
BRANCH  58  65
ATOM     64  C   UNL     1      -9.996   4.016  65.096  0.00  0.00    +0.253 C 
ATOM     65  O   UNL     1      -9.217   4.427  65.899  0.00  0.00    -0.468 OA
ENDBRANCH  58  65
BRANCH  59  66
ATOM     66  O   UNL     1      -8.027   3.412  68.198  0.00  0.00    -0.468 OA
ATOM     67  C   UNL     1      -6.853   3.906  68.825  0.00  0.00    +0.253 C 
ENDBRANCH  59  66
ENDBRANCH  57  61
ENDBRANCH  42  57
ENDBRANCH  41  43
ENDBRANCH  40  41
ENDBRANCH  38  40
ENDBRANCH  37  38
ENDBRANCH  36  37
ENDBRANCH  35  36
ENDBRANCH   1  35
TORSDOF 26
ENDMDL
MODEL 5
REMARK VINA RESULT:      -6.7      2.418     10.834
REMARK  Name = 
REMARK  26 active torsions:
REMARK  status: ('A' for Active; 'I' for Inactive)
REMARK    1  A    between atoms: O_2  and  C_3
REMARK    2  A    between atoms: C_6  and  C_7
REMARK    3  A    between atoms: C_7  and  C_8
REMARK    4  A    between atoms: C_11  and  O_12
REMARK    5  A    between atoms: C_14  and  O_15
REMARK    6  A    between atoms: N_21  and  C_23
REMARK    7  A    between atoms: C_23  and  C_24
REMARK    8  A    between atoms: C_24  and  C_25
REMARK    9  A    between atoms: C_25  and  O_27
REMARK   10  A    between atoms: O_27  and  C_28
REMARK   11  A    between atoms: C_28  and  C_29
REMARK   12  A    between atoms: C_29  and  C_30
REMARK   13  A    between atoms: C_30  and  C_31
REMARK   14  A    between atoms: C_31  and  C_32
REMARK   15  A    between atoms: C_32  and  O_33
REMARK   16  A    between atoms: O_33  and  C_34
REMARK   17  A    between atoms: C_34  and  C_36
REMARK   18  A    between atoms: C_36  and  C_37
REMARK   19  A    between atoms: C_37  and  N_38
REMARK   20  A    between atoms: C_44  and  O_45
REMARK   21  A    between atoms: C_47  and  O_48
REMARK   22  A    between atoms: C_52  and  C_53
REMARK   23  A    between atoms: C_53  and  C_54
REMARK   24  A    between atoms: C_57  and  O_58
REMARK   25  A    between atoms: C_60  and  O_61
REMARK   26  A    between atoms: C_65  and  O_66
REMARK                            x       y       z     vdW  Elec       q    Type
REMARK                         _______ _______ _______ _____ _____    ______ ____
ROOT
ATOM      1  C   UNL     1     -10.058  11.455  63.325  0.00  0.00    +0.008 C 
ENDROOT
BRANCH   1   2
ATOM      2  C   UNL     1      -9.107  10.502  64.041  0.00  0.00    +0.048 C 
BRANCH   2   3
ATOM      3  C   UNL     1      -9.876   9.948  65.195  0.00  0.00    +0.208 C 
BRANCH   3   4
ATOM      4  O   UNL     1      -9.377   8.704  65.666  0.00  0.00    -0.448 OA
BRANCH   4   5
ATOM      5  C   UNL     1      -9.077   8.570  67.026  0.00  0.00    +0.323 C 
ATOM      6  O   UNL     1      -7.851   8.346  67.263  0.00  0.00    -0.250 OA
BRANCH   5   7
ATOM      7  C   UNL     1     -10.093   8.698  68.100  0.00  0.00    +0.170 C 
BRANCH   7   8
ATOM      8  C   UNL     1     -10.616   7.344  68.559  0.00  0.00    +0.121 C 
BRANCH   8   9
ATOM      9  N   UNL     1     -10.227   7.161  69.937  0.00  0.00    +0.301 N 
ATOM     10  C   UNL     1      -9.006   6.131  69.877  0.00  0.00    +0.086 C 
ATOM     11  C   UNL     1      -9.192   5.713  71.440  0.00  0.00    +0.027 A 
ATOM     12  C   UNL     1      -8.887   6.739  72.312  0.00  0.00    -0.012 A 
ATOM     13  C   UNL     1      -9.202   6.576  73.638  0.00  0.00    +0.036 A 
ATOM     14  C   UNL     1      -9.769   5.377  74.052  0.00  0.00    +0.172 A 
ATOM     15  C   UNL     1     -10.199   4.457  73.103  0.00  0.00    +0.172 A 
ATOM     16  C   UNL     1      -8.712   8.067  71.663  0.00  0.00    +0.087 C 
ATOM     17  C   UNL     1      -9.753   4.560  71.787  0.00  0.00    +0.041 A 
ATOM     18  C   UNL     1      -9.690   8.321  70.562  0.00  0.00    +0.114 C 
ATOM     19  C   UNL     1     -11.278   6.497  70.623  0.00  0.00    +0.171 C 
BRANCH  14  20
ATOM     20  O   UNL     1     -10.410   5.406  75.293  0.00  0.00    -0.468 OA
ATOM     21  C   UNL     1      -9.622   5.556  76.451  0.00  0.00    +0.253 C 
ENDBRANCH  14  20
BRANCH  15  22
ATOM     22  O   UNL     1     -11.345   3.706  73.391  0.00  0.00    -0.468 OA
ATOM     23  C   UNL     1     -11.270   2.351  73.753  0.00  0.00    +0.253 C 
ENDBRANCH  15  22
BRANCH  10  24
ATOM     24  C   UNL     1      -9.984   4.923  69.262  0.00  0.00    +0.086 C 
BRANCH  24  25
ATOM     25  C   UNL     1      -9.062   4.352  68.226  0.00  0.00    -0.013 A 
ATOM     26  C   UNL     1      -9.545   3.660  67.120  0.00  0.00    +0.036 A 
ATOM     27  C   UNL     1      -8.824   3.582  65.931  0.00  0.00    +0.172 A 
ATOM     28  C   UNL     1      -7.939   4.628  65.699  0.00  0.00    +0.172 A 
ATOM     29  C   UNL     1      -7.265   5.077  66.828  0.00  0.00    +0.040 A 
ATOM     30  C   UNL     1      -7.741   4.763  68.097  0.00  0.00    -0.001 A 
BRANCH  28  31
ATOM     31  O   UNL     1      -7.834   5.275  64.472  0.00  0.00    -0.468 OA
ATOM     32  C   UNL     1      -6.990   6.400  64.324  0.00  0.00    +0.253 C 
ENDBRANCH  28  31
BRANCH  27  33
ATOM     33  O   UNL     1      -9.376   2.973  64.798  0.00  0.00    -0.468 OA
ATOM     34  C   UNL     1      -8.701   1.880  64.208  0.00  0.00    +0.253 C 
ENDBRANCH  27  33
ENDBRANCH  24  25
ENDBRANCH  10  24
ENDBRANCH   8   9
ENDBRANCH   7   8
ENDBRANCH   5   7
ENDBRANCH   4   5
ENDBRANCH   3   4
ENDBRANCH   2   3
ENDBRANCH   1   2
BRANCH   1  35
ATOM     35  C   UNL     1     -11.353  11.635  64.068  0.00  0.00    +0.048 C 
BRANCH  35  36
ATOM     36  C   UNL     1     -12.417  12.331  63.258  0.00  0.00    +0.208 C 
BRANCH  36  37
ATOM     37  O   UNL     1     -12.394  13.727  63.381  0.00  0.00    -0.448 OA
BRANCH  37  38
ATOM     38  C   UNL     1     -12.270  14.367  64.610  0.00  0.00    +0.323 C 
ATOM     39  O   UNL     1     -13.225  14.164  65.420  0.00  0.00    -0.250 OA
BRANCH  38  40
ATOM     40  C   UNL     1     -11.111  15.224  64.969  0.00  0.00    +0.170 C 
BRANCH  40  41
ATOM     41  C   UNL     1     -10.161  14.459  65.884  0.00  0.00    +0.121 C 
BRANCH  41  43
ATOM     42  C   UNL     1      -9.560  14.274  68.256  0.00  0.00    +0.086 C 
ATOM     43  N   UNL     1      -9.717  15.203  66.975  0.00  0.00    +0.301 N 
ATOM     44  C   UNL     1      -8.355  15.727  66.855  0.00  0.00    +0.171 C 
ATOM     45  C   UNL     1     -10.557  16.284  67.320  0.00  0.00    +0.114 C 
ATOM     46  C   UNL     1     -10.754  16.547  68.777  0.00  0.00    +0.087 C 
ATOM     47  C   UNL     1     -11.469  15.328  69.278  0.00  0.00    -0.012 A 
ATOM     48  C   UNL     1     -12.452  15.363  70.232  0.00  0.00    +0.036 A 
ATOM     49  C   UNL     1     -12.624  14.196  70.967  0.00  0.00    +0.172 A 
ATOM     50  C   UNL     1     -12.268  13.003  70.351  0.00  0.00    +0.172 A 
ATOM     51  C   UNL     1     -11.536  13.012  69.178  0.00  0.00    +0.041 A 
ATOM     52  C   UNL     1     -11.178  14.190  68.522  0.00  0.00    +0.027 A 
BRANCH  50  53
ATOM     53  O   UNL     1     -12.463  11.842  71.107  0.00  0.00    -0.468 OA
ATOM     54  C   UNL     1     -12.621  10.589  70.447  0.00  0.00    +0.253 C 
ENDBRANCH  50  53
BRANCH  49  55
ATOM     55  O   UNL     1     -12.926  14.237  72.334  0.00  0.00    -0.468 OA
ATOM     56  C   UNL     1     -13.215  15.478  72.976  0.00  0.00    +0.253 C 
ENDBRANCH  49  55
BRANCH  42  57
ATOM     57  C   UNL     1      -9.564  12.848  67.390  0.00  0.00    +0.086 C 
BRANCH  57  61
ATOM     58  C   UNL     1      -5.800  11.152  68.295  0.00  0.00    +0.172 A 
ATOM     59  C   UNL     1      -6.034  11.725  67.059  0.00  0.00    +0.172 A 
ATOM     60  C   UNL     1      -7.221  12.422  66.889  0.00  0.00    +0.036 A 
ATOM     61  C   UNL     1      -8.287  12.196  67.734  0.00  0.00    -0.013 A 
ATOM     62  C   UNL     1      -8.056  11.651  68.967  0.00  0.00    -0.001 A 
ATOM     63  C   UNL     1      -6.867  10.990  69.169  0.00  0.00    +0.040 A 
BRANCH  58  65
ATOM     64  C   UNL     1      -4.164   9.709  68.897  0.00  0.00    +0.253 C 
ATOM     65  O   UNL     1      -4.501  10.819  68.622  0.00  0.00    -0.468 OA
ENDBRANCH  58  65
BRANCH  59  66
ATOM     66  O   UNL     1      -5.185  11.455  66.003  0.00  0.00    -0.468 OA
ATOM     67  C   UNL     1      -5.445  10.329  65.179  0.00  0.00    +0.253 C 
ENDBRANCH  59  66
ENDBRANCH  57  61
ENDBRANCH  42  57
ENDBRANCH  41  43
ENDBRANCH  40  41
ENDBRANCH  38  40
ENDBRANCH  37  38
ENDBRANCH  36  37
ENDBRANCH  35  36
ENDBRANCH   1  35
TORSDOF 26
ENDMDL
MODEL 6
REMARK VINA RESULT:      -6.6      1.823      4.416
REMARK  Name = 
REMARK  26 active torsions:
REMARK  status: ('A' for Active; 'I' for Inactive)
REMARK    1  A    between atoms: O_2  and  C_3
REMARK    2  A    between atoms: C_6  and  C_7
REMARK    3  A    between atoms: C_7  and  C_8
REMARK    4  A    between atoms: C_11  and  O_12
REMARK    5  A    between atoms: C_14  and  O_15
REMARK    6  A    between atoms: N_21  and  C_23
REMARK    7  A    between atoms: C_23  and  C_24
REMARK    8  A    between atoms: C_24  and  C_25
REMARK    9  A    between atoms: C_25  and  O_27
REMARK   10  A    between atoms: O_27  and  C_28
REMARK   11  A    between atoms: C_28  and  C_29
REMARK   12  A    between atoms: C_29  and  C_30
REMARK   13  A    between atoms: C_30  and  C_31
REMARK   14  A    between atoms: C_31  and  C_32
REMARK   15  A    between atoms: C_32  and  O_33
REMARK   16  A    between atoms: O_33  and  C_34
REMARK   17  A    between atoms: C_34  and  C_36
REMARK   18  A    between atoms: C_36  and  C_37
REMARK   19  A    between atoms: C_37  and  N_38
REMARK   20  A    between atoms: C_44  and  O_45
REMARK   21  A    between atoms: C_47  and  O_48
REMARK   22  A    between atoms: C_52  and  C_53
REMARK   23  A    between atoms: C_53  and  C_54
REMARK   24  A    between atoms: C_57  and  O_58
REMARK   25  A    between atoms: C_60  and  O_61
REMARK   26  A    between atoms: C_65  and  O_66
REMARK                            x       y       z     vdW  Elec       q    Type
REMARK                         _______ _______ _______ _____ _____    ______ ____
ROOT
ATOM      1  C   UNL     1     -12.819  12.805  70.913  0.00  0.00    +0.008 C 
ENDROOT
BRANCH   1   2
ATOM      2  C   UNL     1     -13.558  13.113  72.212  0.00  0.00    +0.048 C 
BRANCH   2   3
ATOM      3  C   UNL     1     -14.239  14.425  71.993  0.00  0.00    +0.208 C 
BRANCH   3   4
ATOM      4  O   UNL     1     -13.556  15.275  71.082  0.00  0.00    -0.448 OA
BRANCH   4   5
ATOM      5  C   UNL     1     -12.403  15.938  71.515  0.00  0.00    +0.323 C 
ATOM      6  O   UNL     1     -12.445  16.302  72.731  0.00  0.00    -0.250 OA
BRANCH   5   7
ATOM      7  C   UNL     1     -11.226  16.179  70.645  0.00  0.00    +0.170 C 
BRANCH   7   8
ATOM      8  C   UNL     1     -11.564  16.033  69.168  0.00  0.00    +0.121 C 
BRANCH   8   9
ATOM      9  N   UNL     1     -10.447  16.535  68.404  0.00  0.00    +0.301 N 
ATOM     10  C   UNL     1     -10.351  15.559  67.143  0.00  0.00    +0.086 C 
ATOM     11  C   UNL     1      -8.802  15.971  66.854  0.00  0.00    +0.027 A 
ATOM     12  C   UNL     1      -8.662  17.280  66.435  0.00  0.00    -0.012 A 
ATOM     13  C   UNL     1      -7.396  17.803  66.361  0.00  0.00    +0.036 A 
ATOM     14  C   UNL     1      -6.312  16.987  66.665  0.00  0.00    +0.172 A 
ATOM     15  C   UNL     1      -6.531  15.739  67.235  0.00  0.00    +0.172 A 
ATOM     16  C   UNL     1      -9.890  18.108  66.584  0.00  0.00    +0.087 C 
ATOM     17  C   UNL     1      -7.798  15.163  67.175  0.00  0.00    +0.041 A 
ATOM     18  C   UNL     1     -10.643  17.829  67.845  0.00  0.00    +0.114 C 
ATOM     19  C   UNL     1      -9.257  16.339  69.155  0.00  0.00    +0.171 C 
BRANCH  14  20
ATOM     20  O   UNL     1      -5.115  17.651  66.947  0.00  0.00    -0.468 OA
ATOM     21  C   UNL     1      -4.685  18.662  66.065  0.00  0.00    +0.253 C 
ENDBRANCH  14  20
BRANCH  15  22
ATOM     22  O   UNL     1      -5.602  15.276  68.174  0.00  0.00    -0.468 OA
ATOM     23  C   UNL     1      -5.225  13.924  68.238  0.00  0.00    +0.253 C 
ENDBRANCH  15  22
BRANCH  10  24
ATOM     24  C   UNL     1      -9.997  14.246  68.116  0.00  0.00    +0.086 C 
BRANCH  24  25
ATOM     25  C   UNL     1     -10.874  13.211  67.478  0.00  0.00    -0.013 A 
ATOM     26  C   UNL     1     -11.675  13.509  66.380  0.00  0.00    +0.036 A 
ATOM     27  C   UNL     1     -12.071  12.529  65.474  0.00  0.00    +0.172 A 
ATOM     28  C   UNL     1     -11.226  11.429  65.375  0.00  0.00    +0.172 A 
ATOM     29  C   UNL     1     -10.686  11.004  66.582  0.00  0.00    +0.040 A 
ATOM     30  C   UNL     1     -10.692  11.850  67.687  0.00  0.00    -0.001 A 
BRANCH  28  31
ATOM     31  O   UNL     1     -10.833  10.882  64.158  0.00  0.00    -0.468 OA
ATOM     32  C   UNL     1      -9.784  11.468  63.413  0.00  0.00    +0.253 C 
ENDBRANCH  28  31
BRANCH  27  33
ATOM     33  O   UNL     1     -12.785  12.868  64.318  0.00  0.00    -0.468 OA
ATOM     34  C   UNL     1     -12.438  14.046  63.618  0.00  0.00    +0.253 C 
ENDBRANCH  27  33
ENDBRANCH  24  25
ENDBRANCH  10  24
ENDBRANCH   8   9
ENDBRANCH   7   8
ENDBRANCH   5   7
ENDBRANCH   4   5
ENDBRANCH   3   4
ENDBRANCH   2   3
ENDBRANCH   1   2
BRANCH   1  35
ATOM     35  C   UNL     1     -12.386  11.368  70.830  0.00  0.00    +0.048 C 
BRANCH  35  36
ATOM     36  C   UNL     1     -13.154  10.457  71.753  0.00  0.00    +0.208 C 
BRANCH  36  37
ATOM     37  O   UNL     1     -13.768   9.380  71.098  0.00  0.00    -0.448 OA
BRANCH  37  38
ATOM     38  C   UNL     1     -14.096   8.197  71.751  0.00  0.00    +0.323 C 
ATOM     39  O   UNL     1     -15.118   8.262  72.500  0.00  0.00    -0.250 OA
BRANCH  38  40
ATOM     40  C   UNL     1     -13.326   6.937  71.591  0.00  0.00    +0.170 C 
BRANCH  40  41
ATOM     41  C   UNL     1     -11.879   7.253  71.227  0.00  0.00    +0.121 C 
BRANCH  41  43
ATOM     42  C   UNL     1      -9.539   6.521  71.315  0.00  0.00    +0.086 C 
ATOM     43  N   UNL     1     -10.948   6.621  72.047  0.00  0.00    +0.301 N 
ATOM     44  C   UNL     1     -10.572   7.367  73.250  0.00  0.00    +0.171 C 
ATOM     45  C   UNL     1     -11.320   5.321  72.454  0.00  0.00    +0.114 C 
ATOM     46  C   UNL     1     -10.237   4.293  72.501  0.00  0.00    +0.087 C 
ATOM     47  C   UNL     1      -9.811   4.141  71.072  0.00  0.00    -0.012 A 
ATOM     48  C   UNL     1      -9.452   2.944  70.510  0.00  0.00    +0.036 A 
ATOM     49  C   UNL     1      -8.594   3.021  69.419  0.00  0.00    +0.172 A 
ATOM     50  C   UNL     1      -8.642   4.181  68.658  0.00  0.00    +0.172 A 
ATOM     51  C   UNL     1      -9.313   5.298  69.125  0.00  0.00    +0.041 A 
ATOM     52  C   UNL     1     -10.021   5.303  70.326  0.00  0.00    +0.027 A 
BRANCH  50  53
ATOM     53  O   UNL     1      -7.778   4.228  67.559  0.00  0.00    -0.468 OA
ATOM     54  C   UNL     1      -8.268   3.895  66.262  0.00  0.00    +0.253 C 
ENDBRANCH  50  53
BRANCH  49  55
ATOM     55  O   UNL     1      -7.578   2.076  69.228  0.00  0.00    -0.468 OA
ATOM     56  C   UNL     1      -7.820   0.894  68.468  0.00  0.00    +0.253 C 
ENDBRANCH  49  55
BRANCH  42  57
ATOM     57  C   UNL     1      -9.900   7.680  70.170  0.00  0.00    +0.086 C 
BRANCH  57  61
ATOM     58  C   UNL     1      -6.509  10.197  70.331  0.00  0.00    +0.172 A 
ATOM     59  C   UNL     1      -6.710   9.226  71.294  0.00  0.00    +0.172 A 
ATOM     60  C   UNL     1      -7.737   8.319  71.086  0.00  0.00    +0.036 A 
ATOM     61  C   UNL     1      -8.763   8.617  70.213  0.00  0.00    -0.013 A 
ATOM     62  C   UNL     1      -8.559   9.561  69.244  0.00  0.00    -0.001 A 
ATOM     63  C   UNL     1      -7.520  10.445  69.411  0.00  0.00    +0.040 A 
BRANCH  58  65
ATOM     64  C   UNL     1      -4.320  10.363  69.782  0.00  0.00    +0.253 C 
ATOM     65  O   UNL     1      -5.285  10.836  70.297  0.00  0.00    -0.468 OA
ENDBRANCH  58  65
BRANCH  59  66
ATOM     66  O   UNL     1      -6.014   9.284  72.486  0.00  0.00    -0.468 OA
ATOM     67  C   UNL     1      -6.403   8.433  73.554  0.00  0.00    +0.253 C 
ENDBRANCH  59  66
ENDBRANCH  57  61
ENDBRANCH  42  57
ENDBRANCH  41  43
ENDBRANCH  40  41
ENDBRANCH  38  40
ENDBRANCH  37  38
ENDBRANCH  36  37
ENDBRANCH  35  36
ENDBRANCH   1  35
TORSDOF 26
ENDMDL
MODEL 7
REMARK VINA RESULT:      -6.6      2.204     10.007
REMARK  Name = 
REMARK  26 active torsions:
REMARK  status: ('A' for Active; 'I' for Inactive)
REMARK    1  A    between atoms: O_2  and  C_3
REMARK    2  A    between atoms: C_6  and  C_7
REMARK    3  A    between atoms: C_7  and  C_8
REMARK    4  A    between atoms: C_11  and  O_12
REMARK    5  A    between atoms: C_14  and  O_15
REMARK    6  A    between atoms: N_21  and  C_23
REMARK    7  A    between atoms: C_23  and  C_24
REMARK    8  A    between atoms: C_24  and  C_25
REMARK    9  A    between atoms: C_25  and  O_27
REMARK   10  A    between atoms: O_27  and  C_28
REMARK   11  A    between atoms: C_28  and  C_29
REMARK   12  A    between atoms: C_29  and  C_30
REMARK   13  A    between atoms: C_30  and  C_31
REMARK   14  A    between atoms: C_31  and  C_32
REMARK   15  A    between atoms: C_32  and  O_33
REMARK   16  A    between atoms: O_33  and  C_34
REMARK   17  A    between atoms: C_34  and  C_36
REMARK   18  A    between atoms: C_36  and  C_37
REMARK   19  A    between atoms: C_37  and  N_38
REMARK   20  A    between atoms: C_44  and  O_45
REMARK   21  A    between atoms: C_47  and  O_48
REMARK   22  A    between atoms: C_52  and  C_53
REMARK   23  A    between atoms: C_53  and  C_54
REMARK   24  A    between atoms: C_57  and  O_58
REMARK   25  A    between atoms: C_60  and  O_61
REMARK   26  A    between atoms: C_65  and  O_66
REMARK                            x       y       z     vdW  Elec       q    Type
REMARK                         _______ _______ _______ _____ _____    ______ ____
ROOT
ATOM      1  C   UNL     1     -10.969  12.082  64.908  0.00  0.00    +0.008 C 
ENDROOT
BRANCH   1   2
ATOM      2  C   UNL     1     -10.894  11.437  63.528  0.00  0.00    +0.048 C 
BRANCH   2   3
ATOM      3  C   UNL     1      -9.461  11.069  63.326  0.00  0.00    +0.208 C 
BRANCH   3   4
ATOM      4  O   UNL     1      -9.197   9.685  63.510  0.00  0.00    -0.448 OA
BRANCH   4   5
ATOM      5  C   UNL     1      -8.670   9.258  64.733  0.00  0.00    +0.323 C 
ATOM      6  O   UNL     1      -7.404   9.317  64.797  0.00  0.00    -0.250 OA
BRANCH   5   7
ATOM      7  C   UNL     1      -9.511   8.795  65.866  0.00  0.00    +0.170 C 
BRANCH   7   8
ATOM      8  C   UNL     1      -8.678   8.428  67.085  0.00  0.00    +0.121 C 
BRANCH   8   9
ATOM      9  N   UNL     1      -8.895   7.028  67.367  0.00  0.00    +0.301 N 
ATOM     10  C   UNL     1      -9.603   7.011  68.799  0.00  0.00    +0.086 C 
ATOM     11  C   UNL     1      -9.191   5.457  69.060  0.00  0.00    +0.027 A 
ATOM     12  C   UNL     1      -9.839   4.578  68.216  0.00  0.00    -0.012 A 
ATOM     13  C   UNL     1      -9.422   3.271  68.199  0.00  0.00    +0.036 A 
ATOM     14  C   UNL     1      -8.403   2.879  69.059  0.00  0.00    +0.172 A 
ATOM     15  C   UNL     1      -7.687   3.843  69.759  0.00  0.00    +0.172 A 
ATOM     16  C   UNL     1     -10.561   5.228  67.088  0.00  0.00    +0.087 C 
ATOM     17  C   UNL     1      -8.199   5.132  69.883  0.00  0.00    +0.041 A 
ATOM     18  C   UNL     1      -9.820   6.385  66.498  0.00  0.00    +0.114 C 
ATOM     19  C   UNL     1      -7.634   6.397  67.535  0.00  0.00    +0.171 C 
BRANCH  14  20
ATOM     20  O   UNL     1      -7.768   1.676  68.738  0.00  0.00    -0.468 OA
ATOM     21  C   UNL     1      -8.472   0.473  68.939  0.00  0.00    +0.253 C 
ENDBRANCH  14  20
BRANCH  15  22
ATOM     22  O   UNL     1      -6.324   3.613  69.981  0.00  0.00    -0.468 OA
ATOM     23  C   UNL     1      -5.497   4.581  70.573  0.00  0.00    +0.253 C 
ENDBRANCH  15  22
BRANCH  10  24
ATOM     24  C   UNL     1      -8.254   7.669  69.535  0.00  0.00    +0.086 C 
BRANCH  24  25
ATOM     25  C   UNL     1      -8.887   8.226  70.776  0.00  0.00    -0.013 A 
ATOM     26  C   UNL     1     -10.267   8.228  70.954  0.00  0.00    +0.036 A 
ATOM     27  C   UNL     1     -10.842   8.234  72.222  0.00  0.00    +0.172 A 
ATOM     28  C   UNL     1     -10.062   7.687  73.235  0.00  0.00    +0.172 A 
ATOM     29  C   UNL     1      -8.707   7.981  73.146  0.00  0.00    +0.040 A 
ATOM     30  C   UNL     1      -8.169   8.436  71.947  0.00  0.00    -0.001 A 
BRANCH  28  31
ATOM     31  O   UNL     1     -10.563   6.799  74.183  0.00  0.00    -0.468 OA
ATOM     32  C   UNL     1     -10.030   5.495  74.297  0.00  0.00    +0.253 C 
ENDBRANCH  28  31
BRANCH  27  33
ATOM     33  O   UNL     1     -12.229   8.126  72.380  0.00  0.00    -0.468 OA
ATOM     34  C   UNL     1     -13.046   9.227  72.037  0.00  0.00    +0.253 C 
ENDBRANCH  27  33
ENDBRANCH  24  25
ENDBRANCH  10  24
ENDBRANCH   8   9
ENDBRANCH   7   8
ENDBRANCH   5   7
ENDBRANCH   4   5
ENDBRANCH   3   4
ENDBRANCH   2   3
ENDBRANCH   1   2
BRANCH   1  35
ATOM     35  C   UNL     1     -12.319  12.679  65.187  0.00  0.00    +0.048 C 
BRANCH  35  36
ATOM     36  C   UNL     1     -12.395  14.155  64.887  0.00  0.00    +0.208 C 
BRANCH  36  37
ATOM     37  O   UNL     1     -11.164  14.816  64.999  0.00  0.00    -0.448 OA
BRANCH  37  38
ATOM     38  C   UNL     1     -11.037  16.192  64.846  0.00  0.00    +0.323 C 
ATOM     39  O   UNL     1     -11.688  16.687  63.875  0.00  0.00    -0.250 OA
BRANCH  38  40
ATOM     40  C   UNL     1     -10.214  17.040  65.746  0.00  0.00    +0.170 C 
BRANCH  40  41
ATOM     41  C   UNL     1      -9.145  16.193  66.427  0.00  0.00    +0.121 C 
BRANCH  41  43
ATOM     42  C   UNL     1      -8.937  15.060  68.594  0.00  0.00    +0.086 C 
ATOM     43  N   UNL     1      -9.032  16.432  67.795  0.00  0.00    +0.301 N 
ATOM     44  C   UNL     1      -7.782  17.072  68.211  0.00  0.00    +0.171 C 
ATOM     45  C   UNL     1     -10.095  17.184  68.343  0.00  0.00    +0.114 C 
ATOM     46  C   UNL     1     -10.581  16.777  69.695  0.00  0.00    +0.087 C 
ATOM     47  C   UNL     1     -11.147  15.405  69.485  0.00  0.00    -0.012 A 
ATOM     48  C   UNL     1     -12.270  14.942  70.121  0.00  0.00    +0.036 A 
ATOM     49  C   UNL     1     -12.358  13.563  70.264  0.00  0.00    +0.172 A 
ATOM     50  C   UNL     1     -11.700  12.785  69.320  0.00  0.00    +0.172 A 
ATOM     51  C   UNL     1     -10.790  13.360  68.451  0.00  0.00    +0.041 A 
ATOM     52  C   UNL     1     -10.537  14.731  68.425  0.00  0.00    +0.027 A 
BRANCH  50  53
ATOM     53  O   UNL     1     -11.815  11.400  69.480  0.00  0.00    -0.468 OA
ATOM     54  C   UNL     1     -11.399  10.532  68.429  0.00  0.00    +0.253 C 
ENDBRANCH  50  53
BRANCH  49  55
ATOM     55  O   UNL     1     -12.893  12.987  71.424  0.00  0.00    -0.468 OA
ATOM     56  C   UNL     1     -13.830  13.705  72.224  0.00  0.00    +0.253 C 
ENDBRANCH  49  55
BRANCH  42  57
ATOM     57  C   UNL     1      -8.542  14.150  67.252  0.00  0.00    +0.086 C 
BRANCH  57  61
ATOM     58  C   UNL     1      -5.589  11.552  68.800  0.00  0.00    +0.172 A 
ATOM     59  C   UNL     1      -5.735  12.831  69.304  0.00  0.00    +0.172 A 
ATOM     60  C   UNL     1      -6.833  13.566  68.883  0.00  0.00    +0.036 A 
ATOM     61  C   UNL     1      -7.494  13.226  67.721  0.00  0.00    -0.013 A 
ATOM     62  C   UNL     1      -7.370  11.955  67.232  0.00  0.00    -0.001 A 
ATOM     63  C   UNL     1      -6.310  11.195  67.667  0.00  0.00    +0.040 A 
BRANCH  58  65
ATOM     64  C   UNL     1      -5.150   9.615  69.884  0.00  0.00    +0.253 C 
ATOM     65  O   UNL     1      -4.774  10.673  69.483  0.00  0.00    -0.468 OA
ENDBRANCH  58  65
BRANCH  59  66
ATOM     66  O   UNL     1      -4.724  13.392  70.060  0.00  0.00    -0.468 OA
ATOM     67  C   UNL     1      -3.597  13.949  69.400  0.00  0.00    +0.253 C 
ENDBRANCH  59  66
ENDBRANCH  57  61
ENDBRANCH  42  57
ENDBRANCH  41  43
ENDBRANCH  40  41
ENDBRANCH  38  40
ENDBRANCH  37  38
ENDBRANCH  36  37
ENDBRANCH  35  36
ENDBRANCH   1  35
TORSDOF 26
ENDMDL
MODEL 8
REMARK VINA RESULT:      -6.6      2.211     10.093
REMARK  Name = 
REMARK  26 active torsions:
REMARK  status: ('A' for Active; 'I' for Inactive)
REMARK    1  A    between atoms: O_2  and  C_3
REMARK    2  A    between atoms: C_6  and  C_7
REMARK    3  A    between atoms: C_7  and  C_8
REMARK    4  A    between atoms: C_11  and  O_12
REMARK    5  A    between atoms: C_14  and  O_15
REMARK    6  A    between atoms: N_21  and  C_23
REMARK    7  A    between atoms: C_23  and  C_24
REMARK    8  A    between atoms: C_24  and  C_25
REMARK    9  A    between atoms: C_25  and  O_27
REMARK   10  A    between atoms: O_27  and  C_28
REMARK   11  A    between atoms: C_28  and  C_29
REMARK   12  A    between atoms: C_29  and  C_30
REMARK   13  A    between atoms: C_30  and  C_31
REMARK   14  A    between atoms: C_31  and  C_32
REMARK   15  A    between atoms: C_32  and  O_33
REMARK   16  A    between atoms: O_33  and  C_34
REMARK   17  A    between atoms: C_34  and  C_36
REMARK   18  A    between atoms: C_36  and  C_37
REMARK   19  A    between atoms: C_37  and  N_38
REMARK   20  A    between atoms: C_44  and  O_45
REMARK   21  A    between atoms: C_47  and  O_48
REMARK   22  A    between atoms: C_52  and  C_53
REMARK   23  A    between atoms: C_53  and  C_54
REMARK   24  A    between atoms: C_57  and  O_58
REMARK   25  A    between atoms: C_60  and  O_61
REMARK   26  A    between atoms: C_65  and  O_66
REMARK                            x       y       z     vdW  Elec       q    Type
REMARK                         _______ _______ _______ _____ _____    ______ ____
ROOT
ATOM      1  C   UNL     1      -7.365  14.647  67.686  0.00  0.00    +0.008 C 
ENDROOT
BRANCH   1   2
ATOM      2  C   UNL     1      -7.148  13.783  68.923  0.00  0.00    +0.048 C 
BRANCH   2   3
ATOM      3  C   UNL     1      -6.787  12.426  68.414  0.00  0.00    +0.208 C 
BRANCH   3   4
ATOM      4  O   UNL     1      -7.696  11.409  68.813  0.00  0.00    -0.448 OA
BRANCH   4   5
ATOM      5  C   UNL     1      -7.220  10.348  69.591  0.00  0.00    +0.323 C 
ATOM      6  O   UNL     1      -6.602  10.715  70.637  0.00  0.00    -0.250 OA
BRANCH   5   7
ATOM      7  C   UNL     1      -7.432   8.922  69.241  0.00  0.00    +0.170 C 
BRANCH   7   8
ATOM      8  C   UNL     1      -8.816   8.433  69.643  0.00  0.00    +0.121 C 
BRANCH   8   9
ATOM      9  N   UNL     1      -9.231   7.436  68.683  0.00  0.00    +0.301 N 
ATOM     10  C   UNL     1     -10.341   6.578  69.449  0.00  0.00    +0.086 C 
ATOM     11  C   UNL     1     -10.166   5.318  68.431  0.00  0.00    +0.027 A 
ATOM     12  C   UNL     1     -10.602   5.596  67.151  0.00  0.00    -0.012 A 
ATOM     13  C   UNL     1     -10.317   4.690  66.161  0.00  0.00    +0.036 A 
ATOM     14  C   UNL     1      -9.648   3.518  66.493  0.00  0.00    +0.172 A 
ATOM     15  C   UNL     1      -9.096   3.379  67.761  0.00  0.00    +0.172 A 
ATOM     16  C   UNL     1     -10.886   7.035  66.896  0.00  0.00    +0.087 C 
ATOM     17  C   UNL     1      -9.505   4.224  68.791  0.00  0.00    +0.041 A 
ATOM     18  C   UNL     1      -9.901   7.956  67.541  0.00  0.00    +0.114 C 
ATOM     19  C   UNL     1      -8.142   6.558  68.439  0.00  0.00    +0.171 C 
BRANCH  14  20
ATOM     20  O   UNL     1      -9.054   2.836  65.427  0.00  0.00    -0.468 OA
ATOM     21  C   UNL     1      -7.987   3.455  64.747  0.00  0.00    +0.253 C 
ENDBRANCH  14  20
BRANCH  15  22
ATOM     22  O   UNL     1      -7.891   2.675  67.878  0.00  0.00    -0.468 OA
ATOM     23  C   UNL     1      -7.296   2.429  69.126  0.00  0.00    +0.253 C 
ENDBRANCH  15  22
BRANCH  10  24
ATOM     24  C   UNL     1      -9.227   6.041  70.574  0.00  0.00    +0.086 C 
BRANCH  24  25
ATOM     25  C   UNL     1     -10.107   5.964  71.786  0.00  0.00    -0.013 A 
ATOM     26  C   UNL     1     -10.257   4.782  72.506  0.00  0.00    +0.036 A 
ATOM     27  C   UNL     1     -10.605   4.785  73.854  0.00  0.00    +0.172 A 
ATOM     28  C   UNL     1     -10.254   5.930  74.561  0.00  0.00    +0.172 A 
ATOM     29  C   UNL     1     -10.414   7.116  73.857  0.00  0.00    +0.040 A 
ATOM     30  C   UNL     1     -10.532   7.096  72.471  0.00  0.00    -0.001 A 
BRANCH  28  31
ATOM     31  O   UNL     1      -9.656   5.892  75.816  0.00  0.00    -0.468 OA
ATOM     32  C   UNL     1      -8.250   5.973  75.945  0.00  0.00    +0.253 C 
ENDBRANCH  28  31
BRANCH  27  33
ATOM     33  O   UNL     1     -10.644   3.592  74.585  0.00  0.00    -0.468 OA
ATOM     34  C   UNL     1     -10.381   2.372  73.922  0.00  0.00    +0.253 C 
ENDBRANCH  27  33
ENDBRANCH  24  25
ENDBRANCH  10  24
ENDBRANCH   8   9
ENDBRANCH   7   8
ENDBRANCH   5   7
ENDBRANCH   4   5
ENDBRANCH   3   4
ENDBRANCH   2   3
ENDBRANCH   1   2
BRANCH   1  35
ATOM     35  C   UNL     1      -8.308  15.789  67.945  0.00  0.00    +0.048 C 
BRANCH  35  36
ATOM     36  C   UNL     1      -8.121  16.948  66.999  0.00  0.00    +0.208 C 
BRANCH  36  37
ATOM     37  O   UNL     1      -8.706  16.748  65.741  0.00  0.00    -0.448 OA
BRANCH  37  38
ATOM     38  C   UNL     1     -10.063  16.943  65.508  0.00  0.00    +0.323 C 
ATOM     39  O   UNL     1     -10.505  18.086  65.838  0.00  0.00    -0.250 OA
BRANCH  38  40
ATOM     40  C   UNL     1     -10.946  15.908  64.912  0.00  0.00    +0.170 C 
BRANCH  40  41
ATOM     41  C   UNL     1     -10.959  14.664  65.794  0.00  0.00    +0.121 C 
BRANCH  41  43
ATOM     42  C   UNL     1     -11.347  12.245  65.936  0.00  0.00    +0.086 C 
ATOM     43  N   UNL     1     -11.771  13.643  65.305  0.00  0.00    +0.301 N 
ATOM     44  C   UNL     1     -13.173  13.711  65.722  0.00  0.00    +0.171 C 
ATOM     45  C   UNL     1     -11.753  13.509  63.899  0.00  0.00    +0.114 C 
ATOM     46  C   UNL     1     -11.766  12.120  63.353  0.00  0.00    +0.087 C 
ATOM     47  C   UNL     1     -10.466  11.532  63.812  0.00  0.00    -0.012 A 
ATOM     48  C   UNL     1      -9.709  10.677  63.053  0.00  0.00    +0.036 A 
ATOM     49  C   UNL     1      -8.876   9.817  63.759  0.00  0.00    +0.172 A 
ATOM     50  C   UNL     1      -8.437  10.245  65.005  0.00  0.00    +0.172 A 
ATOM     51  C   UNL     1      -9.017  11.343  65.614  0.00  0.00    +0.041 A 
ATOM     52  C   UNL     1     -10.006  12.109  64.998  0.00  0.00    +0.027 A 
BRANCH  50  53
ATOM     53  O   UNL     1      -7.589   9.367  65.690  0.00  0.00    -0.468 OA
ATOM     54  C   UNL     1      -6.203   9.676  65.811  0.00  0.00    +0.253 C 
ENDBRANCH  50  53
BRANCH  49  55
ATOM     55  O   UNL     1      -8.670   8.497  63.338  0.00  0.00    -0.468 OA
ATOM     56  C   UNL     1      -7.535   8.158  62.545  0.00  0.00    +0.253 C 
ENDBRANCH  49  55
BRANCH  42  57
ATOM     57  C   UNL     1     -10.479  12.921  67.191  0.00  0.00    +0.086 C 
BRANCH  57  61
ATOM     58  C   UNL     1     -12.385  11.449  70.664  0.00  0.00    +0.172 A 
ATOM     59  C   UNL     1     -12.290  12.810  70.437  0.00  0.00    +0.172 A 
ATOM     60  C   UNL     1     -11.819  13.222  69.200  0.00  0.00    +0.036 A 
ATOM     61  C   UNL     1     -11.086  12.360  68.412  0.00  0.00    -0.013 A 
ATOM     62  C   UNL     1     -11.196  11.012  68.619  0.00  0.00    -0.001 A 
ATOM     63  C   UNL     1     -11.698  10.582  69.824  0.00  0.00    +0.040 A 
BRANCH  58  65
ATOM     64  C   UNL     1     -13.220   9.890  72.075  0.00  0.00    +0.253 C 
ATOM     65  O   UNL     1     -13.206  11.017  71.686  0.00  0.00    -0.468 OA
ENDBRANCH  58  65
BRANCH  59  66
ATOM     66  O   UNL     1     -12.499  13.697  71.475  0.00  0.00    -0.468 OA
ATOM     67  C   UNL     1     -12.647  15.078  71.182  0.00  0.00    +0.253 C 
ENDBRANCH  59  66
ENDBRANCH  57  61
ENDBRANCH  42  57
ENDBRANCH  41  43
ENDBRANCH  40  41
ENDBRANCH  38  40
ENDBRANCH  37  38
ENDBRANCH  36  37
ENDBRANCH  35  36
ENDBRANCH   1  35
TORSDOF 26
ENDMDL
MODEL 9
REMARK VINA RESULT:      -6.6      1.821      4.450
REMARK  Name = 
REMARK  26 active torsions:
REMARK  status: ('A' for Active; 'I' for Inactive)
REMARK    1  A    between atoms: O_2  and  C_3
REMARK    2  A    between atoms: C_6  and  C_7
REMARK    3  A    between atoms: C_7  and  C_8
REMARK    4  A    between atoms: C_11  and  O_12
REMARK    5  A    between atoms: C_14  and  O_15
REMARK    6  A    between atoms: N_21  and  C_23
REMARK    7  A    between atoms: C_23  and  C_24
REMARK    8  A    between atoms: C_24  and  C_25
REMARK    9  A    between atoms: C_25  and  O_27
REMARK   10  A    between atoms: O_27  and  C_28
REMARK   11  A    between atoms: C_28  and  C_29
REMARK   12  A    between atoms: C_29  and  C_30
REMARK   13  A    between atoms: C_30  and  C_31
REMARK   14  A    between atoms: C_31  and  C_32
REMARK   15  A    between atoms: C_32  and  O_33
REMARK   16  A    between atoms: O_33  and  C_34
REMARK   17  A    between atoms: C_34  and  C_36
REMARK   18  A    between atoms: C_36  and  C_37
REMARK   19  A    between atoms: C_37  and  N_38
REMARK   20  A    between atoms: C_44  and  O_45
REMARK   21  A    between atoms: C_47  and  O_48
REMARK   22  A    between atoms: C_52  and  C_53
REMARK   23  A    between atoms: C_53  and  C_54
REMARK   24  A    between atoms: C_57  and  O_58
REMARK   25  A    between atoms: C_60  and  O_61
REMARK   26  A    between atoms: C_65  and  O_66
REMARK                            x       y       z     vdW  Elec       q    Type
REMARK                         _______ _______ _______ _____ _____    ______ ____
ROOT
ATOM      1  C   UNL     1     -10.185  10.376  64.370  0.00  0.00    +0.008 C 
ENDROOT
BRANCH   1   2
ATOM      2  C   UNL     1     -10.474  11.448  63.324  0.00  0.00    +0.048 C 
BRANCH   2   3
ATOM      3  C   UNL     1     -11.901  11.840  63.526  0.00  0.00    +0.208 C 
BRANCH   3   4
ATOM      4  O   UNL     1     -12.225  12.134  64.878  0.00  0.00    -0.448 OA
BRANCH   4   5
ATOM      5  C   UNL     1     -12.108  13.453  65.326  0.00  0.00    +0.323 C 
ATOM      6  O   UNL     1     -13.212  14.077  65.383  0.00  0.00    -0.250 OA
BRANCH   5   7
ATOM      7  C   UNL     1     -10.817  14.068  65.722  0.00  0.00    +0.170 C 
BRANCH   7   8
ATOM      8  C   UNL     1     -10.649  14.130  67.233  0.00  0.00    +0.121 C 
BRANCH   8   9
ATOM      9  N   UNL     1      -9.691  15.167  67.533  0.00  0.00    +0.301 N 
ATOM     10  C   UNL     1      -9.935  15.508  69.075  0.00  0.00    +0.086 C 
ATOM     11  C   UNL     1      -9.214  16.962  68.938  0.00  0.00    +0.027 A 
ATOM     12  C   UNL     1      -7.858  16.870  68.697  0.00  0.00    -0.012 A 
ATOM     13  C   UNL     1      -7.183  18.016  68.358  0.00  0.00    +0.036 A 
ATOM     14  C   UNL     1      -7.877  19.219  68.318  0.00  0.00    +0.172 A 
ATOM     15  C   UNL     1      -9.264  19.214  68.410  0.00  0.00    +0.172 A 
ATOM     16  C   UNL     1      -7.386  15.502  68.351  0.00  0.00    +0.087 C 
ATOM     17  C   UNL     1      -9.923  18.085  68.890  0.00  0.00    +0.041 A 
ATOM     18  C   UNL     1      -8.330  14.755  67.465  0.00  0.00    +0.114 C 
ATOM     19  C   UNL     1     -10.040  16.335  66.803  0.00  0.00    +0.171 C 
BRANCH  14  20
ATOM     20  O   UNL     1      -7.258  20.254  67.611  0.00  0.00    -0.468 OA
ATOM     21  C   UNL     1      -6.017  20.732  68.076  0.00  0.00    +0.253 C 
ENDBRANCH  14  20
BRANCH  15  22
ATOM     22  O   UNL     1      -9.973  20.168  67.670  0.00  0.00    -0.468 OA
ATOM     23  C   UNL     1     -10.648  19.834  66.484  0.00  0.00    +0.253 C 
ENDBRANCH  15  22
BRANCH  10  24
ATOM     24  C   UNL     1     -11.483  16.057  68.764  0.00  0.00    +0.086 C 
BRANCH  24  25
ATOM     25  C   UNL     1     -12.088  15.898  70.127  0.00  0.00    -0.013 A 
ATOM     26  C   UNL     1     -13.427  15.559  70.298  0.00  0.00    +0.036 A 
ATOM     27  C   UNL     1     -13.879  14.914  71.446  0.00  0.00    +0.172 A 
ATOM     28  C   UNL     1     -12.930  14.147  72.114  0.00  0.00    +0.172 A 
ATOM     29  C   UNL     1     -11.659  14.705  72.153  0.00  0.00    +0.040 A 
ATOM     30  C   UNL     1     -11.315  15.723  71.268  0.00  0.00    -0.001 A 
BRANCH  28  31
ATOM     31  O   UNL     1     -13.186  12.863  72.583  0.00  0.00    -0.468 OA
ATOM     32  C   UNL     1     -13.071  11.748  71.721  0.00  0.00    +0.253 C 
ENDBRANCH  28  31
BRANCH  27  33
ATOM     33  O   UNL     1     -15.208  14.485  71.549  0.00  0.00    -0.468 OA
ATOM     34  C   UNL     1     -16.243  15.353  71.134  0.00  0.00    +0.253 C 
ENDBRANCH  27  33
ENDBRANCH  24  25
ENDBRANCH  10  24
ENDBRANCH   8   9
ENDBRANCH   7   8
ENDBRANCH   5   7
ENDBRANCH   4   5
ENDBRANCH   3   4
ENDBRANCH   2   3
ENDBRANCH   1   2
BRANCH   1  35
ATOM     35  C   UNL     1      -9.020  10.735  65.249  0.00  0.00    +0.048 C 
BRANCH  35  36
ATOM     36  C   UNL     1      -9.356  10.731  66.719  0.00  0.00    +0.208 C 
BRANCH  36  37
ATOM     37  O   UNL     1     -10.542  10.050  67.024  0.00  0.00    -0.448 OA
BRANCH  37  38
ATOM     38  C   UNL     1     -11.268  10.296  68.184  0.00  0.00    +0.323 C 
ATOM     39  O   UNL     1     -12.111  11.241  68.100  0.00  0.00    -0.250 OA
BRANCH  38  40
ATOM     40  C   UNL     1     -11.092   9.517  69.437  0.00  0.00    +0.170 C 
BRANCH  40  41
ATOM     41  C   UNL     1     -10.460   8.165  69.125  0.00  0.00    +0.121 C 
BRANCH  41  43
ATOM     42  C   UNL     1      -9.192   6.486  70.388  0.00  0.00    +0.086 C 
ATOM     43  N   UNL     1      -9.247   7.953  69.776  0.00  0.00    +0.301 N 
ATOM     44  C   UNL     1      -8.071   7.925  68.905  0.00  0.00    +0.171 C 
ATOM     45  C   UNL     1      -8.980   8.869  70.818  0.00  0.00    +0.114 C 
ATOM     46  C   UNL     1      -8.338   8.321  72.050  0.00  0.00    +0.087 C 
ATOM     47  C   UNL     1      -9.364   7.386  72.614  0.00  0.00    -0.012 A 
ATOM     48  C   UNL     1      -9.593   7.230  73.956  0.00  0.00    +0.036 A 
ATOM     49  C   UNL     1     -10.131   6.008  74.341  0.00  0.00    +0.172 A 
ATOM     50  C   UNL     1     -10.901   5.333  73.402  0.00  0.00    +0.172 A 
ATOM     51  C   UNL     1     -10.901   5.733  72.078  0.00  0.00    +0.041 A 
ATOM     52  C   UNL     1     -10.200   6.853  71.630  0.00  0.00    +0.027 A 
BRANCH  50  53
ATOM     53  O   UNL     1     -11.441   4.111  73.818  0.00  0.00    -0.468 OA
ATOM     54  C   UNL     1     -10.949   2.895  73.259  0.00  0.00    +0.253 C 
ENDBRANCH  50  53
BRANCH  49  55
ATOM     55  O   UNL     1      -9.736   5.382  75.530  0.00  0.00    -0.468 OA
ATOM     56  C   UNL     1      -8.445   4.785  75.641  0.00  0.00    +0.253 C 
ENDBRANCH  49  55
BRANCH  42  57
ATOM     57  C   UNL     1     -10.447   5.904  69.455  0.00  0.00    +0.086 C 
BRANCH  57  61
ATOM     58  C   UNL     1      -8.820   2.517  67.522  0.00  0.00    +0.172 A 
ATOM     59  C   UNL     1      -9.380   3.545  66.787  0.00  0.00    +0.172 A 
ATOM     60  C   UNL     1      -9.729   4.703  67.465  0.00  0.00    +0.036 A 
ATOM     61  C   UNL     1      -9.916   4.679  68.831  0.00  0.00    -0.013 A 
ATOM     62  C   UNL     1      -9.344   3.676  69.564  0.00  0.00    -0.001 A 
ATOM     63  C   UNL     1      -8.953   2.535  68.905  0.00  0.00    +0.040 A 
BRANCH  58  65
ATOM     64  C   UNL     1      -8.249   0.381  67.040  0.00  0.00    +0.253 C 
ATOM     65  O   UNL     1      -8.105   1.549  66.847  0.00  0.00    -0.468 OA
ENDBRANCH  58  65
BRANCH  59  66
ATOM     66  O   UNL     1      -9.724   3.337  65.465  0.00  0.00    -0.468 OA
ATOM     67  C   UNL     1      -9.335   4.296  64.493  0.00  0.00    +0.253 C 
ENDBRANCH  59  66
ENDBRANCH  57  61
ENDBRANCH  42  57
ENDBRANCH  41  43
ENDBRANCH  40  41
ENDBRANCH  38  40
ENDBRANCH  37  38
ENDBRANCH  36  37
ENDBRANCH  35  36
ENDBRANCH   1  35
TORSDOF 26
ENDMDL
