MODEL 1
REMARK VINA RESULT:      -7.4      0.000      0.000
REMARK  Name = 
REMARK  8 active torsions:
REMARK  status: ('A' for Active; 'I' for Inactive)
REMARK    1  A    between atoms: C_2  and  C_4
REMARK    2  A    between atoms: C_4  and  C_5
REMARK    3  A    between atoms: C_5  and  C_7
REMARK    4  A    between atoms: C_7  and  C_8
REMARK    5  A    between atoms: C_8  and  C_10
REMARK    6  A    between atoms: C_11  and  C_12
REMARK    7  A    between atoms: C_13  and  C_14
REMARK    8  A    between atoms: C_24  and  C_25
REMARK                            x       y       z     vdW  Elec       q    Type
REMARK                         _______ _______ _______ _____ _____    ______ ____
ROOT
ATOM      1  C   UNL     1     -11.732  11.935  69.720  0.00  0.00    +0.013 A 
ATOM      2  C   UNL     1     -11.679  13.315  69.743  0.00  0.00    +0.003 A 
ATOM      3  C   UNL     1     -12.273  14.060  70.729  0.00  0.00    +0.018 A 
ATOM      4  C   UNL     1     -12.968  13.404  71.713  0.00  0.00    +0.081 A 
ATOM      5  C   UNL     1     -13.715  14.173  72.588  0.00  0.00    +0.019 A 
ATOM      6  C   UNL     1     -13.423  15.523  72.664  0.00  0.00    +0.002 A 
ATOM      7  C   UNL     1     -12.343  16.088  71.992  0.00  0.00    +0.000 A 
ATOM      8  N   UNL     1     -12.915  12.062  71.761  0.00  0.00    -0.250 NA
ATOM      9  C   UNL     1     -11.871  15.367  70.922  0.00  0.00    +0.001 A 
ATOM     10  C   UNL     1     -12.457  11.329  70.721  0.00  0.00    +0.059 A 
ENDROOT
BRANCH   2  11
ATOM     11  C   UNL     1     -11.177  13.983  68.545  0.00  0.00    +0.000 A 
ATOM     12  C   UNL     1      -9.842  14.221  68.372  0.00  0.00    +0.002 A 
ATOM     13  C   UNL     1      -9.435  15.034  67.324  0.00  0.00    +0.030 A 
ATOM     14  C   UNL     1     -10.384  15.624  66.526  0.00  0.00    +0.140 A 
ATOM     15  F   UNL     1     -10.196  16.802  65.872  0.00  0.00    -0.204 F 
ATOM     16  C   UNL     1     -11.571  14.912  66.386  0.00  0.00    +0.030 A 
ATOM     17  C   UNL     1     -12.016  14.196  67.462  0.00  0.00    +0.002 A 
ENDBRANCH   2  11
BRANCH  10  18
ATOM     18  C   UNL     1     -12.971   9.971  70.524  0.00  0.00    +0.040 C 
ATOM     19  C   UNL     1     -13.703   9.214  71.558  0.00  0.00    +0.006 C 
ATOM     20  C   UNL     1     -12.298   8.813  71.235  0.00  0.00    +0.006 C 
ENDBRANCH  10  18
BRANCH   1  22
ATOM     21  C   UNL     1      -9.839  10.579  68.992  0.00  0.00    +0.006 C 
ATOM     22  C   UNL     1     -11.010  11.152  68.758  0.00  0.00    -0.001 C 
BRANCH  21  23
ATOM     23  C   UNL     1      -9.114  10.394  67.518  0.00  0.00    +0.177 C 
ATOM     24  O   UNL     1      -9.518   8.895  67.469  0.00  0.00    -0.218 OA
BRANCH  23  25
ATOM     25  C   UNL     1     -10.517  10.853  66.724  0.00  0.00    +0.071 C 
BRANCH  25  26
ATOM     26  C   UNL     1      -9.888  11.796  65.488  0.00  0.00    +0.166 C 
ATOM     27  O   UNL     1      -8.814  10.778  65.040  0.00  0.00    -0.222 OA
BRANCH  26  28
ATOM     28  C   UNL     1     -11.000  11.135  64.412  0.00  0.00    +0.147 C 
BRANCH  28  30
ATOM     29  O   UNL     1     -11.833  12.844  63.154  0.00  0.00    -0.246 OA
ATOM     30  C   UNL     1     -11.857  12.267  64.037  0.00  0.00    +0.367 C 
ATOM     31  O   UNL     1     -13.120  12.284  64.638  0.00  0.00    -0.246 OA
ENDBRANCH  28  30
ENDBRANCH  26  28
ENDBRANCH  25  26
ENDBRANCH  23  25
ENDBRANCH  21  23
ENDBRANCH   1  22
TORSDOF 8
ENDMDL
MODEL 2
REMARK VINA RESULT:      -7.0      1.337      1.643
REMARK  Name = 
REMARK  8 active torsions:
REMARK  status: ('A' for Active; 'I' for Inactive)
REMARK    1  A    between atoms: C_2  and  C_4
REMARK    2  A    between atoms: C_4  and  C_5
REMARK    3  A    between atoms: C_5  and  C_7
REMARK    4  A    between atoms: C_7  and  C_8
REMARK    5  A    between atoms: C_8  and  C_10
REMARK    6  A    between atoms: C_11  and  C_12
REMARK    7  A    between atoms: C_13  and  C_14
REMARK    8  A    between atoms: C_24  and  C_25
REMARK                            x       y       z     vdW  Elec       q    Type
REMARK                         _______ _______ _______ _____ _____    ______ ____
ROOT
ATOM      1  C   UNL     1     -11.853  11.486  70.019  0.00  0.00    +0.013 A 
ATOM      2  C   UNL     1     -11.829  12.854  69.832  0.00  0.00    +0.003 A 
ATOM      3  C   UNL     1     -12.466  13.726  70.677  0.00  0.00    +0.018 A 
ATOM      4  C   UNL     1     -13.176  13.211  71.732  0.00  0.00    +0.081 A 
ATOM      5  C   UNL     1     -13.964  14.086  72.460  0.00  0.00    +0.019 A 
ATOM      6  C   UNL     1     -13.701  15.438  72.335  0.00  0.00    +0.002 A 
ATOM      7  C   UNL     1     -12.614  15.921  71.612  0.00  0.00    +0.000 A 
ATOM      8  N   UNL     1     -13.096  11.894  71.986  0.00  0.00    -0.250 NA
ATOM      9  C   UNL     1     -12.097  15.057  70.677  0.00  0.00    +0.001 A 
ATOM     10  C   UNL     1     -12.594  11.022  71.082  0.00  0.00    +0.059 A 
ENDROOT
BRANCH   2  11
ATOM     11  C   UNL     1     -11.307  13.344  68.559  0.00  0.00    +0.000 A 
ATOM     12  C   UNL     1      -9.973  13.589  68.387  0.00  0.00    +0.002 A 
ATOM     13  C   UNL     1      -9.554  14.243  67.236  0.00  0.00    +0.030 A 
ATOM     14  C   UNL     1     -10.492  14.676  66.332  0.00  0.00    +0.140 A 
ATOM     15  F   UNL     1     -10.311  15.744  65.509  0.00  0.00    -0.204 F 
ATOM     16  C   UNL     1     -11.657  13.919  66.272  0.00  0.00    +0.030 A 
ATOM     17  C   UNL     1     -12.118  13.365  67.434  0.00  0.00    +0.002 A 
ENDBRANCH   2  11
BRANCH  10  18
ATOM     18  C   UNL     1     -13.074   9.638  71.083  0.00  0.00    +0.040 C 
ATOM     19  C   UNL     1     -13.842   9.038  72.192  0.00  0.00    +0.006 C 
ATOM     20  C   UNL     1     -12.416   8.625  72.000  0.00  0.00    +0.006 C 
ENDBRANCH  10  18
BRANCH   1  22
ATOM     21  C   UNL     1      -9.928  10.057  69.570  0.00  0.00    +0.006 C 
ATOM     22  C   UNL     1     -11.088  10.583  69.207  0.00  0.00    -0.001 C 
BRANCH  21  23
ATOM     23  C   UNL     1      -9.138   9.676  68.169  0.00  0.00    +0.177 C 
ATOM     24  O   UNL     1      -9.342   8.158  68.425  0.00  0.00    -0.218 OA
BRANCH  23  25
ATOM     25  C   UNL     1     -10.562   9.774  67.290  0.00  0.00    +0.071 C 
BRANCH  25  26
ATOM     26  C   UNL     1     -10.041  10.616  65.935  0.00  0.00    +0.166 C 
ATOM     27  O   UNL     1      -8.618  10.909  66.465  0.00  0.00    -0.222 OA
BRANCH  26  28
ATOM     28  C   UNL     1      -9.514   9.177  65.239  0.00  0.00    +0.147 C 
BRANCH  28  30
ATOM     29  O   UNL     1      -8.205   9.127  63.374  0.00  0.00    -0.246 OA
ATOM     30  C   UNL     1      -8.971   9.584  63.937  0.00  0.00    +0.367 C 
ATOM     31  O   UNL     1      -9.846  10.319  63.130  0.00  0.00    -0.246 OA
ENDBRANCH  28  30
ENDBRANCH  26  28
ENDBRANCH  25  26
ENDBRANCH  23  25
ENDBRANCH  21  23
ENDBRANCH   1  22
TORSDOF 8
ENDMDL
MODEL 3
REMARK VINA RESULT:      -7.0      2.598      3.485
REMARK  Name = 
REMARK  8 active torsions:
REMARK  status: ('A' for Active; 'I' for Inactive)
REMARK    1  A    between atoms: C_2  and  C_4
REMARK    2  A    between atoms: C_4  and  C_5
REMARK    3  A    between atoms: C_5  and  C_7
REMARK    4  A    between atoms: C_7  and  C_8
REMARK    5  A    between atoms: C_8  and  C_10
REMARK    6  A    between atoms: C_11  and  C_12
REMARK    7  A    between atoms: C_13  and  C_14
REMARK    8  A    between atoms: C_24  and  C_25
REMARK                            x       y       z     vdW  Elec       q    Type
REMARK                         _______ _______ _______ _____ _____    ______ ____
ROOT
ATOM      1  C   UNL     1     -11.799  11.182  70.059  0.00  0.00    +0.013 A 
ATOM      2  C   UNL     1     -11.732  12.526  69.746  0.00  0.00    +0.003 A 
ATOM      3  C   UNL     1     -12.384  13.487  70.474  0.00  0.00    +0.018 A 
ATOM      4  C   UNL     1     -13.153  13.090  71.539  0.00  0.00    +0.081 A 
ATOM      5  C   UNL     1     -13.949  14.047  72.144  0.00  0.00    +0.019 A 
ATOM      6  C   UNL     1     -13.647  15.375  71.905  0.00  0.00    +0.002 A 
ATOM      7  C   UNL     1     -12.517  15.764  71.191  0.00  0.00    +0.000 A 
ATOM      8  N   UNL     1     -13.118  11.801  71.919  0.00  0.00    -0.250 NA
ATOM      9  C   UNL     1     -11.981  14.804  70.367  0.00  0.00    +0.001 A 
ATOM     10  C   UNL     1     -12.598  10.837  71.126  0.00  0.00    +0.059 A 
ENDROOT
BRANCH   2  11
ATOM     11  C   UNL     1     -11.142  12.881  68.458  0.00  0.00    +0.000 A 
ATOM     12  C   UNL     1      -9.804  13.137  68.338  0.00  0.00    +0.002 A 
ATOM     13  C   UNL     1      -9.327  13.666  67.147  0.00  0.00    +0.030 A 
ATOM     14  C   UNL     1     -10.215  13.972  66.146  0.00  0.00    +0.140 A 
ATOM     15  F   UNL     1     -10.002  14.945  65.219  0.00  0.00    -0.204 F 
ATOM     16  C   UNL     1     -11.361  13.186  66.104  0.00  0.00    +0.030 A 
ATOM     17  C   UNL     1     -11.883  12.756  67.293  0.00  0.00    +0.002 A 
ENDBRANCH   2  11
BRANCH  10  18
ATOM     18  C   UNL     1     -13.114   9.470  71.234  0.00  0.00    +0.040 C 
ATOM     19  C   UNL     1     -13.892   8.977  72.387  0.00  0.00    +0.006 C 
ATOM     20  C   UNL     1     -12.478   8.515  72.226  0.00  0.00    +0.006 C 
ENDBRANCH  10  18
BRANCH   1  22
ATOM     21  C   UNL     1      -9.845   9.748  69.787  0.00  0.00    +0.006 C 
ATOM     22  C   UNL     1     -11.022  10.190  69.372  0.00  0.00    -0.001 C 
BRANCH  21  23
ATOM     23  C   UNL     1      -9.064   9.189  68.443  0.00  0.00    +0.177 C 
ATOM     24  O   UNL     1      -8.559   7.938  69.213  0.00  0.00    -0.218 OA
BRANCH  23  25
ATOM     25  C   UNL     1     -10.440   8.383  67.927  0.00  0.00    +0.071 C 
BRANCH  25  26
ATOM     26  C   UNL     1     -10.075   6.810  68.381  0.00  0.00    +0.166 C 
ATOM     27  O   UNL     1     -11.342   6.592  69.241  0.00  0.00    -0.222 OA
BRANCH  26  28
ATOM     28  C   UNL     1     -10.870   6.228  67.016  0.00  0.00    +0.147 C 
BRANCH  28  30
ATOM     29  O   UNL     1      -9.857   4.224  67.411  0.00  0.00    -0.246 OA
ATOM     30  C   UNL     1     -10.207   4.949  66.730  0.00  0.00    +0.367 C 
ATOM     31  O   UNL     1     -10.498   4.395  65.479  0.00  0.00    -0.246 OA
ENDBRANCH  28  30
ENDBRANCH  26  28
ENDBRANCH  25  26
ENDBRANCH  23  25
ENDBRANCH  21  23
ENDBRANCH   1  22
TORSDOF 8
ENDMDL
MODEL 4
REMARK VINA RESULT:      -6.8      2.783      5.521
REMARK  Name = 
REMARK  8 active torsions:
REMARK  status: ('A' for Active; 'I' for Inactive)
REMARK    1  A    between atoms: C_2  and  C_4
REMARK    2  A    between atoms: C_4  and  C_5
REMARK    3  A    between atoms: C_5  and  C_7
REMARK    4  A    between atoms: C_7  and  C_8
REMARK    5  A    between atoms: C_8  and  C_10
REMARK    6  A    between atoms: C_11  and  C_12
REMARK    7  A    between atoms: C_13  and  C_14
REMARK    8  A    between atoms: C_24  and  C_25
REMARK                            x       y       z     vdW  Elec       q    Type
REMARK                         _______ _______ _______ _____ _____    ______ ____
ROOT
ATOM      1  C   UNL     1     -11.684  13.720  68.793  0.00  0.00    +0.013 A 
ATOM      2  C   UNL     1     -11.074  14.137  67.627  0.00  0.00    +0.003 A 
ATOM      3  C   UNL     1     -10.647  15.426  67.437  0.00  0.00    +0.018 A 
ATOM      4  C   UNL     1     -10.861  16.338  68.439  0.00  0.00    +0.081 A 
ATOM      5  C   UNL     1     -10.597  17.668  68.158  0.00  0.00    +0.019 A 
ATOM      6  C   UNL     1      -9.797  17.945  67.065  0.00  0.00    +0.002 A 
ATOM      7  C   UNL     1      -9.167  16.943  66.332  0.00  0.00    +0.000 A 
ATOM      8  N   UNL     1     -11.339  15.907  69.618  0.00  0.00    -0.250 NA
ATOM      9  C   UNL     1      -9.720  15.691  66.448  0.00  0.00    +0.001 A 
ATOM     10  C   UNL     1     -11.890  14.680  69.758  0.00  0.00    +0.059 A 
ENDROOT
BRANCH   2  11
ATOM     11  C   UNL     1     -11.115  13.221  66.490  0.00  0.00    +0.000 A 
ATOM     12  C   UNL     1     -10.170  12.248  66.328  0.00  0.00    +0.002 A 
ATOM     13  C   UNL     1     -10.131  11.540  65.135  0.00  0.00    +0.030 A 
ATOM     14  C   UNL     1     -11.004  11.875  64.129  0.00  0.00    +0.140 A 
ATOM     15  F   UNL     1     -10.741  11.686  62.808  0.00  0.00    -0.204 F 
ATOM     16  C   UNL     1     -12.223  12.397  64.546  0.00  0.00    +0.030 A 
ATOM     17  C   UNL     1     -12.231  13.180  65.667  0.00  0.00    +0.002 A 
ENDBRANCH   2  11
BRANCH  10  18
ATOM     18  C   UNL     1     -12.921  14.474  70.779  0.00  0.00    +0.040 C 
ATOM     19  C   UNL     1     -13.495  15.561  71.595  0.00  0.00    +0.006 C 
ATOM     20  C   UNL     1     -12.549  14.599  72.244  0.00  0.00    +0.006 C 
ENDBRANCH  10  18
BRANCH   1  22
ATOM     21  C   UNL     1     -11.618  11.659  70.097  0.00  0.00    +0.006 C 
ATOM     22  C   UNL     1     -12.021  12.346  69.039  0.00  0.00    -0.001 C 
BRANCH  21  23
ATOM     23  C   UNL     1     -11.649  10.068  69.651  0.00  0.00    +0.177 C 
ATOM     24  O   UNL     1     -10.240  10.184  69.008  0.00  0.00    -0.218 OA
BRANCH  23  25
ATOM     25  C   UNL     1     -10.998   9.599  71.123  0.00  0.00    +0.071 C 
BRANCH  25  26
ATOM     26  C   UNL     1     -11.781   8.136  71.365  0.00  0.00    +0.166 C 
ATOM     27  O   UNL     1     -11.326   7.950  72.831  0.00  0.00    -0.222 OA
BRANCH  26  28
ATOM     28  C   UNL     1     -13.162   8.954  71.870  0.00  0.00    +0.147 C 
BRANCH  28  30
ATOM     29  O   UNL     1     -14.191   7.000  71.306  0.00  0.00    -0.246 OA
ATOM     30  C   UNL     1     -14.253   7.997  71.643  0.00  0.00    +0.367 C 
ATOM     31  O   UNL     1     -15.410   8.224  72.395  0.00  0.00    -0.246 OA
ENDBRANCH  28  30
ENDBRANCH  26  28
ENDBRANCH  25  26
ENDBRANCH  23  25
ENDBRANCH  21  23
ENDBRANCH   1  22
TORSDOF 8
ENDMDL
MODEL 5
REMARK VINA RESULT:      -6.8      3.550      6.419
REMARK  Name = 
REMARK  8 active torsions:
REMARK  status: ('A' for Active; 'I' for Inactive)
REMARK    1  A    between atoms: C_2  and  C_4
REMARK    2  A    between atoms: C_4  and  C_5
REMARK    3  A    between atoms: C_5  and  C_7
REMARK    4  A    between atoms: C_7  and  C_8
REMARK    5  A    between atoms: C_8  and  C_10
REMARK    6  A    between atoms: C_11  and  C_12
REMARK    7  A    between atoms: C_13  and  C_14
REMARK    8  A    between atoms: C_24  and  C_25
REMARK                            x       y       z     vdW  Elec       q    Type
REMARK                         _______ _______ _______ _____ _____    ______ ____
ROOT
ATOM      1  C   UNL     1     -11.097  12.845  68.098  0.00  0.00    +0.013 A 
ATOM      2  C   UNL     1     -10.593  13.051  66.828  0.00  0.00    +0.003 A 
ATOM      3  C   UNL     1     -10.351  12.023  65.954  0.00  0.00    +0.018 A 
ATOM      4  C   UNL     1     -10.596  10.739  66.372  0.00  0.00    +0.081 A 
ATOM      5  C   UNL     1     -10.171   9.709  65.552  0.00  0.00    +0.019 A 
ATOM      6  C   UNL     1      -9.887  10.015  64.233  0.00  0.00    +0.002 A 
ATOM      7  C   UNL     1     -10.130  11.276  63.695  0.00  0.00    +0.000 A 
ATOM      8  N   UNL     1     -11.201  10.547  67.556  0.00  0.00    -0.250 NA
ATOM      9  C   UNL     1     -10.227  12.298  64.606  0.00  0.00    +0.001 A 
ATOM     10  C   UNL     1     -11.308  11.537  68.472  0.00  0.00    +0.059 A 
ENDROOT
BRANCH   2  11
ATOM     11  C   UNL     1     -10.087  14.386  66.522  0.00  0.00    +0.000 A 
ATOM     12  C   UNL     1      -8.758  14.685  66.637  0.00  0.00    +0.002 A 
ATOM     13  C   UNL     1      -8.356  16.009  66.534  0.00  0.00    +0.030 A 
ATOM     14  C   UNL     1      -9.306  16.988  66.378  0.00  0.00    +0.140 A 
ATOM     15  F   UNL     1      -9.146  18.271  66.800  0.00  0.00    -0.204 F 
ATOM     16  C   UNL     1     -10.462  16.596  65.710  0.00  0.00    +0.030 A 
ATOM     17  C   UNL     1     -10.906  15.318  65.901  0.00  0.00    +0.002 A 
ENDBRANCH   2  11
BRANCH  10  18
ATOM     18  C   UNL     1     -11.365  11.189  69.894  0.00  0.00    +0.040 C 
ATOM     19  C   UNL     1     -11.290   9.806  70.403  0.00  0.00    +0.006 C 
ATOM     20  C   UNL     1     -12.607  10.515  70.443  0.00  0.00    +0.006 C 
ENDBRANCH  10  18
BRANCH   1  22
ATOM     21  C   UNL     1     -10.597  14.658  69.652  0.00  0.00    +0.006 C 
ATOM     22  C   UNL     1     -11.464  13.926  68.967  0.00  0.00    -0.001 C 
BRANCH  21  23
ATOM     23  C   UNL     1     -11.428  15.264  70.945  0.00  0.00    +0.177 C 
ATOM     24  O   UNL     1     -12.124  16.323  70.046  0.00  0.00    -0.218 OA
BRANCH  23  25
ATOM     25  C   UNL     1     -12.674  14.168  70.711  0.00  0.00    +0.071 C 
BRANCH  25  26
ATOM     26  C   UNL     1     -13.734  14.630  71.927  0.00  0.00    +0.166 C 
ATOM     27  O   UNL     1     -13.948  13.210  72.502  0.00  0.00    -0.222 OA
BRANCH  26  28
ATOM     28  C   UNL     1     -12.436  14.884  72.968  0.00  0.00    +0.147 C 
BRANCH  28  30
ATOM     29  O   UNL     1     -13.724  16.602  73.733  0.00  0.00    -0.246 OA
ATOM     30  C   UNL     1     -12.883  15.974  73.844  0.00  0.00    +0.367 C 
ATOM     31  O   UNL     1     -12.481  15.869  75.179  0.00  0.00    -0.246 OA
ENDBRANCH  28  30
ENDBRANCH  26  28
ENDBRANCH  25  26
ENDBRANCH  23  25
ENDBRANCH  21  23
ENDBRANCH   1  22
TORSDOF 8
ENDMDL
MODEL 6
REMARK VINA RESULT:      -6.7      2.004      4.558
REMARK  Name = 
REMARK  8 active torsions:
REMARK  status: ('A' for Active; 'I' for Inactive)
REMARK    1  A    between atoms: C_2  and  C_4
REMARK    2  A    between atoms: C_4  and  C_5
REMARK    3  A    between atoms: C_5  and  C_7
REMARK    4  A    between atoms: C_7  and  C_8
REMARK    5  A    between atoms: C_8  and  C_10
REMARK    6  A    between atoms: C_11  and  C_12
REMARK    7  A    between atoms: C_13  and  C_14
REMARK    8  A    between atoms: C_24  and  C_25
REMARK                            x       y       z     vdW  Elec       q    Type
REMARK                         _______ _______ _______ _____ _____    ______ ____
ROOT
ATOM      1  C   UNL     1     -11.895  12.240  69.821  0.00  0.00    +0.013 A 
ATOM      2  C   UNL     1     -11.459  10.944  69.634  0.00  0.00    +0.003 A 
ATOM      3  C   UNL     1     -11.782   9.925  70.493  0.00  0.00    +0.018 A 
ATOM      4  C   UNL     1     -12.548  10.218  71.593  0.00  0.00    +0.081 A 
ATOM      5  C   UNL     1     -12.706   9.224  72.544  0.00  0.00    +0.019 A 
ATOM      6  C   UNL     1     -12.424   7.924  72.164  0.00  0.00    +0.002 A 
ATOM      7  C   UNL     1     -12.111   7.585  70.851  0.00  0.00    +0.000 A 
ATOM      8  N   UNL     1     -13.076  11.448  71.708  0.00  0.00    -0.250 NA
ATOM      9  C   UNL     1     -11.658   8.617  70.066  0.00  0.00    +0.001 A 
ATOM     10  C   UNL     1     -12.646  12.482  70.949  0.00  0.00    +0.059 A 
ENDROOT
BRANCH   2  11
ATOM     11  C   UNL     1     -10.429  10.727  68.622  0.00  0.00    +0.000 A 
ATOM     12  C   UNL     1      -9.112  10.598  68.966  0.00  0.00    +0.002 A 
ATOM     13  C   UNL     1      -8.153  10.598  67.964  0.00  0.00    +0.030 A 
ATOM     14  C   UNL     1      -8.544  10.786  66.661  0.00  0.00    +0.140 A 
ATOM     15  F   UNL     1      -7.750  11.341  65.706  0.00  0.00    -0.204 F 
ATOM     16  C   UNL     1      -9.821  10.331  66.351  0.00  0.00    +0.030 A 
ATOM     17  C   UNL     1     -10.786  10.432  67.315  0.00  0.00    +0.002 A 
ENDBRANCH   2  11
BRANCH  10  18
ATOM     18  C   UNL     1     -12.737  13.843  71.482  0.00  0.00    +0.040 C 
ATOM     19  C   UNL     1     -13.350  14.175  72.783  0.00  0.00    +0.006 C 
ATOM     20  C   UNL     1     -14.088  14.531  71.531  0.00  0.00    +0.006 C 
ENDBRANCH  10  18
BRANCH   1  22
ATOM     21  C   UNL     1     -10.569  14.033  68.832  0.00  0.00    +0.006 C 
ATOM     22  C   UNL     1     -11.658  13.280  68.860  0.00  0.00    -0.001 C 
BRANCH  21  23
ATOM     23  C   UNL     1     -11.000  15.436  68.073  0.00  0.00    +0.177 C 
ATOM     24  O   UNL     1      -9.723  16.152  68.594  0.00  0.00    -0.218 OA
BRANCH  23  25
ATOM     25  C   UNL     1     -10.225  14.962  66.664  0.00  0.00    +0.071 C 
BRANCH  25  26
ATOM     26  C   UNL     1     -11.493  15.025  65.568  0.00  0.00    +0.166 C 
ATOM     27  O   UNL     1     -10.773  15.930  64.541  0.00  0.00    -0.222 OA
BRANCH  26  28
ATOM     28  C   UNL     1     -10.905  13.646  64.803  0.00  0.00    +0.147 C 
BRANCH  28  30
ATOM     29  O   UNL     1     -12.912  12.591  65.034  0.00  0.00    -0.246 OA
ATOM     30  C   UNL     1     -12.112  12.902  64.422  0.00  0.00    +0.367 C 
ATOM     31  O   UNL     1     -12.501  13.042  63.085  0.00  0.00    -0.246 OA
ENDBRANCH  28  30
ENDBRANCH  26  28
ENDBRANCH  25  26
ENDBRANCH  23  25
ENDBRANCH  21  23
ENDBRANCH   1  22
TORSDOF 8
ENDMDL
MODEL 7
REMARK VINA RESULT:      -6.7      2.251      3.574
REMARK  Name = 
REMARK  8 active torsions:
REMARK  status: ('A' for Active; 'I' for Inactive)
REMARK    1  A    between atoms: C_2  and  C_4
REMARK    2  A    between atoms: C_4  and  C_5
REMARK    3  A    between atoms: C_5  and  C_7
REMARK    4  A    between atoms: C_7  and  C_8
REMARK    5  A    between atoms: C_8  and  C_10
REMARK    6  A    between atoms: C_11  and  C_12
REMARK    7  A    between atoms: C_13  and  C_14
REMARK    8  A    between atoms: C_24  and  C_25
REMARK                            x       y       z     vdW  Elec       q    Type
REMARK                         _______ _______ _______ _____ _____    ______ ____
ROOT
ATOM      1  C   UNL     1     -11.872  11.476  69.890  0.00  0.00    +0.013 A 
ATOM      2  C   UNL     1     -11.811  12.841  69.686  0.00  0.00    +0.003 A 
ATOM      3  C   UNL     1     -12.352  13.743  70.565  0.00  0.00    +0.018 A 
ATOM      4  C   UNL     1     -13.002  13.265  71.674  0.00  0.00    +0.081 A 
ATOM      5  C   UNL     1     -13.701  14.176  72.447  0.00  0.00    +0.019 A 
ATOM      6  C   UNL     1     -13.398  15.516  72.288  0.00  0.00    +0.002 A 
ATOM      7  C   UNL     1     -12.350  15.951  71.482  0.00  0.00    +0.000 A 
ATOM      8  N   UNL     1     -12.953  11.948  71.937  0.00  0.00    -0.250 NA
ATOM      9  C   UNL     1     -11.935  15.059  70.523  0.00  0.00    +0.001 A 
ATOM     10  C   UNL     1     -12.550  11.050  71.010  0.00  0.00    +0.059 A 
ENDROOT
BRANCH   2  11
ATOM     11  C   UNL     1     -11.365  13.298  68.373  0.00  0.00    +0.000 A 
ATOM     12  C   UNL     1     -12.261  13.633  67.397  0.00  0.00    +0.002 A 
ATOM     13  C   UNL     1     -11.796  13.864  66.110  0.00  0.00    +0.030 A 
ATOM     14  C   UNL     1     -10.461  13.694  65.838  0.00  0.00    +0.140 A 
ATOM     15  F   UNL     1      -9.977  13.349  64.614  0.00  0.00    -0.204 F 
ATOM     16  C   UNL     1      -9.600  13.938  66.903  0.00  0.00    +0.030 A 
ATOM     17  C   UNL     1     -10.030  13.609  68.158  0.00  0.00    +0.002 A 
ENDBRANCH   2  11
BRANCH  10  18
ATOM     18  C   UNL     1     -13.081   9.686  71.061  0.00  0.00    +0.040 C 
ATOM     19  C   UNL     1     -13.829   9.140  72.211  0.00  0.00    +0.006 C 
ATOM     20  C   UNL     1     -12.427   8.670  71.979  0.00  0.00    +0.006 C 
ENDBRANCH  10  18
BRANCH   1  22
ATOM     21  C   UNL     1      -9.974  10.087  69.242  0.00  0.00    +0.006 C 
ATOM     22  C   UNL     1     -11.202  10.538  69.035  0.00  0.00    -0.001 C 
BRANCH  21  23
ATOM     23  C   UNL     1      -9.400   9.620  67.765  0.00  0.00    +0.177 C 
ATOM     24  O   UNL     1      -7.951  10.010  68.165  0.00  0.00    -0.218 OA
BRANCH  23  25
ATOM     25  C   UNL     1      -9.182   8.047  68.300  0.00  0.00    +0.071 C 
BRANCH  25  26
ATOM     26  C   UNL     1     -10.341   7.240  67.394  0.00  0.00    +0.166 C 
ATOM     27  O   UNL     1      -9.362   6.702  66.323  0.00  0.00    -0.222 OA
BRANCH  26  28
ATOM     28  C   UNL     1     -10.117   5.860  68.329  0.00  0.00    +0.147 C 
BRANCH  28  30
ATOM     29  O   UNL     1     -11.878   6.279  69.714  0.00  0.00    -0.246 OA
ATOM     30  C   UNL     1     -10.842   6.146  69.574  0.00  0.00    +0.367 C 
ATOM     31  O   UNL     1     -10.207   5.719  70.745  0.00  0.00    -0.246 OA
ENDBRANCH  28  30
ENDBRANCH  26  28
ENDBRANCH  25  26
ENDBRANCH  23  25
ENDBRANCH  21  23
ENDBRANCH   1  22
TORSDOF 8
ENDMDL
MODEL 8
REMARK VINA RESULT:      -6.6      2.214      3.614
REMARK  Name = 
REMARK  8 active torsions:
REMARK  status: ('A' for Active; 'I' for Inactive)
REMARK    1  A    between atoms: C_2  and  C_4
REMARK    2  A    between atoms: C_4  and  C_5
REMARK    3  A    between atoms: C_5  and  C_7
REMARK    4  A    between atoms: C_7  and  C_8
REMARK    5  A    between atoms: C_8  and  C_10
REMARK    6  A    between atoms: C_11  and  C_12
REMARK    7  A    between atoms: C_13  and  C_14
REMARK    8  A    between atoms: C_24  and  C_25
REMARK                            x       y       z     vdW  Elec       q    Type
REMARK                         _______ _______ _______ _____ _____    ______ ____
ROOT
ATOM      1  C   UNL     1     -11.910  11.478  69.914  0.00  0.00    +0.013 A 
ATOM      2  C   UNL     1     -11.851  12.842  69.711  0.00  0.00    +0.003 A 
ATOM      3  C   UNL     1     -12.398  13.743  70.589  0.00  0.00    +0.018 A 
ATOM      4  C   UNL     1     -13.051  13.262  71.696  0.00  0.00    +0.081 A 
ATOM      5  C   UNL     1     -13.756  14.170  72.467  0.00  0.00    +0.019 A 
ATOM      6  C   UNL     1     -13.456  15.511  72.311  0.00  0.00    +0.002 A 
ATOM      7  C   UNL     1     -12.405  15.949  71.509  0.00  0.00    +0.000 A 
ATOM      8  N   UNL     1     -13.000  11.945  71.958  0.00  0.00    -0.250 NA
ATOM      9  C   UNL     1     -11.984  15.060  70.550  0.00  0.00    +0.001 A 
ATOM     10  C   UNL     1     -12.591  11.049  71.031  0.00  0.00    +0.059 A 
ENDROOT
BRANCH   2  11
ATOM     11  C   UNL     1     -11.402  13.303  68.401  0.00  0.00    +0.000 A 
ATOM     12  C   UNL     1     -12.281  13.468  67.367  0.00  0.00    +0.002 A 
ATOM     13  C   UNL     1     -11.783  13.708  66.094  0.00  0.00    +0.030 A 
ATOM     14  C   UNL     1     -10.425  13.714  65.896  0.00  0.00    +0.140 A 
ATOM     15  F   UNL     1      -9.832  13.390  64.715  0.00  0.00    -0.204 F 
ATOM     16  C   UNL     1      -9.665  14.120  66.988  0.00  0.00    +0.030 A 
ATOM     17  C   UNL     1     -10.113  13.788  68.236  0.00  0.00    +0.002 A 
ENDBRANCH   2  11
BRANCH  10  18
ATOM     18  C   UNL     1     -13.119   9.683  71.079  0.00  0.00    +0.040 C 
ATOM     19  C   UNL     1     -13.810   9.112  72.252  0.00  0.00    +0.006 C 
ATOM     20  C   UNL     1     -12.421   8.649  71.942  0.00  0.00    +0.006 C 
ENDBRANCH  10  18
BRANCH   1  22
ATOM     21  C   UNL     1     -10.055  10.004  69.332  0.00  0.00    +0.006 C 
ATOM     22  C   UNL     1     -11.235  10.542  69.061  0.00  0.00    -0.001 C 
BRANCH  21  23
ATOM     23  C   UNL     1      -9.400   9.576  67.877  0.00  0.00    +0.177 C 
ATOM     24  O   UNL     1     -10.487  10.378  67.111  0.00  0.00    -0.218 OA
BRANCH  23  25
ATOM     25  C   UNL     1      -8.368  10.896  67.904  0.00  0.00    +0.071 C 
BRANCH  25  26
ATOM     26  C   UNL     1      -7.345  10.473  69.165  0.00  0.00    +0.166 C 
ATOM     27  O   UNL     1      -6.297   9.751  68.286  0.00  0.00    -0.222 OA
BRANCH  26  28
ATOM     28  C   UNL     1      -6.523  11.931  68.992  0.00  0.00    +0.147 C 
BRANCH  28  30
ATOM     29  O   UNL     1      -5.717  13.057  70.803  0.00  0.00    -0.246 OA
ATOM     30  C   UNL     1      -5.890  12.146  70.300  0.00  0.00    +0.367 C 
ATOM     31  O   UNL     1      -5.970  11.067  71.185  0.00  0.00    -0.246 OA
ENDBRANCH  28  30
ENDBRANCH  26  28
ENDBRANCH  25  26
ENDBRANCH  23  25
ENDBRANCH  21  23
ENDBRANCH   1  22
TORSDOF 8
ENDMDL
MODEL 9
REMARK VINA RESULT:      -6.5      2.518      5.331
REMARK  Name = 
REMARK  8 active torsions:
REMARK  status: ('A' for Active; 'I' for Inactive)
REMARK    1  A    between atoms: C_2  and  C_4
REMARK    2  A    between atoms: C_4  and  C_5
REMARK    3  A    between atoms: C_5  and  C_7
REMARK    4  A    between atoms: C_7  and  C_8
REMARK    5  A    between atoms: C_8  and  C_10
REMARK    6  A    between atoms: C_11  and  C_12
REMARK    7  A    between atoms: C_13  and  C_14
REMARK    8  A    between atoms: C_24  and  C_25
REMARK                            x       y       z     vdW  Elec       q    Type
REMARK                         _______ _______ _______ _____ _____    ______ ____
ROOT
ATOM      1  C   UNL     1     -11.498  14.535  68.500  0.00  0.00    +0.013 A 
ATOM      2  C   UNL     1     -10.872  15.026  67.371  0.00  0.00    +0.003 A 
ATOM      3  C   UNL     1     -10.380  16.304  67.298  0.00  0.00    +0.018 A 
ATOM      4  C   UNL     1     -10.542  17.130  68.382  0.00  0.00    +0.081 A 
ATOM      5  C   UNL     1     -10.211  18.464  68.223  0.00  0.00    +0.019 A 
ATOM      6  C   UNL     1      -9.402  18.800  67.153  0.00  0.00    +0.002 A 
ATOM      7  C   UNL     1      -8.828  17.840  66.325  0.00  0.00    +0.000 A 
ATOM      8  N   UNL     1     -11.037  16.615  69.520  0.00  0.00    -0.250 NA
ATOM      9  C   UNL     1      -9.444  16.612  66.330  0.00  0.00    +0.001 A 
ATOM     10  C   UNL     1     -11.650  15.410  69.551  0.00  0.00    +0.059 A 
ENDROOT
BRANCH   2  11
ATOM     11  C   UNL     1     -10.965  14.224  66.155  0.00  0.00    +0.000 A 
ATOM     12  C   UNL     1     -11.882  14.512  65.183  0.00  0.00    +0.002 A 
ATOM     13  C   UNL     1     -12.070  13.607  64.148  0.00  0.00    +0.030 A 
ATOM     14  C   UNL     1     -11.375  12.423  64.158  0.00  0.00    +0.140 A 
ATOM     15  F   UNL     1     -11.827  11.277  63.580  0.00  0.00    -0.204 F 
ATOM     16  C   UNL     1     -10.130  12.468  64.776  0.00  0.00    +0.030 A 
ATOM     17  C   UNL     1      -9.986  13.287  65.861  0.00  0.00    +0.002 A 
ENDBRANCH   2  11
BRANCH  10  18
ATOM     18  C   UNL     1     -12.686  15.163  70.557  0.00  0.00    +0.040 C 
ATOM     19  C   UNL     1     -12.811  15.932  71.811  0.00  0.00    +0.006 C 
ATOM     20  C   UNL     1     -12.300  14.527  71.879  0.00  0.00    +0.006 C 
ENDBRANCH  10  18
BRANCH   1  22
ATOM     21  C   UNL     1     -11.196  12.229  69.237  0.00  0.00    +0.006 C 
ATOM     22  C   UNL     1     -11.904  13.163  68.621  0.00  0.00    -0.001 C 
BRANCH  21  23
ATOM     23  C   UNL     1     -11.663  10.788  68.576  0.00  0.00    +0.177 C 
ATOM     24  O   UNL     1     -10.192  10.433  68.225  0.00  0.00    -0.218 OA
BRANCH  23  25
ATOM     25  C   UNL     1     -11.550  10.021  70.062  0.00  0.00    +0.071 C 
BRANCH  25  26
ATOM     26  C   UNL     1     -10.333   8.908  69.753  0.00  0.00    +0.166 C 
ATOM     27  O   UNL     1      -9.586   9.110  71.092  0.00  0.00    -0.222 OA
BRANCH  26  28
ATOM     28  C   UNL     1     -11.272   7.687  70.430  0.00  0.00    +0.147 C 
BRANCH  28  30
ATOM     29  O   UNL     1     -10.988   6.589  68.453  0.00  0.00    -0.246 OA
ATOM     30  C   UNL     1     -11.129   6.562  69.498  0.00  0.00    +0.367 C 
ATOM     31  O   UNL     1     -10.635   5.381  70.061  0.00  0.00    -0.246 OA
ENDBRANCH  28  30
ENDBRANCH  26  28
ENDBRANCH  25  26
ENDBRANCH  23  25
ENDBRANCH  21  23
ENDBRANCH   1  22
TORSDOF 8
ENDMDL
