MODEL 1
REMARK VINA RESULT:      -7.6      0.000      0.000
REMARK  Name = 
REMARK  1 active torsions:
REMARK  status: ('A' for Active; 'I' for Inactive)
REMARK    1  A    between atoms: C_14  and  C_15
REMARK                            x       y       z     vdW  Elec       q    Type
REMARK                         _______ _______ _______ _____ _____    ______ ____
ROOT
ATOM      1  C   UNL     1     -11.139  16.376  69.480  0.00  0.00    +0.072 C 
ATOM      2  C   UNL     1     -11.570  15.671  70.724  0.00  0.00    +0.124 A 
ATOM      3  N   UNL     1     -11.906  14.376  70.769  0.00  0.00    -0.295 N 
ATOM      4  C   UNL     1     -11.647  13.400  69.752  0.00  0.00    +0.066 A 
ATOM      5  C   UNL     1     -11.871  12.035  69.767  0.00  0.00    +0.034 A 
ATOM      6  C   UNL     1     -12.583  11.242  70.775  0.00  0.00    +0.080 C 
ATOM      7  N   UNL     1     -13.180  11.731  71.803  0.00  0.00    -0.264 NA
ATOM      8  C   UNL     1     -13.627  13.053  72.165  0.00  0.00    +0.171 C 
ATOM      9  C   UNL     1     -11.605  11.213  68.689  0.00  0.00    +0.014 A 
ATOM     10  C   UNL     1     -11.069  11.822  67.561  0.00  0.00    +0.058 A 
ATOM     11 CL   UNL     1     -11.178  11.076  65.970  0.00  0.00    -0.082 Cl
ATOM     12  C   UNL     1     -10.534  13.099  67.687  0.00  0.00    +0.013 A 
ATOM     13  C   UNL     1     -10.985  13.954  68.686  0.00  0.00    +0.018 A 
ATOM     14  C   UNL     1     -12.593  14.097  71.903  0.00  0.00    +0.086 A 
ATOM     15  C   UNL     1     -12.387  15.210  72.710  0.00  0.00    +0.115 A 
ATOM     16  N   UNL     1     -11.827  16.170  71.940  0.00  0.00    -0.229 NA
ENDROOT
BRANCH   6  17
ATOM     17  C   UNL     1     -12.024   9.896  70.956  0.00  0.00    +0.045 A 
ATOM     18  C   UNL     1     -12.855   8.863  71.371  0.00  0.00    +0.142 A 
ATOM     19  F   UNL     1     -14.180   8.987  71.157  0.00  0.00    -0.204 F 
ATOM     20  C   UNL     1     -12.400   7.855  72.211  0.00  0.00    +0.030 A 
ATOM     21  C   UNL     1     -11.081   7.896  72.646  0.00  0.00    +0.002 A 
ATOM     22  C   UNL     1     -10.201   8.558  71.797  0.00  0.00    +0.000 A 
ATOM     23  C   UNL     1     -10.669   9.715  71.184  0.00  0.00    +0.004 A 
ENDBRANCH   6  17
TORSDOF 1
ENDMDL
MODEL 2
REMARK VINA RESULT:      -7.5      4.607      8.005
REMARK  Name = 
REMARK  1 active torsions:
REMARK  status: ('A' for Active; 'I' for Inactive)
REMARK    1  A    between atoms: C_14  and  C_15
REMARK                            x       y       z     vdW  Elec       q    Type
REMARK                         _______ _______ _______ _____ _____    ______ ____
ROOT
ATOM      1  C   UNL     1     -11.682  11.423  67.348  0.00  0.00    +0.072 C 
ATOM      2  C   UNL     1     -11.000  12.347  66.393  0.00  0.00    +0.124 A 
ATOM      3  N   UNL     1     -10.890  13.667  66.584  0.00  0.00    -0.295 N 
ATOM      4  C   UNL     1     -11.126  14.366  67.812  0.00  0.00    +0.066 A 
ATOM      5  C   UNL     1     -10.937  15.703  68.113  0.00  0.00    +0.034 A 
ATOM      6  C   UNL     1     -10.589  16.799  67.202  0.00  0.00    +0.080 C 
ATOM      7  N   UNL     1     -10.466  16.680  65.927  0.00  0.00    -0.264 NA
ATOM      8  C   UNL     1     -10.877  15.682  64.971  0.00  0.00    +0.171 C 
ATOM      9  C   UNL     1     -11.248  16.253  69.341  0.00  0.00    +0.014 A 
ATOM     10  C   UNL     1     -11.754  15.386  70.301  0.00  0.00    +0.058 A 
ATOM     11 CL   UNL     1     -12.686  15.971  71.674  0.00  0.00    -0.082 Cl
ATOM     12  C   UNL     1     -11.607  14.017  70.102  0.00  0.00    +0.013 A 
ATOM     13  C   UNL     1     -11.488  13.504  68.816  0.00  0.00    +0.018 A 
ATOM     14  C   UNL     1     -10.569  14.295  65.426  0.00  0.00    +0.086 A 
ATOM     15  C   UNL     1     -10.171  13.267  64.579  0.00  0.00    +0.115 A 
ATOM     16  N   UNL     1     -10.513  12.100  65.170  0.00  0.00    -0.229 NA
ENDROOT
BRANCH   6  17
ATOM     17  C   UNL     1      -9.737  17.822  67.822  0.00  0.00    +0.045 A 
ATOM     18  C   UNL     1     -10.017  19.165  67.606  0.00  0.00    +0.142 A 
ATOM     19  F   UNL     1     -11.270  19.504  67.245  0.00  0.00    -0.204 F 
ATOM     20  C   UNL     1      -9.006  20.111  67.499  0.00  0.00    +0.030 A 
ATOM     21  C   UNL     1      -7.686  19.691  67.605  0.00  0.00    +0.002 A 
ATOM     22  C   UNL     1      -7.495  18.536  68.356  0.00  0.00    +0.000 A 
ATOM     23  C   UNL     1      -8.439  17.526  68.206  0.00  0.00    +0.004 A 
ENDBRANCH   6  17
TORSDOF 1
ENDMDL
MODEL 3
REMARK VINA RESULT:      -7.3      2.999      5.448
REMARK  Name = 
REMARK  1 active torsions:
REMARK  status: ('A' for Active; 'I' for Inactive)
REMARK    1  A    between atoms: C_14  and  C_15
REMARK                            x       y       z     vdW  Elec       q    Type
REMARK                         _______ _______ _______ _____ _____    ______ ____
ROOT
ATOM      1  C   UNL     1     -11.639  15.935  71.397  0.00  0.00    +0.072 C 
ATOM      2  C   UNL     1     -11.220  16.243  69.996  0.00  0.00    +0.124 A 
ATOM      3  N   UNL     1     -10.943  15.310  69.078  0.00  0.00    -0.295 N 
ATOM      4  C   UNL     1     -11.264  13.916  69.167  0.00  0.00    +0.066 A 
ATOM      5  C   UNL     1     -11.103  12.915  68.226  0.00  0.00    +0.034 A 
ATOM      6  C   UNL     1     -10.412  12.986  66.933  0.00  0.00    +0.080 C 
ATOM      7  N   UNL     1      -9.776  14.016  66.500  0.00  0.00    -0.264 NA
ATOM      8  C   UNL     1      -9.263  15.210  67.122  0.00  0.00    +0.171 C 
ATOM      9  C   UNL     1     -11.425  11.593  68.465  0.00  0.00    +0.014 A 
ATOM     10  C   UNL     1     -11.951  11.298  69.716  0.00  0.00    +0.058 A 
ATOM     11 CL   UNL     1     -11.903   9.667  70.375  0.00  0.00    -0.082 Cl
ATOM     12  C   UNL     1     -12.424  12.344  70.501  0.00  0.00    +0.013 A 
ATOM     13  C   UNL     1     -11.918  13.628  70.338  0.00  0.00    +0.018 A 
ATOM     14  C   UNL     1     -10.251  15.844  68.043  0.00  0.00    +0.086 A 
ATOM     15  C   UNL     1     -10.392  17.217  68.210  0.00  0.00    +0.115 A 
ATOM     16  N   UNL     1     -10.920  17.424  69.438  0.00  0.00    -0.229 NA
ENDROOT
BRANCH   6  17
ATOM     17  C   UNL     1     -11.030  12.148  65.898  0.00  0.00    +0.045 A 
ATOM     18  C   UNL     1     -10.254  11.209  65.230  0.00  0.00    +0.142 A 
ATOM     19  F   UNL     1      -9.130  10.769  65.830  0.00  0.00    -0.204 F 
ATOM     20  C   UNL     1     -10.461  10.915  63.888  0.00  0.00    +0.030 A 
ATOM     21  C   UNL     1     -11.467  11.590  63.207  0.00  0.00    +0.002 A 
ATOM     22  C   UNL     1     -12.515  12.041  64.000  0.00  0.00    +0.000 A 
ATOM     23  C   UNL     1     -12.183  12.557  65.248  0.00  0.00    +0.004 A 
ENDBRANCH   6  17
TORSDOF 1
ENDMDL
MODEL 4
REMARK VINA RESULT:      -7.0      3.050      6.311
REMARK  Name = 
REMARK  1 active torsions:
REMARK  status: ('A' for Active; 'I' for Inactive)
REMARK    1  A    between atoms: C_14  and  C_15
REMARK                            x       y       z     vdW  Elec       q    Type
REMARK                         _______ _______ _______ _____ _____    ______ ____
ROOT
ATOM      1  C   UNL     1     -12.919   9.343  72.095  0.00  0.00    +0.072 C 
ATOM      2  C   UNL     1     -11.906   9.468  71.004  0.00  0.00    +0.124 A 
ATOM      3  N   UNL     1     -11.740  10.570  70.264  0.00  0.00    -0.295 N 
ATOM      4  C   UNL     1     -12.265  11.871  70.556  0.00  0.00    +0.066 A 
ATOM      5  C   UNL     1     -12.055  13.071  69.901  0.00  0.00    +0.034 A 
ATOM      6  C   UNL     1     -11.357  13.303  68.631  0.00  0.00    +0.080 C 
ATOM      7  N   UNL     1     -10.874  12.376  67.881  0.00  0.00    -0.264 NA
ATOM      8  C   UNL     1     -11.072  10.951  67.800  0.00  0.00    +0.171 C 
ATOM      9  C   UNL     1     -12.664  14.253  70.274  0.00  0.00    +0.014 A 
ATOM     10  C   UNL     1     -13.505  14.198  71.378  0.00  0.00    +0.058 A 
ATOM     11 CL   UNL     1     -14.746  15.415  71.655  0.00  0.00    -0.082 Cl
ATOM     12  C   UNL     1     -13.429  13.090  72.215  0.00  0.00    +0.013 A 
ATOM     13  C   UNL     1     -12.982  11.869  71.725  0.00  0.00    +0.018 A 
ATOM     14  C   UNL     1     -11.037  10.292  69.139  0.00  0.00    +0.086 A 
ATOM     15  C   UNL     1     -10.500   9.032  69.373  0.00  0.00    +0.115 A 
ATOM     16  N   UNL     1     -11.104   8.533  70.476  0.00  0.00    -0.229 NA
ENDROOT
BRANCH   6  17
ATOM     17  C   UNL     1     -10.638  14.583  68.589  0.00  0.00    +0.045 A 
ATOM     18  C   UNL     1     -10.673  15.345  67.428  0.00  0.00    +0.142 A 
ATOM     19  F   UNL     1     -11.692  15.150  66.568  0.00  0.00    -0.204 F 
ATOM     20  C   UNL     1      -9.578  16.094  67.016  0.00  0.00    +0.030 A 
ATOM     21  C   UNL     1      -8.423  16.066  67.789  0.00  0.00    +0.002 A 
ATOM     22  C   UNL     1      -8.624  15.792  69.137  0.00  0.00    +0.000 A 
ATOM     23  C   UNL     1      -9.580  14.831  69.448  0.00  0.00    +0.004 A 
ENDBRANCH   6  17
TORSDOF 1
ENDMDL
MODEL 5
REMARK VINA RESULT:      -7.0      2.508      4.854
REMARK  Name = 
REMARK  1 active torsions:
REMARK  status: ('A' for Active; 'I' for Inactive)
REMARK    1  A    between atoms: C_14  and  C_15
REMARK                            x       y       z     vdW  Elec       q    Type
REMARK                         _______ _______ _______ _____ _____    ______ ____
ROOT
ATOM      1  C   UNL     1     -13.569  13.733  72.500  0.00  0.00    +0.072 C 
ATOM      2  C   UNL     1     -12.962  14.425  71.323  0.00  0.00    +0.124 A 
ATOM      3  N   UNL     1     -12.184  13.818  70.420  0.00  0.00    -0.295 N 
ATOM      4  C   UNL     1     -12.033  12.403  70.250  0.00  0.00    +0.066 A 
ATOM      5  C   UNL     1     -11.333  11.704  69.283  0.00  0.00    +0.034 A 
ATOM      6  C   UNL     1     -10.423  12.232  68.260  0.00  0.00    +0.080 C 
ATOM      7  N   UNL     1     -10.083  13.467  68.150  0.00  0.00    -0.264 NA
ATOM      8  C   UNL     1     -10.158  14.607  69.029  0.00  0.00    +0.171 C 
ATOM      9  C   UNL     1     -11.242  10.326  69.264  0.00  0.00    +0.014 A 
ATOM     10  C   UNL     1     -11.916   9.644  70.269  0.00  0.00    +0.058 A 
ATOM     11 CL   UNL     1     -11.483   7.998  70.718  0.00  0.00    -0.082 Cl
ATOM     12  C   UNL     1     -12.880  10.327  71.002  0.00  0.00    +0.013 A 
ATOM     13  C   UNL     1     -12.808  11.707  71.143  0.00  0.00    +0.018 A 
ATOM     14  C   UNL     1     -11.488  14.728  69.696  0.00  0.00    +0.086 A 
ATOM     15  C   UNL     1     -12.112  15.937  69.975  0.00  0.00    +0.115 A 
ATOM     16  N   UNL     1     -12.950  15.730  71.016  0.00  0.00    -0.229 NA
ENDROOT
BRANCH   6  17
ATOM     17  C   UNL     1     -10.466  11.478  67.000  0.00  0.00    +0.045 A 
ATOM     18  C   UNL     1      -9.342  10.772  66.590  0.00  0.00    +0.142 A 
ATOM     19  F   UNL     1      -8.439  10.415  67.524  0.00  0.00    -0.204 F 
ATOM     20  C   UNL     1      -9.004  10.658  65.248  0.00  0.00    +0.030 A 
ATOM     21  C   UNL     1      -9.815  11.274  64.303  0.00  0.00    +0.002 A 
ATOM     22  C   UNL     1     -11.141  11.443  64.684  0.00  0.00    +0.000 A 
ATOM     23  C   UNL     1     -11.372  11.808  66.006  0.00  0.00    +0.004 A 
ENDBRANCH   6  17
TORSDOF 1
ENDMDL
MODEL 6
REMARK VINA RESULT:      -7.0      2.526      5.282
REMARK  Name = 
REMARK  1 active torsions:
REMARK  status: ('A' for Active; 'I' for Inactive)
REMARK    1  A    between atoms: C_14  and  C_15
REMARK                            x       y       z     vdW  Elec       q    Type
REMARK                         _______ _______ _______ _____ _____    ______ ____
ROOT
ATOM      1  C   UNL     1      -9.130  10.670  67.388  0.00  0.00    +0.072 C 
ATOM      2  C   UNL     1      -9.329  12.140  67.561  0.00  0.00    +0.124 A 
ATOM      3  N   UNL     1     -10.288  12.678  68.323  0.00  0.00    -0.295 N 
ATOM      4  C   UNL     1     -11.077  11.988  69.300  0.00  0.00    +0.066 A 
ATOM      5  C   UNL     1     -12.009  12.491  70.191  0.00  0.00    +0.034 A 
ATOM      6  C   UNL     1     -12.555  13.851  70.264  0.00  0.00    +0.080 C 
ATOM      7  N   UNL     1     -12.280  14.795  69.437  0.00  0.00    -0.264 NA
ATOM      8  C   UNL     1     -11.695  14.832  68.119  0.00  0.00    +0.171 C 
ATOM      9  C   UNL     1     -12.730  11.695  71.060  0.00  0.00    +0.014 A 
ATOM     10  C   UNL     1     -12.464  10.332  71.021  0.00  0.00    +0.058 A 
ATOM     11 CL   UNL     1     -13.619   9.149  71.624  0.00  0.00    -0.082 Cl
ATOM     12  C   UNL     1     -11.303   9.901  70.389  0.00  0.00    +0.013 A 
ATOM     13  C   UNL     1     -10.727  10.665  69.381  0.00  0.00    +0.018 A 
ATOM     14  C   UNL     1     -10.471  13.985  68.014  0.00  0.00    +0.086 A 
ATOM     15  C   UNL     1      -9.359  14.314  67.247  0.00  0.00    +0.115 A 
ATOM     16  N   UNL     1      -8.728  13.160  66.933  0.00  0.00    -0.229 NA
ENDROOT
BRANCH   6  17
ATOM     17  C   UNL     1     -12.850  14.285  71.636  0.00  0.00    +0.045 A 
ATOM     18  C   UNL     1     -14.068  14.894  71.910  0.00  0.00    +0.142 A 
ATOM     19  F   UNL     1     -15.097  14.667  71.070  0.00  0.00    -0.204 F 
ATOM     20  C   UNL     1     -14.177  15.911  72.850  0.00  0.00    +0.030 A 
ATOM     21  C   UNL     1     -13.033  16.323  73.521  0.00  0.00    +0.002 A 
ATOM     22  C   UNL     1     -12.039  15.358  73.639  0.00  0.00    +0.000 A 
ATOM     23  C   UNL     1     -11.828  14.536  72.537  0.00  0.00    +0.004 A 
ENDBRANCH   6  17
TORSDOF 1
ENDMDL
MODEL 7
REMARK VINA RESULT:      -6.9      2.201      3.292
REMARK  Name = 
REMARK  1 active torsions:
REMARK  status: ('A' for Active; 'I' for Inactive)
REMARK    1  A    between atoms: C_14  and  C_15
REMARK                            x       y       z     vdW  Elec       q    Type
REMARK                         _______ _______ _______ _____ _____    ______ ____
ROOT
ATOM      1  C   UNL     1     -11.541  12.556  66.716  0.00  0.00    +0.072 C 
ATOM      2  C   UNL     1     -11.640  12.652  68.203  0.00  0.00    +0.124 A 
ATOM      3  N   UNL     1     -11.605  11.595  69.023  0.00  0.00    -0.295 N 
ATOM      4  C   UNL     1     -11.188  10.268  68.673  0.00  0.00    +0.066 A 
ATOM      5  C   UNL     1     -11.029   9.156  69.480  0.00  0.00    +0.034 A 
ATOM      6  C   UNL     1     -11.396   8.997  70.892  0.00  0.00    +0.080 C 
ATOM      7  N   UNL     1     -12.003   9.887  71.594  0.00  0.00    -0.264 NA
ATOM      8  C   UNL     1     -12.757  11.073  71.273  0.00  0.00    +0.171 C 
ATOM      9  C   UNL     1     -10.654   7.918  68.996  0.00  0.00    +0.014 A 
ATOM     10  C   UNL     1     -10.415   7.831  67.630  0.00  0.00    +0.058 A 
ATOM     11 CL   UNL     1     -10.469   6.291  66.781  0.00  0.00    -0.082 Cl
ATOM     12  C   UNL     1     -10.240   9.008  66.911  0.00  0.00    +0.013 A 
ATOM     13  C   UNL     1     -10.808  10.195  67.358  0.00  0.00    +0.018 A 
ATOM     14  C   UNL     1     -12.077  11.921  70.250  0.00  0.00    +0.086 A 
ATOM     15  C   UNL     1     -12.106  13.311  70.247  0.00  0.00    +0.115 A 
ATOM     16  N   UNL     1     -11.906  13.717  68.972  0.00  0.00    -0.229 NA
ENDROOT
BRANCH   6  17
ATOM     17  C   UNL     1     -10.476   8.129  71.637  0.00  0.00    +0.045 A 
ATOM     18  C   UNL     1     -10.989   7.072  72.379  0.00  0.00    +0.142 A 
ATOM     19  F   UNL     1     -12.203   6.591  72.048  0.00  0.00    -0.204 F 
ATOM     20  C   UNL     1     -10.415   6.683  73.583  0.00  0.00    +0.030 A 
ATOM     21  C   UNL     1      -9.307   7.380  74.049  0.00  0.00    +0.002 A 
ATOM     22  C   UNL     1      -8.536   7.986  73.064  0.00  0.00    +0.000 A 
ATOM     23  C   UNL     1      -9.219   8.577  72.007  0.00  0.00    +0.004 A 
ENDBRANCH   6  17
TORSDOF 1
ENDMDL
MODEL 8
REMARK VINA RESULT:      -6.9      2.228      3.193
REMARK  Name = 
REMARK  1 active torsions:
REMARK  status: ('A' for Active; 'I' for Inactive)
REMARK    1  A    between atoms: C_14  and  C_15
REMARK                            x       y       z     vdW  Elec       q    Type
REMARK                         _______ _______ _______ _____ _____    ______ ____
ROOT
ATOM      1  C   UNL     1     -10.576  17.402  65.870  0.00  0.00    +0.072 C 
ATOM      2  C   UNL     1     -10.537  16.951  67.293  0.00  0.00    +0.124 A 
ATOM      3  N   UNL     1     -10.898  15.727  67.698  0.00  0.00    -0.295 N 
ATOM      4  C   UNL     1     -11.095  14.583  66.857  0.00  0.00    +0.066 A 
ATOM      5  C   UNL     1     -11.366  13.273  67.206  0.00  0.00    +0.034 A 
ATOM      6  C   UNL     1     -11.681  12.732  68.533  0.00  0.00    +0.080 C 
ATOM      7  N   UNL     1     -11.818  13.440  69.598  0.00  0.00    -0.264 NA
ATOM      8  C   UNL     1     -12.025  14.845  69.845  0.00  0.00    +0.171 C 
ATOM      9  C   UNL     1     -11.572  12.270  66.278  0.00  0.00    +0.014 A 
ATOM     10  C   UNL     1     -11.474  12.632  64.940  0.00  0.00    +0.058 A 
ATOM     11 CL   UNL     1     -12.217  11.670  63.667  0.00  0.00    -0.082 Cl
ATOM     12  C   UNL     1     -10.867  13.842  64.623  0.00  0.00    +0.013 A 
ATOM     13  C   UNL     1     -10.859  14.886  65.540  0.00  0.00    +0.018 A 
ATOM     14  C   UNL     1     -11.116  15.708  69.035  0.00  0.00    +0.086 A 
ATOM     15  C   UNL     1     -10.562  16.899  69.489  0.00  0.00    +0.115 A 
ATOM     16  N   UNL     1     -10.287  17.657  68.404  0.00  0.00    -0.229 NA
ENDROOT
BRANCH   6  17
ATOM     17  C   UNL     1     -11.166  11.374  68.744  0.00  0.00    +0.045 A 
ATOM     18  C   UNL     1     -11.873  10.495  69.555  0.00  0.00    +0.142 A 
ATOM     19  F   UNL     1     -13.188  10.722  69.745  0.00  0.00    -0.204 F 
ATOM     20  C   UNL     1     -11.226   9.569  70.363  0.00  0.00    +0.030 A 
ATOM     21  C   UNL     1      -9.837   9.535  70.355  0.00  0.00    +0.002 A 
ATOM     22  C   UNL     1      -9.243   9.984  69.182  0.00  0.00    +0.000 A 
ATOM     23  C   UNL     1      -9.821  11.089  68.568  0.00  0.00    +0.004 A 
ENDBRANCH   6  17
TORSDOF 1
ENDMDL
MODEL 9
REMARK VINA RESULT:      -6.7      2.715      5.665
REMARK  Name = 
REMARK  1 active torsions:
REMARK  status: ('A' for Active; 'I' for Inactive)
REMARK    1  A    between atoms: C_14  and  C_15
REMARK                            x       y       z     vdW  Elec       q    Type
REMARK                         _______ _______ _______ _____ _____    ______ ____
ROOT
ATOM      1  C   UNL     1     -13.091  10.498  72.125  0.00  0.00    +0.072 C 
ATOM      2  C   UNL     1     -13.184  11.942  71.757  0.00  0.00    +0.124 A 
ATOM      3  N   UNL     1     -12.445  12.518  70.802  0.00  0.00    -0.295 N 
ATOM      4  C   UNL     1     -11.678  11.836  69.802  0.00  0.00    +0.066 A 
ATOM      5  C   UNL     1     -10.975  12.354  68.729  0.00  0.00    +0.034 A 
ATOM      6  C   UNL     1     -10.697  13.761  68.418  0.00  0.00    +0.080 C 
ATOM      7  N   UNL     1     -11.029  14.754  69.164  0.00  0.00    -0.264 NA
ATOM      8  C   UNL     1     -11.434  14.878  70.542  0.00  0.00    +0.171 C 
ATOM      9  C   UNL     1     -10.240  11.573  67.857  0.00  0.00    +0.014 A 
ATOM     10  C   UNL     1     -10.250  10.203  68.092  0.00  0.00    +0.058 A 
ATOM     11 CL   UNL     1      -8.989   9.151  67.460  0.00  0.00    -0.082 Cl
ATOM     12  C   UNL     1     -11.222   9.682  68.938  0.00  0.00    +0.013 A 
ATOM     13  C   UNL     1     -11.791  10.475  69.927  0.00  0.00    +0.018 A 
ATOM     14  C   UNL     1     -12.462  13.867  70.928  0.00  0.00    +0.086 A 
ATOM     15  C   UNL     1     -13.506  14.115  71.811  0.00  0.00    +0.115 A 
ATOM     16  N   UNL     1     -13.872  12.929  72.348  0.00  0.00    -0.229 NA
ENDROOT
BRANCH   6  17
ATOM     17  C   UNL     1     -10.665  14.042  66.977  0.00  0.00    +0.045 A 
ATOM     18  C   UNL     1      -9.640  14.822  66.458  0.00  0.00    +0.142 A 
ATOM     19  F   UNL     1      -8.492  14.913  67.158  0.00  0.00    -0.204 F 
ATOM     20  C   UNL     1      -9.855  15.697  65.401  0.00  0.00    +0.030 A 
ATOM     21  C   UNL     1     -11.132  15.788  64.861  0.00  0.00    +0.002 A 
ATOM     22  C   UNL     1     -11.915  14.649  65.004  0.00  0.00    +0.000 A 
ATOM     23  C   UNL     1     -11.818  13.968  66.213  0.00  0.00    +0.004 A 
ENDBRANCH   6  17
TORSDOF 1
ENDMDL
