MODEL 1
REMARK VINA RESULT:      -7.5      0.000      0.000
REMARK  Name = 
REMARK  4 active torsions:
REMARK  status: ('A' for Active; 'I' for Inactive)
REMARK    1  A    between atoms: C_2  and  C_3
REMARK    2  A    between atoms: C_2  and  C_6
REMARK    3  A    between atoms: C_10  and  C_11
REMARK    4  A    between atoms: C_11  and  C_13
REMARK                            x       y       z     vdW  Elec       q    Type
REMARK                         _______ _______ _______ _____ _____    ______ ____
ROOT
ATOM      1  C   UNL     1     -11.897  13.071  66.285  0.00  0.00    -0.012 A 
ATOM      2  C   UNL     1     -11.857  14.212  67.083  0.00  0.00    -0.001 A 
ATOM      3  C   UNL     1     -11.676  14.157  68.456  0.00  0.00    +0.039 A 
ATOM      4  C   UNL     1     -11.553  12.922  69.080  0.00  0.00    +0.003 A 
ATOM      5  C   UNL     1     -11.699  11.777  68.339  0.00  0.00    -0.000 A 
ATOM      6  C   UNL     1     -11.606  11.897  66.972  0.00  0.00    -0.004 A 
ENDROOT
BRANCH   1   8
ATOM      7  C   UNL     1     -10.831  11.648  64.689  0.00  0.00    +0.017 C 
ATOM      8  C   UNL     1     -10.933  13.289  64.978  0.00  0.00    +0.126 C 
BRANCH   8   9
ATOM      9  C   UNL     1     -12.208  13.459  63.969  0.00  0.00    +0.368 C 
ATOM     10  O   UNL     1     -12.895  12.276  63.805  0.00  0.00    -0.245 OA
ATOM     11  O   UNL     1     -12.655  14.599  63.842  0.00  0.00    -0.245 OA
ENDBRANCH   8   9
ENDBRANCH   1   8
BRANCH   3  12
ATOM     12  C   UNL     1     -11.906  15.288  69.342  0.00  0.00    +0.196 C 
ATOM     13  O   UNL     1     -11.710  16.482  68.961  0.00  0.00    -0.287 OA
BRANCH  12  14
ATOM     14  C   UNL     1     -12.404  15.131  70.709  0.00  0.00    +0.039 A 
ATOM     15  C   UNL     1     -11.548  15.223  71.801  0.00  0.00    +0.003 A 
ATOM     16  C   UNL     1     -12.013  15.556  73.068  0.00  0.00    +0.000 A 
ATOM     17  C   UNL     1     -13.337  15.929  73.190  0.00  0.00    +0.000 A 
ATOM     18  C   UNL     1     -14.214  15.306  72.308  0.00  0.00    +0.000 A 
ATOM     19  C   UNL     1     -13.745  15.166  71.008  0.00  0.00    +0.003 A 
ENDBRANCH  12  14
ENDBRANCH   3  12
TORSDOF 4
ENDMDL
MODEL 2
REMARK VINA RESULT:      -7.4      0.841      1.258
REMARK  Name = 
REMARK  4 active torsions:
REMARK  status: ('A' for Active; 'I' for Inactive)
REMARK    1  A    between atoms: C_2  and  C_3
REMARK    2  A    between atoms: C_2  and  C_6
REMARK    3  A    between atoms: C_10  and  C_11
REMARK    4  A    between atoms: C_11  and  C_13
REMARK                            x       y       z     vdW  Elec       q    Type
REMARK                         _______ _______ _______ _____ _____    ______ ____
ROOT
ATOM      1  C   UNL     1     -11.792  13.709  66.242  0.00  0.00    -0.012 A 
ATOM      2  C   UNL     1     -11.663  14.733  67.176  0.00  0.00    -0.001 A 
ATOM      3  C   UNL     1     -11.489  14.491  68.530  0.00  0.00    +0.039 A 
ATOM      4  C   UNL     1     -11.466  13.182  68.993  0.00  0.00    +0.003 A 
ATOM      5  C   UNL     1     -11.701  12.155  68.115  0.00  0.00    -0.000 A 
ATOM      6  C   UNL     1     -11.597  12.438  66.773  0.00  0.00    -0.004 A 
ENDROOT
BRANCH   1   8
ATOM      7  C   UNL     1     -11.603  12.904  64.000  0.00  0.00    +0.017 C 
ATOM      8  C   UNL     1     -10.811  14.012  64.965  0.00  0.00    +0.126 C 
BRANCH   8   9
ATOM      9  C   UNL     1     -11.747  15.245  64.440  0.00  0.00    +0.368 C 
ATOM     10  O   UNL     1     -11.027  16.412  64.296  0.00  0.00    -0.245 OA
ATOM     11  O   UNL     1     -12.779  14.933  63.845  0.00  0.00    -0.245 OA
ENDBRANCH   8   9
ENDBRANCH   1   8
BRANCH   3  12
ATOM     12  C   UNL     1     -11.631  15.517  69.553  0.00  0.00    +0.196 C 
ATOM     13  O   UNL     1     -11.232  16.706  69.363  0.00  0.00    -0.287 OA
BRANCH  12  14
ATOM     14  C   UNL     1     -12.262  15.258  70.847  0.00  0.00    +0.039 A 
ATOM     15  C   UNL     1     -11.524  15.280  72.026  0.00  0.00    +0.003 A 
ATOM     16  C   UNL     1     -12.121  15.517  73.258  0.00  0.00    +0.000 A 
ATOM     17  C   UNL     1     -13.457  15.868  73.268  0.00  0.00    +0.000 A 
ATOM     18  C   UNL     1     -14.229  15.301  72.260  0.00  0.00    +0.000 A 
ATOM     19  C   UNL     1     -13.627  15.258  71.009  0.00  0.00    +0.003 A 
ENDBRANCH  12  14
ENDBRANCH   3  12
TORSDOF 4
ENDMDL
MODEL 3
REMARK VINA RESULT:      -6.9      2.122      6.781
REMARK  Name = 
REMARK  4 active torsions:
REMARK  status: ('A' for Active; 'I' for Inactive)
REMARK    1  A    between atoms: C_2  and  C_3
REMARK    2  A    between atoms: C_2  and  C_6
REMARK    3  A    between atoms: C_10  and  C_11
REMARK    4  A    between atoms: C_11  and  C_13
REMARK                            x       y       z     vdW  Elec       q    Type
REMARK                         _______ _______ _______ _____ _____    ______ ____
ROOT
ATOM      1  C   UNL     1     -12.190  14.966  70.451  0.00  0.00    -0.012 A 
ATOM      2  C   UNL     1     -12.272  13.764  69.752  0.00  0.00    -0.001 A 
ATOM      3  C   UNL     1     -11.437  13.462  68.687  0.00  0.00    +0.039 A 
ATOM      4  C   UNL     1     -10.494  14.394  68.272  0.00  0.00    +0.003 A 
ATOM      5  C   UNL     1     -10.463  15.629  68.868  0.00  0.00    -0.000 A 
ATOM      6  C   UNL     1     -11.117  15.764  70.071  0.00  0.00    -0.004 A 
ENDROOT
BRANCH   1   8
ATOM      7  C   UNL     1     -12.054  16.276  72.445  0.00  0.00    +0.017 C 
ATOM      8  C   UNL     1     -12.203  14.658  72.061  0.00  0.00    +0.126 C 
BRANCH   8   9
ATOM      9  C   UNL     1     -13.835  14.717  72.138  0.00  0.00    +0.368 C 
ATOM     10  O   UNL     1     -14.372  13.524  72.572  0.00  0.00    -0.245 OA
ATOM     11  O   UNL     1     -14.337  15.836  72.240  0.00  0.00    -0.245 OA
ENDBRANCH   8   9
ENDBRANCH   1   8
BRANCH   3  12
ATOM     12  C   UNL     1     -11.674  12.358  67.770  0.00  0.00    +0.196 C 
ATOM     13  O   UNL     1     -12.119  11.240  68.174  0.00  0.00    -0.287 OA
BRANCH  12  14
ATOM     14  C   UNL     1     -11.447  12.466  66.328  0.00  0.00    +0.039 A 
ATOM     15  C   UNL     1     -10.590  11.593  65.667  0.00  0.00    +0.003 A 
ATOM     16  C   UNL     1     -10.707  11.346  64.305  0.00  0.00    +0.000 A 
ATOM     17  C   UNL     1     -11.790  11.891  63.643  0.00  0.00    +0.000 A 
ATOM     18  C   UNL     1     -12.231  13.116  64.131  0.00  0.00    +0.000 A 
ATOM     19  C   UNL     1     -12.253  13.227  65.516  0.00  0.00    +0.003 A 
ENDBRANCH  12  14
ENDBRANCH   3  12
TORSDOF 4
ENDMDL
MODEL 4
REMARK VINA RESULT:      -6.6      3.436      6.645
REMARK  Name = 
REMARK  4 active torsions:
REMARK  status: ('A' for Active; 'I' for Inactive)
REMARK    1  A    between atoms: C_2  and  C_3
REMARK    2  A    between atoms: C_2  and  C_6
REMARK    3  A    between atoms: C_10  and  C_11
REMARK    4  A    between atoms: C_11  and  C_13
REMARK                            x       y       z     vdW  Elec       q    Type
REMARK                         _______ _______ _______ _____ _____    ______ ____
ROOT
ATOM      1  C   UNL     1     -11.974  14.873  71.368  0.00  0.00    -0.012 A 
ATOM      2  C   UNL     1     -11.229  15.877  70.753  0.00  0.00    -0.001 A 
ATOM      3  C   UNL     1     -10.770  15.773  69.449  0.00  0.00    +0.039 A 
ATOM      4  C   UNL     1     -11.034  14.619  68.722  0.00  0.00    +0.003 A 
ATOM      5  C   UNL     1     -11.669  13.569  69.334  0.00  0.00    -0.000 A 
ATOM      6  C   UNL     1     -12.324  13.833  70.515  0.00  0.00    -0.004 A 
ENDROOT
BRANCH   1   8
ATOM      7  C   UNL     1     -13.975  14.051  72.384  0.00  0.00    +0.017 C 
ATOM      8  C   UNL     1     -13.274  15.542  72.110  0.00  0.00    +0.126 C 
BRANCH   8   9
ATOM      9  C   UNL     1     -12.538  15.544  73.569  0.00  0.00    +0.368 C 
ATOM     10  O   UNL     1     -12.815  16.691  74.282  0.00  0.00    -0.245 OA
ATOM     11  O   UNL     1     -12.228  14.444  74.026  0.00  0.00    -0.245 OA
ENDBRANCH   8   9
ENDBRANCH   1   8
BRANCH   3  12
ATOM     12  C   UNL     1      -9.768  16.660  68.878  0.00  0.00    +0.196 C 
ATOM     13  O   UNL     1      -8.527  16.428  69.001  0.00  0.00    -0.287 OA
BRANCH  12  14
ATOM     14  C   UNL     1     -10.118  17.852  68.105  0.00  0.00    +0.039 A 
ATOM     15  C   UNL     1      -9.851  19.128  68.589  0.00  0.00    +0.003 A 
ATOM     16  C   UNL     1      -9.716  20.219  67.739  0.00  0.00    +0.000 A 
ATOM     17  C   UNL     1      -9.720  19.978  66.378  0.00  0.00    +0.000 A 
ATOM     18  C   UNL     1     -10.512  18.914  65.964  0.00  0.00    +0.000 A 
ATOM     19  C   UNL     1     -10.459  17.787  66.775  0.00  0.00    +0.003 A 
ENDBRANCH  12  14
ENDBRANCH   3  12
TORSDOF 4
ENDMDL
MODEL 5
REMARK VINA RESULT:      -6.6      1.858      6.800
REMARK  Name = 
REMARK  4 active torsions:
REMARK  status: ('A' for Active; 'I' for Inactive)
REMARK    1  A    between atoms: C_2  and  C_3
REMARK    2  A    between atoms: C_2  and  C_6
REMARK    3  A    between atoms: C_10  and  C_11
REMARK    4  A    between atoms: C_11  and  C_13
REMARK                            x       y       z     vdW  Elec       q    Type
REMARK                         _______ _______ _______ _____ _____    ______ ____
ROOT
ATOM      1  C   UNL     1     -12.300  14.074  70.723  0.00  0.00    -0.012 A 
ATOM      2  C   UNL     1     -12.006  14.328  69.385  0.00  0.00    -0.001 A 
ATOM      3  C   UNL     1     -11.791  13.315  68.463  0.00  0.00    +0.039 A 
ATOM      4  C   UNL     1     -11.843  11.991  68.879  0.00  0.00    +0.003 A 
ATOM      5  C   UNL     1     -12.021  11.710  70.209  0.00  0.00    -0.000 A 
ATOM      6  C   UNL     1     -12.489  12.727  71.009  0.00  0.00    -0.004 A 
ENDROOT
BRANCH   1   8
ATOM      7  C   UNL     1     -14.158  13.813  72.203  0.00  0.00    +0.017 C 
ATOM      8  C   UNL     1     -13.574  14.998  71.182  0.00  0.00    +0.126 C 
BRANCH   8   9
ATOM      9  C   UNL     1     -12.722  15.712  72.381  0.00  0.00    +0.368 C 
ATOM     10  O   UNL     1     -12.853  15.037  73.576  0.00  0.00    -0.245 OA
ATOM     11  O   UNL     1     -11.783  16.427  72.033  0.00  0.00    -0.245 OA
ENDBRANCH   8   9
ENDBRANCH   1   8
BRANCH   3  12
ATOM     12  C   UNL     1     -11.214  13.538  67.146  0.00  0.00    +0.196 C 
ATOM     13  O   UNL     1     -10.492  14.552  66.899  0.00  0.00    -0.287 OA
BRANCH  12  14
ATOM     14  C   UNL     1     -11.400  12.604  66.035  0.00  0.00    +0.039 A 
ATOM     15  C   UNL     1     -12.442  12.763  65.128  0.00  0.00    +0.003 A 
ATOM     16  C   UNL     1     -12.382  12.231  63.846  0.00  0.00    +0.000 A 
ATOM     17  C   UNL     1     -11.194  11.651  63.445  0.00  0.00    +0.000 A 
ATOM     18  C   UNL     1     -10.467  11.026  64.452  0.00  0.00    +0.000 A 
ATOM     19  C   UNL     1     -10.426  11.709  65.662  0.00  0.00    +0.003 A 
ENDBRANCH  12  14
ENDBRANCH   3  12
TORSDOF 4
ENDMDL
MODEL 6
REMARK VINA RESULT:      -6.6      1.670      2.224
REMARK  Name = 
REMARK  4 active torsions:
REMARK  status: ('A' for Active; 'I' for Inactive)
REMARK    1  A    between atoms: C_2  and  C_3
REMARK    2  A    between atoms: C_2  and  C_6
REMARK    3  A    between atoms: C_10  and  C_11
REMARK    4  A    between atoms: C_11  and  C_13
REMARK                            x       y       z     vdW  Elec       q    Type
REMARK                         _______ _______ _______ _____ _____    ______ ____
ROOT
ATOM      1  C   UNL     1     -11.629  12.439  66.673  0.00  0.00    -0.012 A 
ATOM      2  C   UNL     1     -12.042  12.840  67.942  0.00  0.00    -0.001 A 
ATOM      3  C   UNL     1     -11.608  12.214  69.100  0.00  0.00    +0.039 A 
ATOM      4  C   UNL     1     -10.747  11.128  69.008  0.00  0.00    +0.003 A 
ATOM      5  C   UNL     1     -10.409  10.640  67.772  0.00  0.00    -0.000 A 
ATOM      6  C   UNL     1     -10.648  11.454  66.688  0.00  0.00    -0.004 A 
ENDROOT
BRANCH   1   8
ATOM      7  C   UNL     1     -10.366  12.831  64.683  0.00  0.00    +0.017 C 
ATOM      8  C   UNL     1     -11.181  13.757  65.808  0.00  0.00    +0.126 C 
BRANCH   8   9
ATOM      9  C   UNL     1     -12.558  13.743  64.928  0.00  0.00    +0.368 C 
ATOM     10  O   UNL     1     -12.640  14.832  64.086  0.00  0.00    -0.245 OA
ATOM     11  O   UNL     1     -13.100  12.648  64.779  0.00  0.00    -0.245 OA
ENDBRANCH   8   9
ENDBRANCH   1   8
BRANCH   3  12
ATOM     12  C   UNL     1     -12.225  12.418  70.402  0.00  0.00    +0.196 C 
ATOM     13  O   UNL     1     -12.543  11.443  71.148  0.00  0.00    -0.287 OA
BRANCH  12  14
ATOM     14  C   UNL     1     -12.492  13.749  70.948  0.00  0.00    +0.039 A 
ATOM     15  C   UNL     1     -13.419  13.936  71.968  0.00  0.00    +0.003 A 
ATOM     16  C   UNL     1     -13.361  15.034  72.817  0.00  0.00    +0.000 A 
ATOM     17  C   UNL     1     -12.270  15.874  72.708  0.00  0.00    +0.000 A 
ATOM     18  C   UNL     1     -11.742  16.002  71.428  0.00  0.00    +0.000 A 
ATOM     19  C   UNL     1     -11.669  14.821  70.699  0.00  0.00    +0.003 A 
ENDBRANCH  12  14
ENDBRANCH   3  12
TORSDOF 4
ENDMDL
MODEL 7
REMARK VINA RESULT:      -6.4      2.400      3.656
REMARK  Name = 
REMARK  4 active torsions:
REMARK  status: ('A' for Active; 'I' for Inactive)
REMARK    1  A    between atoms: C_2  and  C_3
REMARK    2  A    between atoms: C_2  and  C_6
REMARK    3  A    between atoms: C_10  and  C_11
REMARK    4  A    between atoms: C_11  and  C_13
REMARK                            x       y       z     vdW  Elec       q    Type
REMARK                         _______ _______ _______ _____ _____    ______ ____
ROOT
ATOM      1  C   UNL     1     -10.981  12.079  68.289  0.00  0.00    -0.012 A 
ATOM      2  C   UNL     1     -11.388  13.164  69.063  0.00  0.00    -0.001 A 
ATOM      3  C   UNL     1     -11.761  14.378  68.507  0.00  0.00    +0.039 A 
ATOM      4  C   UNL     1     -11.708  14.544  67.129  0.00  0.00    +0.003 A 
ATOM      5  C   UNL     1     -11.207  13.534  66.349  0.00  0.00    -0.000 A 
ATOM      6  C   UNL     1     -11.114  12.286  66.921  0.00  0.00    -0.004 A 
ENDROOT
BRANCH   1   8
ATOM      7  C   UNL     1     -11.004   9.776  67.654  0.00  0.00    +0.017 C 
ATOM      8  C   UNL     1     -11.759  10.729  68.798  0.00  0.00    +0.126 C 
BRANCH   8   9
ATOM      9  C   UNL     1     -10.620  10.404  69.924  0.00  0.00    +0.368 C 
ATOM     10  O   UNL     1     -11.172   9.907  71.085  0.00  0.00    -0.245 OA
ATOM     11  O   UNL     1      -9.477  10.214  69.507  0.00  0.00    -0.245 OA
ENDBRANCH   8   9
ENDBRANCH   1   8
BRANCH   3  12
ATOM     12  C   UNL     1     -11.918  15.600  69.282  0.00  0.00    +0.196 C 
ATOM     13  O   UNL     1     -11.628  16.737  68.798  0.00  0.00    -0.287 OA
BRANCH  12  14
ATOM     14  C   UNL     1     -12.444  15.607  70.647  0.00  0.00    +0.039 A 
ATOM     15  C   UNL     1     -13.727  15.150  70.927  0.00  0.00    +0.003 A 
ATOM     16  C   UNL     1     -14.082  14.697  72.191  0.00  0.00    +0.000 A 
ATOM     17  C   UNL     1     -13.083  14.583  73.138  0.00  0.00    +0.000 A 
ATOM     18  C   UNL     1     -12.058  15.517  73.037  0.00  0.00    +0.000 A 
ATOM     19  C   UNL     1     -11.633  15.790  71.742  0.00  0.00    +0.003 A 
ENDBRANCH  12  14
ENDBRANCH   3  12
TORSDOF 4
ENDMDL
MODEL 8
REMARK VINA RESULT:      -6.3      2.656      3.901
REMARK  Name = 
REMARK  4 active torsions:
REMARK  status: ('A' for Active; 'I' for Inactive)
REMARK    1  A    between atoms: C_2  and  C_3
REMARK    2  A    between atoms: C_2  and  C_6
REMARK    3  A    between atoms: C_10  and  C_11
REMARK    4  A    between atoms: C_11  and  C_13
REMARK                            x       y       z     vdW  Elec       q    Type
REMARK                         _______ _______ _______ _____ _____    ______ ____
ROOT
ATOM      1  C   UNL     1     -11.663  13.497  66.051  0.00  0.00    -0.012 A 
ATOM      2  C   UNL     1     -11.309  14.737  66.577  0.00  0.00    -0.001 A 
ATOM      3  C   UNL     1     -11.109  14.942  67.933  0.00  0.00    +0.039 A 
ATOM      4  C   UNL     1     -11.289  13.886  68.818  0.00  0.00    +0.003 A 
ATOM      5  C   UNL     1     -11.744  12.682  68.344  0.00  0.00    -0.000 A 
ATOM      6  C   UNL     1     -11.662  12.469  66.987  0.00  0.00    -0.004 A 
ENDROOT
BRANCH   1   8
ATOM      7  C   UNL     1     -10.481  11.585  65.239  0.00  0.00    +0.017 C 
ATOM      8  C   UNL     1     -10.712  13.167  64.757  0.00  0.00    +0.126 C 
BRANCH   8   9
ATOM      9  C   UNL     1     -11.991  12.769  63.820  0.00  0.00    +0.368 C 
ATOM     10  O   UNL     1     -12.658  13.885  63.361  0.00  0.00    -0.245 OA
ATOM     11  O   UNL     1     -11.958  11.657  63.294  0.00  0.00    -0.245 OA
ENDBRANCH   8   9
ENDBRANCH   1   8
BRANCH   3  12
ATOM     12  C   UNL     1     -11.018  16.261  68.540  0.00  0.00    +0.196 C 
ATOM     13  O   UNL     1     -11.636  16.546  69.611  0.00  0.00    -0.287 OA
BRANCH  12  14
ATOM     14  C   UNL     1     -10.192  17.332  67.981  0.00  0.00    +0.039 A 
ATOM     15  C   UNL     1     -10.748  18.327  67.184  0.00  0.00    +0.003 A 
ATOM     16  C   UNL     1     -10.143  19.570  67.039  0.00  0.00    +0.000 A 
ATOM     17  C   UNL     1      -9.038  19.843  67.821  0.00  0.00    +0.000 A 
ATOM     18  C   UNL     1      -8.232  18.748  68.115  0.00  0.00    +0.000 A 
ATOM     19  C   UNL     1      -8.914  17.578  68.423  0.00  0.00    +0.003 A 
ENDBRANCH  12  14
ENDBRANCH   3  12
TORSDOF 4
ENDMDL
MODEL 9
REMARK VINA RESULT:      -6.3      3.284      4.468
REMARK  Name = 
REMARK  4 active torsions:
REMARK  status: ('A' for Active; 'I' for Inactive)
REMARK    1  A    between atoms: C_2  and  C_3
REMARK    2  A    between atoms: C_2  and  C_6
REMARK    3  A    between atoms: C_10  and  C_11
REMARK    4  A    between atoms: C_11  and  C_13
REMARK                            x       y       z     vdW  Elec       q    Type
REMARK                         _______ _______ _______ _____ _____    ______ ____
ROOT
ATOM      1  C   UNL     1     -11.350  14.478  66.661  0.00  0.00    -0.012 A 
ATOM      2  C   UNL     1     -10.207  15.230  66.923  0.00  0.00    -0.001 A 
ATOM      3  C   UNL     1      -9.758  15.481  68.210  0.00  0.00    +0.039 A 
ATOM      4  C   UNL     1     -10.479  14.992  69.293  0.00  0.00    +0.003 A 
ATOM      5  C   UNL     1     -11.667  14.343  69.072  0.00  0.00    -0.000 A 
ATOM      6  C   UNL     1     -11.911  13.898  67.793  0.00  0.00    -0.004 A 
ENDROOT
BRANCH   1   8
ATOM      7  C   UNL     1     -11.514  12.103  66.449  0.00  0.00    +0.017 C 
ATOM      8  C   UNL     1     -11.018  13.377  65.492  0.00  0.00    +0.126 C 
BRANCH   8   9
ATOM      9  C   UNL     1     -12.497  13.537  64.814  0.00  0.00    +0.368 C 
ATOM     10  O   UNL     1     -12.571  14.648  64.001  0.00  0.00    -0.245 OA
ATOM     11  O   UNL     1     -13.174  12.513  64.733  0.00  0.00    -0.245 OA
ENDBRANCH   8   9
ENDBRANCH   1   8
BRANCH   3  12
ATOM     12  C   UNL     1      -8.748  16.480  68.527  0.00  0.00    +0.196 C 
ATOM     13  O   UNL     1      -7.693  16.180  69.165  0.00  0.00    -0.287 OA
BRANCH  12  14
ATOM     14  C   UNL     1      -8.864  17.878  68.112  0.00  0.00    +0.039 A 
ATOM     15  C   UNL     1      -8.160  18.364  67.015  0.00  0.00    +0.003 A 
ATOM     16  C   UNL     1      -8.582  19.487  66.316  0.00  0.00    +0.000 A 
ATOM     17  C   UNL     1      -9.804  20.036  66.655  0.00  0.00    +0.000 A 
ATOM     18  C   UNL     1     -10.153  19.925  67.997  0.00  0.00    +0.000 A 
ATOM     19  C   UNL     1      -9.857  18.702  68.586  0.00  0.00    +0.003 A 
ENDBRANCH  12  14
ENDBRANCH   3  12
TORSDOF 4
ENDMDL
