MODEL 1
REMARK VINA RESULT:      -4.9      0.000      0.000
REMARK  Name = 
REMARK  2 active torsions:
REMARK  status: ('A' for Active; 'I' for Inactive)
REMARK    1  A    between atoms: C_7  and  C_8
REMARK    2  A    between atoms: C_9  and  C_10
REMARK                            x       y       z     vdW  Elec       q    Type
REMARK                         _______ _______ _______ _____ _____    ______ ____
ROOT
ATOM      1  C   UNL     1     -12.111  13.555  66.305  0.00  0.00    +0.254 C 
ATOM      2  N   UNL     1     -11.517  14.796  66.795  0.00  0.00    -0.187 N 
ATOM      3  C   UNL     1     -11.309  14.893  68.210  0.00  0.00    +0.319 C 
ATOM      4  N   UNL     1     -10.510  15.858  68.563  0.00  0.00    -0.065 NA
ATOM      5  C   UNL     1     -10.477  17.102  67.818  0.00  0.00    +0.267 C 
ATOM      6  C   UNL     1     -10.091  16.767  66.405  0.00  0.00    +0.109 C 
ATOM      7  C   UNL     1     -10.875  15.631  65.824  0.00  0.00    +0.207 C 
ENDROOT
BRANCH   3   8
ATOM      8  C   UNL     1     -11.185  13.686  69.036  0.00  0.00    +0.089 C 
ATOM      9  C   UNL     1     -12.095  13.503  69.955  0.00  0.00    +0.014 C 
BRANCH   9  10
ATOM     10  C   UNL     1     -12.411  14.645  70.824  0.00  0.00    +0.030 A 
ATOM     11  S   UNL     1     -13.965  14.870  71.522  0.00  0.00    -0.086 S 
ATOM     12  C   UNL     1     -13.520  15.818  72.885  0.00  0.00    +0.035 A 
ATOM     13  C   UNL     1     -12.218  16.148  72.525  0.00  0.00    +0.007 A 
ATOM     14  C   UNL     1     -11.615  15.077  71.880  0.00  0.00    +0.007 A 
ENDBRANCH   9  10
ENDBRANCH   3   8
TORSDOF 2
ENDMDL
MODEL 2
REMARK VINA RESULT:      -4.8      3.315      5.075
REMARK  Name = 
REMARK  2 active torsions:
REMARK  status: ('A' for Active; 'I' for Inactive)
REMARK    1  A    between atoms: C_7  and  C_8
REMARK    2  A    between atoms: C_9  and  C_10
REMARK                            x       y       z     vdW  Elec       q    Type
REMARK                         _______ _______ _______ _____ _____    ______ ____
ROOT
ATOM      1  C   UNL     1      -7.778  17.223  68.708  0.00  0.00    +0.254 C 
ATOM      2  N   UNL     1      -8.747  18.078  68.030  0.00  0.00    -0.187 N 
ATOM      3  C   UNL     1     -10.079  17.565  67.903  0.00  0.00    +0.319 C 
ATOM      4  N   UNL     1     -10.965  18.464  67.582  0.00  0.00    -0.065 NA
ATOM      5  C   UNL     1     -10.615  19.572  66.716  0.00  0.00    +0.267 C 
ATOM      6  C   UNL     1      -9.507  20.333  67.388  0.00  0.00    +0.109 C 
ATOM      7  C   UNL     1      -8.395  19.459  67.881  0.00  0.00    +0.207 C 
ENDROOT
BRANCH   3   8
ATOM      8  C   UNL     1     -10.580  16.539  68.826  0.00  0.00    +0.089 C 
ATOM      9  C   UNL     1     -10.544  15.302  68.410  0.00  0.00    +0.014 C 
BRANCH   9  10
ATOM     10  C   UNL     1     -11.068  15.029  67.064  0.00  0.00    +0.030 A 
ATOM     11  S   UNL     1     -10.042  14.712  65.722  0.00  0.00    -0.086 S 
ATOM     12  C   UNL     1     -11.133  13.808  64.750  0.00  0.00    +0.035 A 
ATOM     13  C   UNL     1     -12.323  14.082  65.416  0.00  0.00    +0.007 A 
ATOM     14  C   UNL     1     -12.102  14.141  66.784  0.00  0.00    +0.007 A 
ENDBRANCH   9  10
ENDBRANCH   3   8
TORSDOF 2
ENDMDL
MODEL 3
REMARK VINA RESULT:      -4.6      2.427      4.799
REMARK  Name = 
REMARK  2 active torsions:
REMARK  status: ('A' for Active; 'I' for Inactive)
REMARK    1  A    between atoms: C_7  and  C_8
REMARK    2  A    between atoms: C_9  and  C_10
REMARK                            x       y       z     vdW  Elec       q    Type
REMARK                         _______ _______ _______ _____ _____    ______ ____
ROOT
ATOM      1  C   UNL     1     -11.322  12.617  68.891  0.00  0.00    +0.254 C 
ATOM      2  N   UNL     1     -11.715  13.720  69.764  0.00  0.00    -0.187 N 
ATOM      3  C   UNL     1     -11.592  15.041  69.223  0.00  0.00    +0.319 C 
ATOM      4  N   UNL     1     -12.232  15.952  69.899  0.00  0.00    -0.065 NA
ATOM      5  C   UNL     1     -12.358  15.853  71.340  0.00  0.00    +0.267 C 
ATOM      6  C   UNL     1     -13.073  14.565  71.639  0.00  0.00    +0.109 C 
ATOM      7  C   UNL     1     -12.510  13.385  70.908  0.00  0.00    +0.207 C 
ENDROOT
BRANCH   3   8
ATOM      8  C   UNL     1     -11.597  15.264  67.772  0.00  0.00    +0.089 C 
ATOM      9  C   UNL     1     -10.565  15.883  67.265  0.00  0.00    +0.014 C 
BRANCH   9  10
ATOM     10  C   UNL     1     -10.126  17.116  67.935  0.00  0.00    +0.030 A 
ATOM     11  S   UNL     1      -8.488  17.390  68.379  0.00  0.00    -0.086 S 
ATOM     12  C   UNL     1      -8.492  19.108  68.394  0.00  0.00    +0.035 A 
ATOM     13  C   UNL     1      -9.863  19.340  68.347  0.00  0.00    +0.007 A 
ATOM     14  C   UNL     1     -10.478  18.400  67.533  0.00  0.00    +0.007 A 
ENDBRANCH   9  10
ENDBRANCH   3   8
TORSDOF 2
ENDMDL
MODEL 4
REMARK VINA RESULT:      -4.5      3.229      6.000
REMARK  Name = 
REMARK  2 active torsions:
REMARK  status: ('A' for Active; 'I' for Inactive)
REMARK    1  A    between atoms: C_7  and  C_8
REMARK    2  A    between atoms: C_9  and  C_10
REMARK                            x       y       z     vdW  Elec       q    Type
REMARK                         _______ _______ _______ _____ _____    ______ ____
ROOT
ATOM      1  C   UNL     1     -12.062  14.050  68.352  0.00  0.00    +0.254 C 
ATOM      2  N   UNL     1     -11.268  14.915  67.484  0.00  0.00    -0.187 N 
ATOM      3  C   UNL     1     -11.346  14.658  66.077  0.00  0.00    +0.319 C 
ATOM      4  N   UNL     1     -10.884  15.624  65.335  0.00  0.00    -0.065 NA
ATOM      5  C   UNL     1      -9.767  16.432  65.784  0.00  0.00    +0.267 C 
ATOM      6  C   UNL     1     -10.177  17.086  67.074  0.00  0.00    +0.109 C 
ATOM      7  C   UNL     1     -10.786  16.136  68.058  0.00  0.00    +0.207 C 
ENDROOT
BRANCH   3   8
ATOM      8  C   UNL     1     -12.508  13.969  65.501  0.00  0.00    +0.089 C 
ATOM      9  C   UNL     1     -12.415  12.675  65.353  0.00  0.00    +0.014 C 
BRANCH   9  10
ATOM     10  C   UNL     1     -11.193  12.157  64.722  0.00  0.00    +0.030 A 
ATOM     11  S   UNL     1     -10.197  10.975  65.474  0.00  0.00    -0.086 S 
ATOM     12  C   UNL     1      -9.467  10.299  64.072  0.00  0.00    +0.035 A 
ATOM     13  C   UNL     1      -9.830  11.259  63.133  0.00  0.00    +0.007 A 
ATOM     14  C   UNL     1     -11.107  11.730  63.401  0.00  0.00    +0.007 A 
ENDBRANCH   9  10
ENDBRANCH   3   8
TORSDOF 2
ENDMDL
MODEL 5
REMARK VINA RESULT:      -4.4      3.625      4.904
REMARK  Name = 
REMARK  2 active torsions:
REMARK  status: ('A' for Active; 'I' for Inactive)
REMARK    1  A    between atoms: C_7  and  C_8
REMARK    2  A    between atoms: C_9  and  C_10
REMARK                            x       y       z     vdW  Elec       q    Type
REMARK                         _______ _______ _______ _____ _____    ______ ____
ROOT
ATOM      1  C   UNL     1     -10.067  13.085  67.921  0.00  0.00    +0.254 C 
ATOM      2  N   UNL     1     -10.820  13.570  66.768  0.00  0.00    -0.187 N 
ATOM      3  C   UNL     1     -10.310  14.739  66.115  0.00  0.00    +0.319 C 
ATOM      4  N   UNL     1     -10.818  14.949  64.934  0.00  0.00    -0.065 NA
ATOM      5  C   UNL     1     -12.194  14.596  64.646  0.00  0.00    +0.267 C 
ATOM      6  C   UNL     1     -12.335  13.117  64.878  0.00  0.00    +0.109 C 
ATOM      7  C   UNL     1     -11.759  12.660  66.182  0.00  0.00    +0.207 C 
ENDROOT
BRANCH   3   8
ATOM      8  C   UNL     1      -8.894  15.107  66.228  0.00  0.00    +0.089 C 
ATOM      9  C   UNL     1      -8.595  16.056  67.073  0.00  0.00    +0.014 C 
BRANCH   9  10
ATOM     10  C   UNL     1      -9.403  17.283  67.019  0.00  0.00    +0.030 A 
ATOM     11  S   UNL     1     -10.077  18.005  68.425  0.00  0.00    -0.086 S 
ATOM     12  C   UNL     1     -10.214  19.623  67.864  0.00  0.00    +0.035 A 
ATOM     13  C   UNL     1     -10.004  19.418  66.504  0.00  0.00    +0.007 A 
ATOM     14  C   UNL     1      -9.051  18.428  66.312  0.00  0.00    +0.007 A 
ENDBRANCH   9  10
ENDBRANCH   3   8
TORSDOF 2
ENDMDL
MODEL 6
REMARK VINA RESULT:      -4.4      2.151      3.495
REMARK  Name = 
REMARK  2 active torsions:
REMARK  status: ('A' for Active; 'I' for Inactive)
REMARK    1  A    between atoms: C_7  and  C_8
REMARK    2  A    between atoms: C_9  and  C_10
REMARK                            x       y       z     vdW  Elec       q    Type
REMARK                         _______ _______ _______ _____ _____    ______ ____
ROOT
ATOM      1  C   UNL     1      -9.205  13.844  67.779  0.00  0.00    +0.254 C 
ATOM      2  N   UNL     1     -10.033  12.845  68.449  0.00  0.00    -0.187 N 
ATOM      3  C   UNL     1     -11.254  13.313  69.035  0.00  0.00    +0.319 C 
ATOM      4  N   UNL     1     -12.093  12.364  69.339  0.00  0.00    -0.065 NA
ATOM      5  C   UNL     1     -11.617  11.069  69.785  0.00  0.00    +0.267 C 
ATOM      6  C   UNL     1     -10.764  10.503  68.684  0.00  0.00    +0.109 C 
ATOM      7  C   UNL     1      -9.751  11.471  68.156  0.00  0.00    +0.207 C 
ENDROOT
BRANCH   3   8
ATOM      8  C   UNL     1     -11.896  14.543  68.556  0.00  0.00    +0.089 C 
ATOM      9  C   UNL     1     -11.977  15.535  69.402  0.00  0.00    +0.014 C 
BRANCH   9  10
ATOM     10  C   UNL     1     -12.478  15.230  70.750  0.00  0.00    +0.030 A 
ATOM     11  S   UNL     1     -11.902  16.039  72.152  0.00  0.00    -0.086 S 
ATOM     12  C   UNL     1     -13.267  15.823  73.174  0.00  0.00    +0.035 A 
ATOM     13  C   UNL     1     -13.958  14.863  72.441  0.00  0.00    +0.007 A 
ATOM     14  C   UNL     1     -13.823  15.111  71.083  0.00  0.00    +0.007 A 
ENDBRANCH   9  10
ENDBRANCH   3   8
TORSDOF 2
ENDMDL
MODEL 7
REMARK VINA RESULT:      -4.3      2.852      4.530
REMARK  Name = 
REMARK  2 active torsions:
REMARK  status: ('A' for Active; 'I' for Inactive)
REMARK    1  A    between atoms: C_7  and  C_8
REMARK    2  A    between atoms: C_9  and  C_10
REMARK                            x       y       z     vdW  Elec       q    Type
REMARK                         _______ _______ _______ _____ _____    ______ ____
ROOT
ATOM      1  C   UNL     1      -7.223  18.181  68.663  0.00  0.00    +0.254 C 
ATOM      2  N   UNL     1      -8.318  18.615  67.800  0.00  0.00    -0.187 N 
ATOM      3  C   UNL     1      -8.475  17.912  66.562  0.00  0.00    +0.319 C 
ATOM      4  N   UNL     1      -9.623  18.113  65.981  0.00  0.00    -0.065 NA
ATOM      5  C   UNL     1     -10.292  19.395  66.086  0.00  0.00    +0.267 C 
ATOM      6  C   UNL     1     -10.538  19.653  67.546  0.00  0.00    +0.109 C 
ATOM      7  C   UNL     1      -9.332  19.427  68.404  0.00  0.00    +0.207 C 
ENDROOT
BRANCH   3   8
ATOM      8  C   UNL     1      -7.957  16.548  66.399  0.00  0.00    +0.089 C 
ATOM      9  C   UNL     1      -8.819  15.573  66.497  0.00  0.00    +0.014 C 
BRANCH   9  10
ATOM     10  C   UNL     1      -9.737  15.600  67.645  0.00  0.00    +0.030 A 
ATOM     11  S   UNL     1     -11.319  14.931  67.576  0.00  0.00    -0.086 S 
ATOM     12  C   UNL     1     -11.555  14.612  69.248  0.00  0.00    +0.035 A 
ATOM     13  C   UNL     1     -10.493  15.337  69.777  0.00  0.00    +0.007 A 
ATOM     14  C   UNL     1      -9.388  15.244  68.943  0.00  0.00    +0.007 A 
ENDBRANCH   9  10
ENDBRANCH   3   8
TORSDOF 2
ENDMDL
MODEL 8
REMARK VINA RESULT:      -4.3      3.268      5.066
REMARK  Name = 
REMARK  2 active torsions:
REMARK  status: ('A' for Active; 'I' for Inactive)
REMARK    1  A    between atoms: C_7  and  C_8
REMARK    2  A    between atoms: C_9  and  C_10
REMARK                            x       y       z     vdW  Elec       q    Type
REMARK                         _______ _______ _______ _____ _____    ______ ____
ROOT
ATOM      1  C   UNL     1     -10.345  11.876  63.553  0.00  0.00    +0.254 C 
ATOM      2  N   UNL     1     -10.354  11.245  64.870  0.00  0.00    -0.187 N 
ATOM      3  C   UNL     1     -11.138  11.887  65.883  0.00  0.00    +0.319 C 
ATOM      4  N   UNL     1     -11.368  11.142  66.926  0.00  0.00    -0.065 NA
ATOM      5  C   UNL     1     -10.382  10.182  67.383  0.00  0.00    +0.267 C 
ATOM      6  C   UNL     1     -10.140   9.218  66.255  0.00  0.00    +0.109 C 
ATOM      7  C   UNL     1      -9.898   9.888  64.938  0.00  0.00    +0.207 C 
ENDROOT
BRANCH   3   8
ATOM      8  C   UNL     1     -12.254  12.770  65.524  0.00  0.00    +0.089 C 
ATOM      9  C   UNL     1     -12.026  14.055  65.556  0.00  0.00    +0.014 C 
BRANCH   9  10
ATOM     10  C   UNL     1     -11.361  14.590  66.753  0.00  0.00    +0.030 A 
ATOM     11  S   UNL     1     -10.446  16.044  66.727  0.00  0.00    -0.086 S 
ATOM     12  C   UNL     1     -10.582  16.484  68.382  0.00  0.00    +0.035 A 
ATOM     13  C   UNL     1     -11.081  15.294  68.901  0.00  0.00    +0.007 A 
ATOM     14  C   UNL     1     -11.964  14.714  68.001  0.00  0.00    +0.007 A 
ENDBRANCH   9  10
ENDBRANCH   3   8
TORSDOF 2
ENDMDL
MODEL 9
REMARK VINA RESULT:      -4.3      3.018      5.398
REMARK  Name = 
REMARK  2 active torsions:
REMARK  status: ('A' for Active; 'I' for Inactive)
REMARK    1  A    between atoms: C_7  and  C_8
REMARK    2  A    between atoms: C_9  and  C_10
REMARK                            x       y       z     vdW  Elec       q    Type
REMARK                         _______ _______ _______ _____ _____    ______ ____
ROOT
ATOM      1  C   UNL     1     -10.129  15.470  69.645  0.00  0.00    +0.254 C 
ATOM      2  N   UNL     1     -10.183  15.979  68.278  0.00  0.00    -0.187 N 
ATOM      3  C   UNL     1     -10.852  15.157  67.313  0.00  0.00    +0.319 C 
ATOM      4  N   UNL     1     -11.146  15.774  66.205  0.00  0.00    -0.065 NA
ATOM      5  C   UNL     1     -10.277  16.809  65.680  0.00  0.00    +0.267 C 
ATOM      6  C   UNL     1     -10.189  17.889  66.721  0.00  0.00    +0.109 C 
ATOM      7  C   UNL     1      -9.900  17.372  68.096  0.00  0.00    +0.207 C 
ENDROOT
BRANCH   3   8
ATOM      8  C   UNL     1     -11.857  14.172  67.732  0.00  0.00    +0.089 C 
ATOM      9  C   UNL     1     -11.710  12.953  67.290  0.00  0.00    +0.014 C 
BRANCH   9  10
ATOM     10  C   UNL     1     -11.448  12.785  65.853  0.00  0.00    +0.030 A 
ATOM     11  S   UNL     1     -10.243  11.716  65.255  0.00  0.00    -0.086 S 
ATOM     12  C   UNL     1     -10.891  11.420  63.691  0.00  0.00    +0.035 A 
ATOM     13  C   UNL     1     -11.851  12.425  63.641  0.00  0.00    +0.007 A 
ATOM     14  C   UNL     1     -12.433  12.593  64.889  0.00  0.00    +0.007 A 
ENDBRANCH   9  10
ENDBRANCH   3   8
TORSDOF 2
ENDMDL
