MODEL 1
REMARK VINA RESULT:      -6.2      0.000      0.000
REMARK  Name = 
REMARK  8 active torsions:
REMARK  status: ('A' for Active; 'I' for Inactive)
REMARK    1  A    between atoms: O_2  and  C_3
REMARK    2  A    between atoms: C_6  and  C_7
REMARK    3  A    between atoms: C_7  and  C_8
REMARK    4  A    between atoms: C_8  and  N_10
REMARK    5  A    between atoms: N_10  and  C_11
REMARK    6  A    between atoms: C_11  and  C_12
REMARK    7  A    between atoms: C_12  and  C_14
REMARK    8  A    between atoms: C_19  and  N_20
REMARK                            x       y       z     vdW  Elec       q    Type
REMARK                         _______ _______ _______ _____ _____    ______ ____
ROOT
ATOM      1  C   UNL     1     -10.781  12.334  66.488  0.00  0.00    +0.126 C 
ENDROOT
BRANCH   1   2
ATOM      2  C   UNL     1     -11.282  13.339  65.222  0.00  0.00    +0.192 C 
ATOM      3  O   UNL     1     -10.256  12.696  64.243  0.00  0.00    -0.217 OA
BRANCH   2   4
ATOM      4  C   UNL     1     -10.212  14.539  65.588  0.00  0.00    +0.011 A 
ATOM      5  C   UNL     1     -10.777  15.796  65.501  0.00  0.00    +0.018 A 
ATOM      6  C   UNL     1      -9.913  16.862  65.724  0.00  0.00    +0.112 A 
ATOM      7  C   UNL     1      -8.596  16.610  66.094  0.00  0.00    +0.211 A 
ATOM      8  O   UNL     1      -7.599  17.548  65.831  0.00  0.00    -0.285 OA
ATOM      9  C   UNL     1      -8.336  15.351  66.618  0.00  0.00    +0.043 A 
ATOM     10  C   UNL     1      -9.281  14.328  66.524  0.00  0.00    +0.002 A 
BRANCH   6  11
ATOM     11  N   UNL     1     -10.350  18.209  65.759  0.00  0.00    -0.168 NA
ATOM     12  C   UNL     1     -10.470  18.827  67.046  0.00  0.00    +0.325 C 
ATOM     13  O   UNL     1     -10.979  18.182  67.990  0.00  0.00    -0.263 OA
ENDBRANCH   6  11
ENDBRANCH   2   4
ENDBRANCH   1   2
BRANCH   1  14
ATOM     14  N   UNL     1     -12.030  12.230  67.195  0.00  0.00    -0.216 NA
BRANCH  14  15
ATOM     15  C   UNL     1     -11.711  11.384  68.513  0.00  0.00    +0.077 C 
ATOM     16  C   UNL     1     -10.284  10.784  67.878  0.00  0.00    +0.019 C 
BRANCH  15  17
ATOM     17  C   UNL     1     -10.978  12.681  69.245  0.00  0.00    +0.044 C 
BRANCH  17  21
ATOM     18  C   UNL     1     -12.506  15.599  71.614  0.00  0.00    +0.139 A 
ATOM     19  C   UNL     1     -11.824  15.930  70.456  0.00  0.00    +0.037 A 
ATOM     20  C   UNL     1     -11.552  14.954  69.499  0.00  0.00    -0.001 A 
ATOM     21  C   UNL     1     -11.970  13.634  69.655  0.00  0.00    -0.021 A 
ATOM     22  C   UNL     1     -13.024  13.560  70.521  0.00  0.00    -0.001 A 
ATOM     23  C   UNL     1     -13.137  14.367  71.646  0.00  0.00    +0.037 A 
BRANCH  18  25
ATOM     24  C   UNL     1     -12.333  15.377  74.010  0.00  0.00    +0.252 C 
ATOM     25  O   UNL     1     -12.091  16.101  72.851  0.00  0.00    -0.471 OA
ENDBRANCH  18  25
ENDBRANCH  17  21
ENDBRANCH  15  17
ENDBRANCH  14  15
ENDBRANCH   1  14
TORSDOF 8
ENDMDL
MODEL 2
REMARK VINA RESULT:      -6.1      2.221      4.840
REMARK  Name = 
REMARK  8 active torsions:
REMARK  status: ('A' for Active; 'I' for Inactive)
REMARK    1  A    between atoms: O_2  and  C_3
REMARK    2  A    between atoms: C_6  and  C_7
REMARK    3  A    between atoms: C_7  and  C_8
REMARK    4  A    between atoms: C_8  and  N_10
REMARK    5  A    between atoms: N_10  and  C_11
REMARK    6  A    between atoms: C_11  and  C_12
REMARK    7  A    between atoms: C_12  and  C_14
REMARK    8  A    between atoms: C_19  and  N_20
REMARK                            x       y       z     vdW  Elec       q    Type
REMARK                         _______ _______ _______ _____ _____    ______ ____
ROOT
ATOM      1  C   UNL     1     -10.505  16.120  67.046  0.00  0.00    +0.126 C 
ENDROOT
BRANCH   1   2
ATOM      2  C   UNL     1      -9.783  15.874  65.536  0.00  0.00    +0.192 C 
ATOM      3  O   UNL     1     -10.732  16.908  64.862  0.00  0.00    -0.217 OA
BRANCH   2   4
ATOM      4  C   UNL     1     -10.793  14.641  65.116  0.00  0.00    +0.011 A 
ATOM      5  C   UNL     1     -10.119  13.566  64.572  0.00  0.00    +0.018 A 
ATOM      6  C   UNL     1     -10.915  12.518  64.125  0.00  0.00    +0.112 A 
ATOM      7  C   UNL     1     -12.290  12.571  64.324  0.00  0.00    +0.211 A 
ATOM      8  O   UNL     1     -13.151  11.860  63.488  0.00  0.00    -0.285 OA
ATOM      9  C   UNL     1     -12.736  13.445  65.306  0.00  0.00    +0.043 A 
ATOM     10  C   UNL     1     -11.877  14.396  65.860  0.00  0.00    +0.002 A 
BRANCH   6  11
ATOM     11  N   UNL     1     -10.378  11.307  63.623  0.00  0.00    -0.168 NA
ATOM     12  C   UNL     1     -10.143  10.253  64.565  0.00  0.00    +0.325 C 
ATOM     13  O   UNL     1      -9.632  10.526  65.674  0.00  0.00    -0.263 OA
ENDBRANCH   6  11
ENDBRANCH   2   4
ENDBRANCH   1   2
BRANCH   1  14
ATOM     14  N   UNL     1      -9.324  16.063  67.867  0.00  0.00    -0.216 NA
BRANCH  14  15
ATOM     15  C   UNL     1      -9.661  16.929  69.168  0.00  0.00    +0.077 C 
ATOM     16  C   UNL     1     -10.105  18.263  68.262  0.00  0.00    +0.019 C 
BRANCH  15  17
ATOM     17  C   UNL     1     -11.204  16.322  69.250  0.00  0.00    +0.044 C 
BRANCH  17  21
ATOM     18  C   UNL     1     -13.382  14.412  72.090  0.00  0.00    +0.139 A 
ATOM     19  C   UNL     1     -12.675  13.684  71.150  0.00  0.00    +0.037 A 
ATOM     20  C   UNL     1     -11.707  14.305  70.363  0.00  0.00    -0.001 A 
ATOM     21  C   UNL     1     -11.400  15.657  70.507  0.00  0.00    -0.021 A 
ATOM     22  C   UNL     1     -11.758  16.105  71.746  0.00  0.00    -0.001 A 
ATOM     23  C   UNL     1     -12.900  15.671  72.406  0.00  0.00    +0.037 A 
BRANCH  18  25
ATOM     24  C   UNL     1     -15.638  14.882  71.381  0.00  0.00    +0.252 C 
ATOM     25  O   UNL     1     -14.761  14.234  72.238  0.00  0.00    -0.471 OA
ENDBRANCH  18  25
ENDBRANCH  17  21
ENDBRANCH  15  17
ENDBRANCH  14  15
ENDBRANCH   1  14
TORSDOF 8
ENDMDL
MODEL 3
REMARK VINA RESULT:      -6.1      3.192      5.298
REMARK  Name = 
REMARK  8 active torsions:
REMARK  status: ('A' for Active; 'I' for Inactive)
REMARK    1  A    between atoms: O_2  and  C_3
REMARK    2  A    between atoms: C_6  and  C_7
REMARK    3  A    between atoms: C_7  and  C_8
REMARK    4  A    between atoms: C_8  and  N_10
REMARK    5  A    between atoms: N_10  and  C_11
REMARK    6  A    between atoms: C_11  and  C_12
REMARK    7  A    between atoms: C_12  and  C_14
REMARK    8  A    between atoms: C_19  and  N_20
REMARK                            x       y       z     vdW  Elec       q    Type
REMARK                         _______ _______ _______ _____ _____    ______ ____
ROOT
ATOM      1  C   UNL     1     -10.853  12.335  67.422  0.00  0.00    +0.126 C 
ENDROOT
BRANCH   1   2
ATOM      2  C   UNL     1     -11.826  13.664  67.035  0.00  0.00    +0.192 C 
ATOM      3  O   UNL     1     -10.612  14.439  66.441  0.00  0.00    -0.217 OA
BRANCH   2   4
ATOM      4  C   UNL     1     -11.611  14.403  68.492  0.00  0.00    +0.011 A 
ATOM      5  C   UNL     1     -12.453  13.907  69.467  0.00  0.00    +0.018 A 
ATOM      6  C   UNL     1     -12.379  14.535  70.705  0.00  0.00    +0.112 A 
ATOM      7  C   UNL     1     -11.434  15.534  70.910  0.00  0.00    +0.211 A 
ATOM      8  O   UNL     1     -11.640  16.510  71.884  0.00  0.00    -0.285 OA
ATOM      9  C   UNL     1     -10.363  15.557  70.027  0.00  0.00    +0.043 A 
ATOM     10  C   UNL     1     -10.385  14.796  68.857  0.00  0.00    +0.002 A 
BRANCH   6  11
ATOM     11  N   UNL     1     -13.110  14.092  71.834  0.00  0.00    -0.168 NA
ATOM     12  C   UNL     1     -14.510  14.397  71.871  0.00  0.00    +0.325 C 
ATOM     13  O   UNL     1     -14.897  15.535  71.524  0.00  0.00    -0.263 OA
ENDBRANCH   6  11
ENDBRANCH   2   4
ENDBRANCH   1   2
BRANCH   1  14
ATOM     14  N   UNL     1     -11.835  11.294  67.278  0.00  0.00    -0.216 NA
BRANCH  14  15
ATOM     15  C   UNL     1     -11.177   9.987  67.923  0.00  0.00    +0.077 C 
ATOM     16  C   UNL     1      -9.842  10.069  66.918  0.00  0.00    +0.019 C 
BRANCH  15  17
ATOM     17  C   UNL     1     -10.466  10.867  69.137  0.00  0.00    +0.044 C 
BRANCH  17  21
ATOM     18  C   UNL     1     -12.452   8.400  71.673  0.00  0.00    +0.139 A 
ATOM     19  C   UNL     1     -11.073   8.341  71.584  0.00  0.00    +0.037 A 
ATOM     20  C   UNL     1     -10.366   9.360  70.948  0.00  0.00    -0.001 A 
ATOM     21  C   UNL     1     -11.007  10.472  70.407  0.00  0.00    -0.021 A 
ATOM     22  C   UNL     1     -12.226  10.661  70.993  0.00  0.00    -0.001 A 
ATOM     23  C   UNL     1     -13.053   9.611  71.372  0.00  0.00    +0.037 A 
BRANCH  18  25
ATOM     24  C   UNL     1     -14.611   7.334  71.533  0.00  0.00    +0.252 C 
ATOM     25  O   UNL     1     -13.229   7.261  71.440  0.00  0.00    -0.471 OA
ENDBRANCH  18  25
ENDBRANCH  17  21
ENDBRANCH  15  17
ENDBRANCH  14  15
ENDBRANCH   1  14
TORSDOF 8
ENDMDL
MODEL 4
REMARK VINA RESULT:      -6.1      3.146      4.267
REMARK  Name = 
REMARK  8 active torsions:
REMARK  status: ('A' for Active; 'I' for Inactive)
REMARK    1  A    between atoms: O_2  and  C_3
REMARK    2  A    between atoms: C_6  and  C_7
REMARK    3  A    between atoms: C_7  and  C_8
REMARK    4  A    between atoms: C_8  and  N_10
REMARK    5  A    between atoms: N_10  and  C_11
REMARK    6  A    between atoms: C_11  and  C_12
REMARK    7  A    between atoms: C_12  and  C_14
REMARK    8  A    between atoms: C_19  and  N_20
REMARK                            x       y       z     vdW  Elec       q    Type
REMARK                         _______ _______ _______ _____ _____    ______ ____
ROOT
ATOM      1  C   UNL     1     -11.521  12.574  67.487  0.00  0.00    +0.126 C 
ENDROOT
BRANCH   1   2
ATOM      2  C   UNL     1     -11.804  13.281  65.977  0.00  0.00    +0.192 C 
ATOM      3  O   UNL     1     -10.355  12.964  65.505  0.00  0.00    -0.217 OA
BRANCH   2   4
ATOM      4  C   UNL     1     -11.339  14.788  66.458  0.00  0.00    +0.011 A 
ATOM      5  C   UNL     1     -11.210  14.890  67.828  0.00  0.00    +0.018 A 
ATOM      6  C   UNL     1     -10.892  16.154  68.311  0.00  0.00    +0.112 A 
ATOM      7  C   UNL     1     -10.647  17.188  67.415  0.00  0.00    +0.211 A 
ATOM      8  O   UNL     1     -10.835  18.514  67.799  0.00  0.00    -0.285 OA
ATOM      9  C   UNL     1     -10.325  16.812  66.118  0.00  0.00    +0.043 A 
ATOM     10  C   UNL     1     -10.503  15.495  65.690  0.00  0.00    +0.002 A 
BRANCH   6  11
ATOM     11  N   UNL     1     -10.638  16.409  69.682  0.00  0.00    -0.168 NA
ATOM     12  C   UNL     1     -11.592  15.914  70.629  0.00  0.00    +0.325 C 
ATOM     13  O   UNL     1     -12.814  16.031  70.387  0.00  0.00    -0.263 OA
ENDBRANCH   6  11
ENDBRANCH   2   4
ENDBRANCH   1   2
BRANCH   1  14
ATOM     14  N   UNL     1     -11.660  11.191  67.113  0.00  0.00    -0.216 NA
BRANCH  14  15
ATOM     15  C   UNL     1     -11.086  10.350  68.346  0.00  0.00    +0.077 C 
ATOM     16  C   UNL     1      -9.594  11.103  68.266  0.00  0.00    +0.019 C 
BRANCH  15  17
ATOM     17  C   UNL     1     -11.703  11.425  69.449  0.00  0.00    +0.044 C 
BRANCH  17  21
ATOM     18  C   UNL     1     -12.795   8.373  71.888  0.00  0.00    +0.139 A 
ATOM     19  C   UNL     1     -11.480   8.496  71.475  0.00  0.00    +0.037 A 
ATOM     20  C   UNL     1     -11.037   9.679  70.887  0.00  0.00    -0.001 A 
ATOM     21  C   UNL     1     -11.879  10.776  70.717  0.00  0.00    -0.021 A 
ATOM     22  C   UNL     1     -12.926  10.722  71.593  0.00  0.00    -0.001 A 
ATOM     23  C   UNL     1     -13.547   9.534  71.956  0.00  0.00    +0.037 A 
BRANCH  18  25
ATOM     24  C   UNL     1     -14.887   7.176  71.816  0.00  0.00    +0.252 C 
ATOM     25  O   UNL     1     -13.512   7.198  71.640  0.00  0.00    -0.471 OA
ENDBRANCH  18  25
ENDBRANCH  17  21
ENDBRANCH  15  17
ENDBRANCH  14  15
ENDBRANCH   1  14
TORSDOF 8
ENDMDL
MODEL 5
REMARK VINA RESULT:      -6.1      3.489      7.180
REMARK  Name = 
REMARK  8 active torsions:
REMARK  status: ('A' for Active; 'I' for Inactive)
REMARK    1  A    between atoms: O_2  and  C_3
REMARK    2  A    between atoms: C_6  and  C_7
REMARK    3  A    between atoms: C_7  and  C_8
REMARK    4  A    between atoms: C_8  and  N_10
REMARK    5  A    between atoms: N_10  and  C_11
REMARK    6  A    between atoms: C_11  and  C_12
REMARK    7  A    between atoms: C_12  and  C_14
REMARK    8  A    between atoms: C_19  and  N_20
REMARK                            x       y       z     vdW  Elec       q    Type
REMARK                         _______ _______ _______ _____ _____    ______ ____
ROOT
ATOM      1  C   UNL     1     -11.123  10.736  67.401  0.00  0.00    +0.126 C 
ENDROOT
BRANCH   1   2
ATOM      2  C   UNL     1     -10.350  11.569  68.654  0.00  0.00    +0.192 C 
ATOM      3  O   UNL     1      -9.358  10.392  68.888  0.00  0.00    -0.217 OA
BRANCH   2   4
ATOM      4  C   UNL     1     -11.352  10.986  69.826  0.00  0.00    +0.011 A 
ATOM      5  C   UNL     1     -10.829   9.881  70.468  0.00  0.00    +0.018 A 
ATOM      6  C   UNL     1     -11.653   9.290  71.418  0.00  0.00    +0.112 A 
ATOM      7  C   UNL     1     -12.877   9.875  71.722  0.00  0.00    +0.211 A 
ATOM      8  O   UNL     1     -13.918   9.105  72.237  0.00  0.00    -0.285 OA
ATOM      9  C   UNL     1     -13.021  11.212  71.377  0.00  0.00    +0.043 A 
ATOM     10  C   UNL     1     -12.095  11.838  70.541  0.00  0.00    +0.002 A 
BRANCH   6  11
ATOM     11  N   UNL     1     -11.235   8.204  72.226  0.00  0.00    -0.168 NA
ATOM     12  C   UNL     1     -11.151   6.917  71.603  0.00  0.00    +0.325 C 
ATOM     13  O   UNL     1     -12.061   6.552  70.825  0.00  0.00    -0.263 OA
ENDBRANCH   6  11
ENDBRANCH   2   4
ENDBRANCH   1   2
BRANCH   1  14
ATOM     14  N   UNL     1     -12.035  11.766  66.980  0.00  0.00    -0.216 NA
BRANCH  14  15
ATOM     15  C   UNL     1     -11.231  12.646  65.915  0.00  0.00    +0.077 C 
ATOM     16  C   UNL     1     -12.384  12.405  64.727  0.00  0.00    +0.019 C 
BRANCH  15  17
ATOM     17  C   UNL     1     -11.917  14.054  66.464  0.00  0.00    +0.044 C 
BRANCH  17  21
ATOM     18  C   UNL     1     -10.414  17.619  67.684  0.00  0.00    +0.139 A 
ATOM     19  C   UNL     1     -10.932  16.730  68.609  0.00  0.00    +0.037 A 
ATOM     20  C   UNL     1     -11.180  15.407  68.249  0.00  0.00    -0.001 A 
ATOM     21  C   UNL     1     -10.898  14.928  66.971  0.00  0.00    -0.021 A 
ATOM     22  C   UNL     1      -9.957  15.706  66.360  0.00  0.00    -0.001 A 
ATOM     23  C   UNL     1      -9.899  17.085  66.515  0.00  0.00    +0.037 A 
BRANCH  18  25
ATOM     24  C   UNL     1     -10.560  19.724  66.517  0.00  0.00    +0.252 C 
ATOM     25  O   UNL     1     -10.918  18.920  67.589  0.00  0.00    -0.471 OA
ENDBRANCH  18  25
ENDBRANCH  17  21
ENDBRANCH  15  17
ENDBRANCH  14  15
ENDBRANCH   1  14
TORSDOF 8
ENDMDL
MODEL 6
REMARK VINA RESULT:      -6.0      3.426      4.900
REMARK  Name = 
REMARK  8 active torsions:
REMARK  status: ('A' for Active; 'I' for Inactive)
REMARK    1  A    between atoms: O_2  and  C_3
REMARK    2  A    between atoms: C_6  and  C_7
REMARK    3  A    between atoms: C_7  and  C_8
REMARK    4  A    between atoms: C_8  and  N_10
REMARK    5  A    between atoms: N_10  and  C_11
REMARK    6  A    between atoms: C_11  and  C_12
REMARK    7  A    between atoms: C_12  and  C_14
REMARK    8  A    between atoms: C_19  and  N_20
REMARK                            x       y       z     vdW  Elec       q    Type
REMARK                         _______ _______ _______ _____ _____    ______ ____
ROOT
ATOM      1  C   UNL     1      -9.331   9.978  66.724  0.00  0.00    +0.126 C 
ENDROOT
BRANCH   1   2
ATOM      2  C   UNL     1      -9.715   9.701  65.100  0.00  0.00    +0.192 C 
ATOM      3  O   UNL     1      -8.472  10.505  64.620  0.00  0.00    -0.217 OA
BRANCH   2   4
ATOM      4  C   UNL     1     -10.662  11.043  64.966  0.00  0.00    +0.011 A 
ATOM      5  C   UNL     1     -10.318  12.026  65.873  0.00  0.00    +0.018 A 
ATOM      6  C   UNL     1     -11.123  13.159  65.867  0.00  0.00    +0.112 A 
ATOM      7  C   UNL     1     -12.139  13.274  64.924  0.00  0.00    +0.211 A 
ATOM      8  O   UNL     1     -13.249  14.077  65.177  0.00  0.00    -0.285 OA
ATOM      9  C   UNL     1     -12.027  12.465  63.801  0.00  0.00    +0.043 A 
ATOM     10  C   UNL     1     -11.100  11.422  63.760  0.00  0.00    +0.002 A 
BRANCH   6  11
ATOM     11  N   UNL     1     -10.855  14.294  66.672  0.00  0.00    -0.168 NA
ATOM     12  C   UNL     1     -11.014  14.146  68.088  0.00  0.00    +0.325 C 
ATOM     13  O   UNL     1     -12.005  13.525  68.532  0.00  0.00    -0.263 OA
ENDBRANCH   6  11
ENDBRANCH   2   4
ENDBRANCH   1   2
BRANCH   1  14
ATOM     14  N   UNL     1      -9.787   8.729  67.275  0.00  0.00    -0.216 NA
BRANCH  14  15
ATOM     15  C   UNL     1      -9.653   8.883  68.861  0.00  0.00    +0.077 C 
ATOM     16  C   UNL     1      -8.574  10.154  68.726  0.00  0.00    +0.019 C 
BRANCH  15  17
ATOM     17  C   UNL     1     -10.987   9.867  68.943  0.00  0.00    +0.044 C 
BRANCH  17  21
ATOM     18  C   UNL     1     -13.285   9.336  72.244  0.00  0.00    +0.139 A 
ATOM     19  C   UNL     1     -12.150   8.568  72.056  0.00  0.00    +0.037 A 
ATOM     20  C   UNL     1     -11.208   8.929  71.095  0.00  0.00    -0.001 A 
ATOM     21  C   UNL     1     -11.357  10.074  70.314  0.00  0.00    -0.021 A 
ATOM     22  C   UNL     1     -12.186  10.971  70.925  0.00  0.00    -0.001 A 
ATOM     23  C   UNL     1     -13.301  10.591  71.659  0.00  0.00    +0.037 A 
BRANCH  18  25
ATOM     24  C   UNL     1     -14.803   7.513  71.808  0.00  0.00    +0.252 C 
ATOM     25  O   UNL     1     -14.533   8.730  72.417  0.00  0.00    -0.471 OA
ENDBRANCH  18  25
ENDBRANCH  17  21
ENDBRANCH  15  17
ENDBRANCH  14  15
ENDBRANCH   1  14
TORSDOF 8
ENDMDL
MODEL 7
REMARK VINA RESULT:      -5.9      3.210      4.747
REMARK  Name = 
REMARK  8 active torsions:
REMARK  status: ('A' for Active; 'I' for Inactive)
REMARK    1  A    between atoms: O_2  and  C_3
REMARK    2  A    between atoms: C_6  and  C_7
REMARK    3  A    between atoms: C_7  and  C_8
REMARK    4  A    between atoms: C_8  and  N_10
REMARK    5  A    between atoms: N_10  and  C_11
REMARK    6  A    between atoms: C_11  and  C_12
REMARK    7  A    between atoms: C_12  and  C_14
REMARK    8  A    between atoms: C_19  and  N_20
REMARK                            x       y       z     vdW  Elec       q    Type
REMARK                         _______ _______ _______ _____ _____    ______ ____
ROOT
ATOM      1  C   UNL     1      -9.505  11.840  66.925  0.00  0.00    +0.126 C 
ENDROOT
BRANCH   1   2
ATOM      2  C   UNL     1      -8.859  13.233  67.635  0.00  0.00    +0.192 C 
ATOM      3  O   UNL     1      -9.994  13.273  68.700  0.00  0.00    -0.217 OA
BRANCH   2   4
ATOM      4  C   UNL     1      -9.702  14.267  66.667  0.00  0.00    +0.011 A 
ATOM      5  C   UNL     1     -10.743  13.645  66.007  0.00  0.00    +0.018 A 
ATOM      6  C   UNL     1     -11.453  14.440  65.115  0.00  0.00    +0.112 A 
ATOM      7  C   UNL     1     -11.142  15.791  65.005  0.00  0.00    +0.211 A 
ATOM      8  O   UNL     1     -11.426  16.487  63.832  0.00  0.00    -0.285 OA
ATOM      9  C   UNL     1     -10.444  16.349  66.068  0.00  0.00    +0.043 A 
ATOM     10  C   UNL     1      -9.865  15.539  67.047  0.00  0.00    +0.002 A 
BRANCH   6  11
ATOM     11  N   UNL     1     -12.601  13.981  64.425  0.00  0.00    -0.168 NA
ATOM     12  C   UNL     1     -12.505  12.716  63.759  0.00  0.00    +0.325 C 
ATOM     13  O   UNL     1     -11.471  12.444  63.108  0.00  0.00    -0.263 OA
ENDBRANCH   6  11
ENDBRANCH   2   4
ENDBRANCH   1   2
BRANCH   1  14
ATOM     14  N   UNL     1      -9.616  11.022  68.104  0.00  0.00    -0.216 NA
BRANCH  14  15
ATOM     15  C   UNL     1     -10.954  10.168  67.911  0.00  0.00    +0.077 C 
ATOM     16  C   UNL     1     -10.277   9.232  66.702  0.00  0.00    +0.019 C 
BRANCH  15  17
ATOM     17  C   UNL     1     -10.534   9.117  69.125  0.00  0.00    +0.044 C 
BRANCH  17  21
ATOM     18  C   UNL     1     -13.108   9.294  72.256  0.00  0.00    +0.139 A 
ATOM     19  C   UNL     1     -11.973   8.506  72.333  0.00  0.00    +0.037 A 
ATOM     20  C   UNL     1     -10.949   8.658  71.401  0.00  0.00    -0.001 A 
ATOM     21  C   UNL     1     -11.014   9.610  70.385  0.00  0.00    -0.021 A 
ATOM     22  C   UNL     1     -11.877  10.614  70.719  0.00  0.00    -0.001 A 
ATOM     23  C   UNL     1     -13.056  10.396  71.420  0.00  0.00    +0.037 A 
BRANCH  18  25
ATOM     24  C   UNL     1     -14.776   7.648  71.684  0.00  0.00    +0.252 C 
ATOM     25  O   UNL     1     -14.375   8.735  72.447  0.00  0.00    -0.471 OA
ENDBRANCH  18  25
ENDBRANCH  17  21
ENDBRANCH  15  17
ENDBRANCH  14  15
ENDBRANCH   1  14
TORSDOF 8
ENDMDL
MODEL 8
REMARK VINA RESULT:      -5.9      2.086      3.406
REMARK  Name = 
REMARK  8 active torsions:
REMARK  status: ('A' for Active; 'I' for Inactive)
REMARK    1  A    between atoms: O_2  and  C_3
REMARK    2  A    between atoms: C_6  and  C_7
REMARK    3  A    between atoms: C_7  and  C_8
REMARK    4  A    between atoms: C_8  and  N_10
REMARK    5  A    between atoms: N_10  and  C_11
REMARK    6  A    between atoms: C_11  and  C_12
REMARK    7  A    between atoms: C_12  and  C_14
REMARK    8  A    between atoms: C_19  and  N_20
REMARK                            x       y       z     vdW  Elec       q    Type
REMARK                         _______ _______ _______ _____ _____    ______ ____
ROOT
ATOM      1  C   UNL     1      -9.537  15.226  66.084  0.00  0.00    +0.126 C 
ENDROOT
BRANCH   1   2
ATOM      2  C   UNL     1     -10.800  16.318  66.359  0.00  0.00    +0.192 C 
ATOM      3  O   UNL     1     -10.573  17.000  64.978  0.00  0.00    -0.217 OA
BRANCH   2   4
ATOM      4  C   UNL     1      -9.838  17.436  67.094  0.00  0.00    +0.011 A 
ATOM      5  C   UNL     1      -8.517  17.336  66.705  0.00  0.00    +0.018 A 
ATOM      6  C   UNL     1      -7.634  18.200  67.342  0.00  0.00    +0.112 A 
ATOM      7  C   UNL     1      -8.124  19.143  68.237  0.00  0.00    +0.211 A 
ATOM      8  O   UNL     1      -7.307  19.651  69.245  0.00  0.00    -0.285 OA
ATOM      9  C   UNL     1      -9.476  19.444  68.132  0.00  0.00    +0.043 A 
ATOM     10  C   UNL     1     -10.327  18.653  67.359  0.00  0.00    +0.002 A 
BRANCH   6  11
ATOM     11  N   UNL     1      -6.262  18.285  66.997  0.00  0.00    -0.168 NA
ATOM     12  C   UNL     1      -5.923  19.060  65.840  0.00  0.00    +0.325 C 
ATOM     13  O   UNL     1      -6.623  18.958  64.808  0.00  0.00    -0.263 OA
ENDBRANCH   6  11
ENDBRANCH   2   4
ENDBRANCH   1   2
BRANCH   1  14
ATOM     14  N   UNL     1     -10.319  14.052  65.798  0.00  0.00    -0.216 NA
BRANCH  14  15
ATOM     15  C   UNL     1     -11.668  14.216  66.640  0.00  0.00    +0.077 C 
ATOM     16  C   UNL     1     -12.516  13.187  65.631  0.00  0.00    +0.019 C 
BRANCH  15  17
ATOM     17  C   UNL     1     -11.231  13.012  67.696  0.00  0.00    +0.044 C 
BRANCH  17  21
ATOM     18  C   UNL     1     -12.546  14.945  71.012  0.00  0.00    +0.139 A 
ATOM     19  C   UNL     1     -12.601  13.564  70.945  0.00  0.00    +0.037 A 
ATOM     20  C   UNL     1     -11.899  12.881  69.954  0.00  0.00    -0.001 A 
ATOM     21  C   UNL     1     -11.106  13.548  69.022  0.00  0.00    -0.021 A 
ATOM     22  C   UNL     1     -10.732  14.774  69.495  0.00  0.00    -0.001 A 
ATOM     23  C   UNL     1     -11.568  15.575  70.262  0.00  0.00    +0.037 A 
BRANCH  18  25
ATOM     24  C   UNL     1     -14.892  15.047  71.566  0.00  0.00    +0.252 C 
ATOM     25  O   UNL     1     -13.704  15.691  71.252  0.00  0.00    -0.471 OA
ENDBRANCH  18  25
ENDBRANCH  17  21
ENDBRANCH  15  17
ENDBRANCH  14  15
ENDBRANCH   1  14
TORSDOF 8
ENDMDL
MODEL 9
REMARK VINA RESULT:      -5.9      2.895      5.653
REMARK  Name = 
REMARK  8 active torsions:
REMARK  status: ('A' for Active; 'I' for Inactive)
REMARK    1  A    between atoms: O_2  and  C_3
REMARK    2  A    between atoms: C_6  and  C_7
REMARK    3  A    between atoms: C_7  and  C_8
REMARK    4  A    between atoms: C_8  and  N_10
REMARK    5  A    between atoms: N_10  and  C_11
REMARK    6  A    between atoms: C_11  and  C_12
REMARK    7  A    between atoms: C_12  and  C_14
REMARK    8  A    between atoms: C_19  and  N_20
REMARK                            x       y       z     vdW  Elec       q    Type
REMARK                         _______ _______ _______ _____ _____    ______ ____
ROOT
ATOM      1  C   UNL     1     -10.035  13.850  68.590  0.00  0.00    +0.126 C 
ENDROOT
BRANCH   1   2
ATOM      2  C   UNL     1     -11.375  12.831  68.757  0.00  0.00    +0.192 C 
ATOM      3  O   UNL     1     -10.468  11.566  68.782  0.00  0.00    -0.217 OA
BRANCH   2   4
ATOM      4  C   UNL     1     -11.604  12.662  67.134  0.00  0.00    +0.011 A 
ATOM      5  C   UNL     1     -12.045  13.826  66.537  0.00  0.00    +0.018 A 
ATOM      6  C   UNL     1     -12.331  13.736  65.179  0.00  0.00    +0.112 A 
ATOM      7  C   UNL     1     -12.083  12.546  64.504  0.00  0.00    +0.211 A 
ATOM      8  O   UNL     1     -12.792  12.231  63.347  0.00  0.00    -0.285 OA
ATOM      9  C   UNL     1     -11.193  11.670  65.111  0.00  0.00    +0.043 A 
ATOM     10  C   UNL     1     -10.791  11.862  66.435  0.00  0.00    +0.002 A 
BRANCH   6  11
ATOM     11  N   UNL     1     -12.710  14.857  64.400  0.00  0.00    -0.168 NA
ATOM     12  C   UNL     1     -11.672  15.763  64.007  0.00  0.00    +0.325 C 
ATOM     13  O   UNL     1     -10.797  16.091  64.840  0.00  0.00    -0.263 OA
ENDBRANCH   6  11
ENDBRANCH   2   4
ENDBRANCH   1   2
BRANCH   1  14
ATOM     14  N   UNL     1     -10.458  14.917  69.459  0.00  0.00    -0.216 NA
BRANCH  14  15
ATOM     15  C   UNL     1      -9.445  16.123  69.187  0.00  0.00    +0.077 C 
ATOM     16  C   UNL     1      -8.958  15.487  67.718  0.00  0.00    +0.019 C 
BRANCH  15  17
ATOM     17  C   UNL     1     -10.640  17.061  68.519  0.00  0.00    +0.044 C 
BRANCH  17  21
ATOM     18  C   UNL     1      -8.321  19.785  66.606  0.00  0.00    +0.139 A 
ATOM     19  C   UNL     1      -9.621  19.565  66.189  0.00  0.00    +0.037 A 
ATOM     20  C   UNL     1     -10.509  18.860  67.000  0.00  0.00    -0.001 A 
ATOM     21  C   UNL     1     -10.135  18.378  68.253  0.00  0.00    -0.021 A 
ATOM     22  C   UNL     1      -9.069  19.078  68.742  0.00  0.00    -0.001 A 
ATOM     23  C   UNL     1      -8.034  19.538  67.938  0.00  0.00    +0.037 A 
BRANCH  18  25
ATOM     24  C   UNL     1      -6.656  18.390  65.558  0.00  0.00    +0.252 C 
ATOM     25  O   UNL     1      -7.253  19.632  65.716  0.00  0.00    -0.471 OA
ENDBRANCH  18  25
ENDBRANCH  17  21
ENDBRANCH  15  17
ENDBRANCH  14  15
ENDBRANCH   1  14
TORSDOF 8
ENDMDL
