MODEL 1
REMARK VINA RESULT:      -5.4      0.000      0.000
REMARK  Name = 
REMARK  4 active torsions:
REMARK  status: ('A' for Active; 'I' for Inactive)
REMARK    1  A    between atoms: P_2  and  C_5
REMARK    2  A    between atoms: C_5  and  C_7
REMARK    3  A    between atoms: C_5  and  P_13
REMARK    4  A    between atoms: C_7  and  N_8
REMARK                            x       y       z     vdW  Elec       q    Type
REMARK                         _______ _______ _______ _____ _____    ______ ____
ROOT
ATOM      1  C   UNL     1     -11.108  13.498  66.099  0.00  0.00    +0.236 C 
ATOM      2  O   UNL     1      -9.901  14.138  65.881  0.00  0.00    -0.209 OA
ENDROOT
BRANCH   1   4
ATOM      3  O   UNL     1     -13.156  12.374  64.780  0.00  0.00    -0.457 OA
ATOM      4  P   UNL     1     -11.975  13.295  64.507  0.00  0.00    +0.153 P 
ATOM      5  O   UNL     1     -10.982  12.537  63.366  0.00  0.00    -0.355 OA
ATOM      6  O   UNL     1     -12.552  14.775  63.931  0.00  0.00    -0.355 OA
ENDBRANCH   1   4
BRANCH   1   7
ATOM      7  P   UNL     1     -10.823  11.872  66.836  0.00  0.00    +0.153 P 
ATOM      8  O   UNL     1     -12.146  11.359  67.754  0.00  0.00    -0.355 OA
ATOM      9  O   UNL     1     -10.467  10.724  65.663  0.00  0.00    -0.355 OA
ATOM     10  O   UNL     1      -9.631  11.958  67.775  0.00  0.00    -0.457 OA
ENDBRANCH   1   7
BRANCH   1  11
ATOM     11  C   UNL     1     -12.051  14.262  66.982  0.00  0.00    +0.152 C 
BRANCH  11  12
ATOM     12  N   UNL     1     -11.399  15.114  67.936  0.00  0.00    -0.304 N 
ATOM     13  C   UNL     1     -10.891  16.345  67.844  0.00  0.00    +0.179 A 
ATOM     14  N   UNL     1     -10.926  16.883  69.084  0.00  0.00    -0.222 NA
ATOM     15  C   UNL     1     -11.215  15.930  69.993  0.00  0.00    +0.119 A 
ATOM     16  C   UNL     1     -11.324  14.767  69.243  0.00  0.00    +0.098 A 
ENDBRANCH  11  12
ENDBRANCH   1  11
TORSDOF 4
ENDMDL
MODEL 2
REMARK VINA RESULT:      -5.3      0.075      1.151
REMARK  Name = 
REMARK  4 active torsions:
REMARK  status: ('A' for Active; 'I' for Inactive)
REMARK    1  A    between atoms: P_2  and  C_5
REMARK    2  A    between atoms: C_5  and  C_7
REMARK    3  A    between atoms: C_5  and  P_13
REMARK    4  A    between atoms: C_7  and  N_8
REMARK                            x       y       z     vdW  Elec       q    Type
REMARK                         _______ _______ _______ _____ _____    ______ ____
ROOT
ATOM      1  C   UNL     1     -11.101  13.495  66.114  0.00  0.00    +0.236 C 
ATOM      2  O   UNL     1      -9.893  14.134  65.903  0.00  0.00    -0.209 OA
ENDROOT
BRANCH   1   4
ATOM      3  O   UNL     1     -13.154  12.390  64.786  0.00  0.00    -0.457 OA
ATOM      4  P   UNL     1     -11.965  13.303  64.519  0.00  0.00    +0.153 P 
ATOM      5  O   UNL     1     -10.975  12.541  63.379  0.00  0.00    -0.355 OA
ATOM      6  O   UNL     1     -12.529  14.789  63.946  0.00  0.00    -0.355 OA
ENDBRANCH   1   4
BRANCH   1   7
ATOM      7  P   UNL     1     -10.821  11.864  66.842  0.00  0.00    +0.153 P 
ATOM      8  O   UNL     1     -10.517  10.694  65.661  0.00  0.00    -0.355 OA
ATOM      9  O   UNL     1      -9.558  11.897  67.948  0.00  0.00    -0.355 OA
ATOM     10  O   UNL     1     -12.075  11.435  67.586  0.00  0.00    -0.457 OA
ENDBRANCH   1   7
BRANCH   1  11
ATOM     11  C   UNL     1     -12.045  14.255  67.000  0.00  0.00    +0.152 C 
BRANCH  11  12
ATOM     12  N   UNL     1     -11.394  15.112  67.950  0.00  0.00    -0.304 N 
ATOM     13  C   UNL     1     -10.914  16.355  67.861  0.00  0.00    +0.179 A 
ATOM     14  N   UNL     1     -10.937  16.880  69.107  0.00  0.00    -0.222 NA
ATOM     15  C   UNL     1     -11.188  15.911  70.011  0.00  0.00    +0.119 A 
ATOM     16  C   UNL     1     -11.286  14.754  69.252  0.00  0.00    +0.098 A 
ENDBRANCH  11  12
ENDBRANCH   1  11
TORSDOF 4
ENDMDL
MODEL 3
REMARK VINA RESULT:      -5.2      1.404      3.249
REMARK  Name = 
REMARK  4 active torsions:
REMARK  status: ('A' for Active; 'I' for Inactive)
REMARK    1  A    between atoms: P_2  and  C_5
REMARK    2  A    between atoms: C_5  and  C_7
REMARK    3  A    between atoms: C_5  and  P_13
REMARK    4  A    between atoms: C_7  and  N_8
REMARK                            x       y       z     vdW  Elec       q    Type
REMARK                         _______ _______ _______ _____ _____    ______ ____
ROOT
ATOM      1  C   UNL     1     -11.217  13.671  66.271  0.00  0.00    +0.236 C 
ATOM      2  O   UNL     1     -12.090  14.370  67.084  0.00  0.00    -0.209 OA
ENDROOT
BRANCH   1   4
ATOM      3  O   UNL     1      -9.749  12.332  68.074  0.00  0.00    -0.457 OA
ATOM      4  P   UNL     1     -10.836  12.062  67.043  0.00  0.00    +0.153 P 
ATOM      5  O   UNL     1     -10.213  10.975  65.907  0.00  0.00    -0.355 OA
ATOM      6  O   UNL     1     -12.191  11.423  67.825  0.00  0.00    -0.355 OA
ENDBRANCH   1   4
BRANCH   1   7
ATOM      7  P   UNL     1     -11.968  13.392  64.650  0.00  0.00    +0.153 P 
ATOM      8  O   UNL     1     -12.593  14.818  63.995  0.00  0.00    -0.355 OA
ATOM      9  O   UNL     1     -10.871  12.707  63.578  0.00  0.00    -0.355 OA
ATOM     10  O   UNL     1     -13.128  12.422  64.805  0.00  0.00    -0.457 OA
ENDBRANCH   1   7
BRANCH   1  11
ATOM     11  C   UNL     1      -9.894  14.351  66.071  0.00  0.00    +0.152 C 
BRANCH  11  12
ATOM     12  N   UNL     1      -9.832  15.680  66.610  0.00  0.00    -0.304 N 
ATOM     13  C   UNL     1     -10.245  16.861  66.143  0.00  0.00    +0.179 A 
ATOM     14  N   UNL     1     -10.468  17.655  67.215  0.00  0.00    -0.222 NA
ATOM     15  C   UNL     1      -9.969  17.079  68.328  0.00  0.00    +0.119 A 
ATOM     16  C   UNL     1      -9.397  15.900  67.873  0.00  0.00    +0.098 A 
ENDBRANCH  11  12
ENDBRANCH   1  11
TORSDOF 4
ENDMDL
MODEL 4
REMARK VINA RESULT:      -5.1      2.059      3.110
REMARK  Name = 
REMARK  4 active torsions:
REMARK  status: ('A' for Active; 'I' for Inactive)
REMARK    1  A    between atoms: P_2  and  C_5
REMARK    2  A    between atoms: C_5  and  C_7
REMARK    3  A    between atoms: C_5  and  P_13
REMARK    4  A    between atoms: C_7  and  N_8
REMARK                            x       y       z     vdW  Elec       q    Type
REMARK                         _______ _______ _______ _____ _____    ______ ____
ROOT
ATOM      1  C   UNL     1     -10.869  14.521  67.006  0.00  0.00    +0.236 C 
ATOM      2  O   UNL     1      -9.858  13.834  67.652  0.00  0.00    -0.209 OA
ENDROOT
BRANCH   1   4
ATOM      3  O   UNL     1      -8.686  15.684  65.967  0.00  0.00    -0.457 OA
ATOM      4  P   UNL     1     -10.164  15.984  66.173  0.00  0.00    +0.153 P 
ATOM      5  O   UNL     1     -10.282  17.357  67.154  0.00  0.00    -0.355 OA
ATOM      6  O   UNL     1     -10.889  16.240  64.668  0.00  0.00    -0.355 OA
ENDBRANCH   1   4
BRANCH   1   7
ATOM      7  P   UNL     1     -11.655  13.455  65.775  0.00  0.00    +0.153 P 
ATOM      8  O   UNL     1     -13.109  14.108  65.217  0.00  0.00    -0.355 OA
ATOM      9  O   UNL     1     -10.629  13.160  64.478  0.00  0.00    -0.355 OA
ATOM     10  O   UNL     1     -11.981  12.117  66.419  0.00  0.00    -0.457 OA
ENDBRANCH   1   7
BRANCH   1  11
ATOM     11  C   UNL     1     -11.932  15.048  67.925  0.00  0.00    +0.152 C 
BRANCH  11  12
ATOM     12  N   UNL     1     -11.650  14.851  69.319  0.00  0.00    -0.304 N 
ATOM     13  C   UNL     1     -10.982  15.583  70.215  0.00  0.00    +0.179 A 
ATOM     14  N   UNL     1     -11.479  15.271  71.433  0.00  0.00    -0.222 NA
ATOM     15  C   UNL     1     -12.271  14.183  71.343  0.00  0.00    +0.119 A 
ATOM     16  C   UNL     1     -12.205  13.824  70.004  0.00  0.00    +0.098 A 
ENDBRANCH  11  12
ENDBRANCH   1  11
TORSDOF 4
ENDMDL
MODEL 5
REMARK VINA RESULT:      -5.0      3.672      5.073
REMARK  Name = 
REMARK  4 active torsions:
REMARK  status: ('A' for Active; 'I' for Inactive)
REMARK    1  A    between atoms: P_2  and  C_5
REMARK    2  A    between atoms: C_5  and  C_7
REMARK    3  A    between atoms: C_5  and  P_13
REMARK    4  A    between atoms: C_7  and  N_8
REMARK                            x       y       z     vdW  Elec       q    Type
REMARK                         _______ _______ _______ _____ _____    ______ ____
ROOT
ATOM      1  C   UNL     1     -10.063  15.816  66.665  0.00  0.00    +0.236 C 
ATOM      2  O   UNL     1     -11.229  15.419  67.296  0.00  0.00    -0.209 OA
ENDROOT
BRANCH   1   4
ATOM      3  O   UNL     1     -10.943  17.816  65.108  0.00  0.00    -0.457 OA
ATOM      4  P   UNL     1     -10.121  17.616  66.374  0.00  0.00    +0.153 P 
ATOM      5  O   UNL     1      -8.573  18.236  66.089  0.00  0.00    -0.355 OA
ATOM      6  O   UNL     1     -10.877  18.419  67.655  0.00  0.00    -0.355 OA
ENDBRANCH   1   4
BRANCH   1   7
ATOM      7  P   UNL     1      -8.634  15.424  67.701  0.00  0.00    +0.153 P 
ATOM      8  O   UNL     1      -7.205  15.369  66.802  0.00  0.00    -0.355 OA
ATOM      9  O   UNL     1      -8.472  16.525  68.960  0.00  0.00    -0.355 OA
ATOM     10  O   UNL     1      -8.833  14.048  68.314  0.00  0.00    -0.457 OA
ENDBRANCH   1   7
BRANCH   1  11
ATOM     11  C   UNL     1      -9.858  15.191  65.316  0.00  0.00    +0.152 C 
BRANCH  11  12
ATOM     12  N   UNL     1     -10.923  14.320  64.906  0.00  0.00    -0.304 N 
ATOM     13  C   UNL     1     -12.153  14.559  64.445  0.00  0.00    +0.179 A 
ATOM     14  N   UNL     1     -12.512  13.489  63.699  0.00  0.00    -0.222 NA
ATOM     15  C   UNL     1     -11.635  12.482  63.885  0.00  0.00    +0.119 A 
ATOM     16  C   UNL     1     -10.734  12.983  64.814  0.00  0.00    +0.098 A 
ENDBRANCH  11  12
ENDBRANCH   1  11
TORSDOF 4
ENDMDL
MODEL 6
REMARK VINA RESULT:      -5.0      3.583      5.543
REMARK  Name = 
REMARK  4 active torsions:
REMARK  status: ('A' for Active; 'I' for Inactive)
REMARK    1  A    between atoms: P_2  and  C_5
REMARK    2  A    between atoms: C_5  and  C_7
REMARK    3  A    between atoms: C_5  and  P_13
REMARK    4  A    between atoms: C_7  and  N_8
REMARK                            x       y       z     vdW  Elec       q    Type
REMARK                         _______ _______ _______ _____ _____    ______ ____
ROOT
ATOM      1  C   UNL     1      -9.982  16.061  66.941  0.00  0.00    +0.236 C 
ATOM      2  O   UNL     1      -9.094  15.327  66.174  0.00  0.00    -0.209 OA
ENDROOT
BRANCH   1   4
ATOM      3  O   UNL     1      -8.792  14.776  68.974  0.00  0.00    -0.457 OA
ATOM      4  P   UNL     1      -9.362  16.151  68.655  0.00  0.00    +0.153 P 
ATOM      5  O   UNL     1     -10.623  16.453  69.741  0.00  0.00    -0.355 OA
ATOM      6  O   UNL     1      -8.135  17.304  68.802  0.00  0.00    -0.355 OA
ENDBRANCH   1   4
BRANCH   1   7
ATOM      7  P   UNL     1     -10.140  17.734  66.275  0.00  0.00    +0.153 P 
ATOM      8  O   UNL     1     -10.958  18.758  67.340  0.00  0.00    -0.355 OA
ATOM      9  O   UNL     1      -8.638  18.387  65.899  0.00  0.00    -0.355 OA
ATOM     10  O   UNL     1     -10.953  17.678  64.991  0.00  0.00    -0.457 OA
ENDBRANCH   1   7
BRANCH   1  11
ATOM     11  C   UNL     1     -11.351  15.454  67.033  0.00  0.00    +0.152 C 
BRANCH  11  12
ATOM     12  N   UNL     1     -11.464  14.165  66.412  0.00  0.00    -0.304 N 
ATOM     13  C   UNL     1     -11.283  12.925  66.872  0.00  0.00    +0.179 A 
ATOM     14  N   UNL     1     -12.039  12.103  66.108  0.00  0.00    -0.222 NA
ATOM     15  C   UNL     1     -12.494  12.769  65.027  0.00  0.00    +0.119 A 
ATOM     16  C   UNL     1     -11.948  14.038  65.154  0.00  0.00    +0.098 A 
ENDBRANCH  11  12
ENDBRANCH   1  11
TORSDOF 4
ENDMDL
MODEL 7
REMARK VINA RESULT:      -4.9      3.228      5.243
REMARK  Name = 
REMARK  4 active torsions:
REMARK  status: ('A' for Active; 'I' for Inactive)
REMARK    1  A    between atoms: P_2  and  C_5
REMARK    2  A    between atoms: C_5  and  C_7
REMARK    3  A    between atoms: C_5  and  P_13
REMARK    4  A    between atoms: C_7  and  N_8
REMARK                            x       y       z     vdW  Elec       q    Type
REMARK                         _______ _______ _______ _____ _____    ______ ____
ROOT
ATOM      1  C   UNL     1     -10.502  15.219  66.748  0.00  0.00    +0.236 C 
ATOM      2  O   UNL     1      -9.473  14.355  66.424  0.00  0.00    -0.209 OA
ENDROOT
BRANCH   1   4
ATOM      3  O   UNL     1     -10.644  14.014  69.141  0.00  0.00    -0.457 OA
ATOM      4  P   UNL     1     -10.569  15.419  68.561  0.00  0.00    +0.153 P 
ATOM      5  O   UNL     1     -11.967  16.248  69.030  0.00  0.00    -0.355 OA
ATOM      6  O   UNL     1      -9.178  16.183  69.143  0.00  0.00    -0.355 OA
ENDBRANCH   1   4
BRANCH   1   7
ATOM      7  P   UNL     1     -10.224  16.832  65.979  0.00  0.00    +0.153 P 
ATOM      8  O   UNL     1      -8.582  17.120  65.705  0.00  0.00    -0.355 OA
ATOM      9  O   UNL     1     -11.075  16.977  64.539  0.00  0.00    -0.355 OA
ATOM     10  O   UNL     1     -10.719  17.918  66.920  0.00  0.00    -0.457 OA
ENDBRANCH   1   7
BRANCH   1  11
ATOM     11  C   UNL     1     -11.861  14.727  66.342  0.00  0.00    +0.152 C 
BRANCH  11  12
ATOM     12  N   UNL     1     -11.834  13.621  65.427  0.00  0.00    -0.304 N 
ATOM     13  C   UNL     1     -11.821  13.555  64.094  0.00  0.00    +0.179 A 
ATOM     14  N   UNL     1     -11.236  12.382  63.760  0.00  0.00    -0.222 NA
ATOM     15  C   UNL     1     -11.107  11.603  64.853  0.00  0.00    +0.119 A 
ATOM     16  C   UNL     1     -11.676  12.352  65.874  0.00  0.00    +0.098 A 
ENDBRANCH  11  12
ENDBRANCH   1  11
TORSDOF 4
ENDMDL
MODEL 8
REMARK VINA RESULT:      -4.7      4.025      5.167
REMARK  Name = 
REMARK  4 active torsions:
REMARK  status: ('A' for Active; 'I' for Inactive)
REMARK    1  A    between atoms: P_2  and  C_5
REMARK    2  A    between atoms: C_5  and  C_7
REMARK    3  A    between atoms: C_5  and  P_13
REMARK    4  A    between atoms: C_7  and  N_8
REMARK                            x       y       z     vdW  Elec       q    Type
REMARK                         _______ _______ _______ _____ _____    ______ ____
ROOT
ATOM      1  C   UNL     1      -9.822  16.406  66.964  0.00  0.00    +0.236 C 
ATOM      2  O   UNL     1     -10.891  15.998  67.740  0.00  0.00    -0.209 OA
ENDROOT
BRANCH   1   4
ATOM      3  O   UNL     1     -10.951  18.008  65.132  0.00  0.00    -0.457 OA
ATOM      4  P   UNL     1     -10.110  18.116  66.396  0.00  0.00    +0.153 P 
ATOM      5  O   UNL     1      -8.654  18.874  65.987  0.00  0.00    -0.355 OA
ATOM      6  O   UNL     1     -10.962  19.008  67.551  0.00  0.00    -0.355 OA
ENDBRANCH   1   4
BRANCH   1   7
ATOM      7  P   UNL     1      -8.296  16.348  67.933  0.00  0.00    +0.153 P 
ATOM      8  O   UNL     1      -6.965  15.930  66.981  0.00  0.00    -0.355 OA
ATOM      9  O   UNL     1      -8.006  17.812  68.705  0.00  0.00    -0.355 OA
ATOM     10  O   UNL     1      -8.434  15.280  69.005  0.00  0.00    -0.457 OA
ENDBRANCH   1   7
BRANCH   1  11
ATOM     11  C   UNL     1      -9.626  15.591  65.720  0.00  0.00    +0.152 C 
BRANCH  11  12
ATOM     12  N   UNL     1     -10.522  14.475  65.604  0.00  0.00    -0.304 N 
ATOM     13  C   UNL     1     -10.489  13.238  66.105  0.00  0.00    +0.179 A 
ATOM     14  N   UNL     1     -11.768  12.806  66.183  0.00  0.00    -0.222 NA
ATOM     15  C   UNL     1     -12.581  13.648  65.513  0.00  0.00    +0.119 A 
ATOM     16  C   UNL     1     -11.722  14.606  64.991  0.00  0.00    +0.098 A 
ENDBRANCH  11  12
ENDBRANCH   1  11
TORSDOF 4
ENDMDL
MODEL 9
REMARK VINA RESULT:      -4.6      2.690      3.541
REMARK  Name = 
REMARK  4 active torsions:
REMARK  status: ('A' for Active; 'I' for Inactive)
REMARK    1  A    between atoms: P_2  and  C_5
REMARK    2  A    between atoms: C_5  and  C_7
REMARK    3  A    between atoms: C_5  and  P_13
REMARK    4  A    between atoms: C_7  and  N_8
REMARK                            x       y       z     vdW  Elec       q    Type
REMARK                         _______ _______ _______ _____ _____    ______ ____
ROOT
ATOM      1  C   UNL     1      -9.798  16.055  66.637  0.00  0.00    +0.236 C 
ATOM      2  O   UNL     1      -8.792  16.779  66.024  0.00  0.00    -0.209 OA
ENDROOT
BRANCH   1   4
ATOM      3  O   UNL     1     -12.111  14.811  66.085  0.00  0.00    -0.457 OA
ATOM      4  P   UNL     1     -10.875  15.322  65.358  0.00  0.00    +0.153 P 
ATOM      5  O   UNL     1     -10.126  13.999  64.618  0.00  0.00    -0.355 OA
ATOM      6  O   UNL     1     -11.345  16.479  64.219  0.00  0.00    -0.355 OA
ENDBRANCH   1   4
BRANCH   1   7
ATOM      7  P   UNL     1      -9.086  14.734  67.645  0.00  0.00    +0.153 P 
ATOM      8  O   UNL     1      -8.711  15.268  69.203  0.00  0.00    -0.355 OA
ATOM      9  O   UNL     1     -10.114  13.408  67.730  0.00  0.00    -0.355 OA
ATOM     10  O   UNL     1      -7.788  14.271  67.004  0.00  0.00    -0.457 OA
ENDBRANCH   1   7
BRANCH   1  11
ATOM     11  C   UNL     1     -10.701  16.882  67.505  0.00  0.00    +0.152 C 
BRANCH  11  12
ATOM     12  N   UNL     1     -10.220  18.212  67.750  0.00  0.00    -0.304 N 
ATOM     13  C   UNL     1      -9.225  18.685  68.505  0.00  0.00    +0.179 A 
ATOM     14  N   UNL     1      -8.840  19.863  67.963  0.00  0.00    -0.222 NA
ATOM     15  C   UNL     1      -9.735  20.256  67.033  0.00  0.00    +0.119 A 
ATOM     16  C   UNL     1     -10.709  19.268  67.057  0.00  0.00    +0.098 A 
ENDBRANCH  11  12
ENDBRANCH   1  11
TORSDOF 4
ENDMDL
